@<TRIPOS>MOLECULE
3R8
117   119    1
SMALL
USER_CHARGES


@<TRIPOS>ATOM
      1 CA         15.9931  -25.0071  -40.3330 C.3       0 UNK        -0.2013 
      2 C          16.7678  -25.6589  -41.4679 C.2       0 UNK         0.4866 
      3 O          16.8234  -25.1100  -42.5691 O.2       0 UNK        -0.5176 
      4 N          17.3814  -26.8206  -41.2106 N.am      1 UNK        -0.4884 
      5 CA         18.1536  -27.6185  -42.1737 C.3       1 UNK         0.0853 
      6 C6         18.1809  -29.1157  -41.7753 C.3       10 UNK        -0.0849 
      7 S7         16.5220  -29.8839  -41.8039 S.3       10 UNK        -0.2776 
      8 C8         16.2263  -30.1619  -43.5863 C.3       10 UNK         0.0316 
      9 C9         17.3800  -30.8871  -44.2646 C.ar      10 UNK        -0.0863 
     10 C10        17.6026  -32.2447  -44.0176 C.ar      10 UNK        -0.1009 
     11 C11        18.7024  -32.8970  -44.5828 C.ar      10 UNK        -0.0712 
     12 C12        19.5754  -32.1847  -45.4113 C.ar      10 UNK        -0.0894 
     13 C13        19.3664  -30.8243  -45.6574 C.ar      10 UNK        -0.0745 
     14 C14        18.2570  -30.1853  -45.0976 C.ar      10 UNK        -0.0972 
     15 C15        20.3851  -30.0212  -46.4493 C.3       10 UNK         0.0209 
     16 S16        21.6554  -29.4090  -45.3082 S.3       10 UNK        -0.2568 
     17 C17        22.6490  -28.2829  -46.3383 C.3       10 UNK        -0.0983 
     18 CA         22.2266  -26.7896  -46.2415 C.3       3 UNK         0.0876 
     19 N          21.7994  -26.3923  -44.8916 N.am      3 UNK        -0.4424 
     20 C          21.1717  -25.2502  -44.5881 C.2       2 UNK         0.4918 
     21 O          20.8195  -24.4170  -45.4246 O.2       2 UNK        -0.4875 
     22 CA         20.8552  -25.0258  -43.1020 C.3       2 UNK         0.0481 
     23 CB         20.6715  -23.5372  -42.7582 C.3       2 UNK        -0.1831 
     24 N          19.6394  -25.7505  -42.7448 N.am      2 UNK        -0.4498 
     25 C          19.5702  -27.0417  -42.4007 C.2       1 UNK         0.5027 
     26 O          20.5641  -27.7555  -42.2584 O.2       1 UNK        -0.4969 
     27 C          23.3746  -25.8830  -46.7336 C.2       3 UNK         0.5005 
     28 O          23.3945  -25.4693  -47.8937 O.2       3 UNK        -0.5279 
     29 N          24.2873  -25.5823  -45.8041 N.am      4 UNK        -0.4463 
     30 CA         25.3965  -24.6382  -45.8980 C.3       4 UNK         0.0283 
     31 CB         26.5276  -25.1683  -46.8006 C.3       4 UNK        -0.1875 
     32 C          25.8550  -24.4006  -44.4572 C.2       4 UNK         0.4949 
     33 O          25.7551  -23.2830  -43.9521 O.2       4 UNK        -0.5039 
     34 N          26.2244  -25.5028  -43.7933 N.am      5 UNK        -0.4663 
     35 CA         26.1524  -25.6605  -42.3418 C.3       5 UNK         0.0242 
     36 CB         27.3015  -26.5771  -41.8882 C.3       5 UNK        -0.1982 
     37 C          24.7872  -26.2784  -41.9833 C.2       5 UNK         0.5017 
     38 O          24.0764  -26.7502  -42.8780 O.2       5 UNK        -0.5012 
     39 N          24.4473  -26.2739  -40.6889 N.am      6 UNK        -0.4439 
     40 CA         23.2477  -26.9208  -40.1551 C.3       6 UNK         0.0297 
     41 CB         22.9301  -26.3502  -38.7630 C.3       6 UNK        -0.2006 
     42 C          23.4364  -28.4454  -40.0996 C.2       6 UNK         0.4892 
     43 O          24.3494  -28.9116  -39.4136 O.2       6 UNK        -0.5089 
     44 N          22.5820  -29.1863  -40.8133 N.am      7 UNK        -0.4243 
     45 CA         22.5593  -30.6490  -40.8106 C.3       7 UNK         0.0196 
     46 CB         22.0464  -31.1486  -42.1680 C.3       7 UNK        -0.2007 
     47 C          21.6789  -31.1847  -39.6721 C.2       7 UNK         0.5020 
     48 O          20.7059  -30.5349  -39.2836 O.2       7 UNK        -0.5147 
     49 N          22.0291  -32.3762  -39.1722 N.am      8 UNK        -0.4734 
     50 CA         21.3114  -33.0637  -38.0925 C.3       8 UNK         0.0238 
     51 CB         22.3203  -33.8840  -37.2705 C.3       8 UNK        -0.1912 
     52 C          20.1719  -33.9699  -38.5944 C.2       8 UNK         0.5038 
     53 O          19.3220  -34.3550  -37.7898 O.2       8 UNK        -0.5046 
     54 N          20.1856  -34.3217  -39.8868 N.am      9 UNK        -0.4200 
     55 CA         19.1667  -35.1483  -40.5516 C.3       9 UNK         0.0839 
     56 C          17.7899  -34.4413  -40.7116 C.2       9 UNK         0.5513 
     57 N          16.7453  -35.1938  -41.0326 N.am      9 UNK        -0.7519 
     58 O          17.6547  -33.2299  -40.5615 O.2       9 UNK        -0.4960 
     59 C59        19.6970  -35.7471  -41.8842 C.3       10 UNK        -0.0876 
     60 S60        20.3361  -34.5035  -43.0595 S.3       10 UNK        -0.2414 
     61 C61        18.9743  -34.3574  -44.2599 C.3       10 UNK         0.0169 
     62 H62        14.9480  -24.8832  -40.6158 H         1 UNK         0.0903 
     63 H63        16.0289  -25.6015  -39.4202 H         1 UNK         0.0903 
     64 H64        16.4059  -24.0228  -40.1138 H         1 UNK         0.0903 
     65 H65        17.3124  -27.2179  -40.2842 H         1 UNK         0.3096 
     66 H66        17.6579  -27.5510  -43.1442 H         1 UNK         0.1121 
     67 H67        18.8469  -29.6893  -42.4205 H         1 UNK         0.0849 
     68 H68        18.5924  -29.2313  -40.7708 H         1 UNK         0.0849 
     69 H69        15.3128  -30.7464  -43.7050 H         1 UNK         0.0865 
     70 H70        16.0344  -29.2036  -44.0710 H         1 UNK         0.0865 
     71 H71        16.9399  -32.7815  -43.3521 H         1 UNK         0.1346 
     72 H72        20.4455  -32.6782  -45.8224 H         1 UNK         0.1412 
     73 H73        18.1080  -29.1284  -45.2707 H         1 UNK         0.1426 
     74 H74        19.9041  -29.1812  -46.9528 H         1 UNK         0.0716 
     75 H75        20.8462  -30.6371  -47.2228 H         1 UNK         0.0716 
     76 H76        22.6222  -28.6191  -47.3764 H         1 UNK         0.0695 
     77 H77        23.6816  -28.4162  -46.0083 H         1 UNK         0.0695 
     78 H78        21.3751  -26.6367  -46.9082 H         1 UNK         0.0983 
     79 H79        22.0232  -27.0389  -44.1436 H         1 UNK         0.3095 
     80 H80        21.6959  -25.3962  -42.5158 H         1 UNK         0.0454 
     81 H81        21.5566  -22.9624  -43.0340 H         1 UNK         0.0851 
     82 H82        20.5139  -23.3959  -41.6890 H         1 UNK         0.0851 
     83 H83        19.8206  -23.0996  -43.2820 H         1 UNK         0.0851 
     84 H84        18.7595  -25.2526  -42.8471 H         1 UNK         0.2976 
     85 H85        24.1352  -25.9625  -44.8735 H         1 UNK         0.3116 
     86 H86        25.0241  -23.6950  -46.3031 H         1 UNK         0.0646 
     87 H87        27.3814  -24.4896  -46.7916 H         1 UNK         0.0847 
     88 H88        26.8840  -26.1483  -46.4828 H         1 UNK         0.0847 
     89 H89        26.1986  -25.2563  -47.8360 H         1 UNK         0.0847 
     90 H90        26.2530  -26.3691  -44.3125 H         1 UNK         0.3040 
     91 H91        26.2437  -24.6906  -41.8472 H         1 UNK         0.1015 
     92 H92        27.3112  -26.6927  -40.8037 H         1 UNK         0.0786 
     93 H93        28.2701  -26.1676  -42.1762 H         1 UNK         0.0786 
     94 H94        27.2185  -27.5751  -42.3211 H         1 UNK         0.0786 
     95 H95        25.1009  -25.9074  -40.0118 H         1 UNK         0.3172 
     96 H96        22.4044  -26.6883  -40.8036 H         1 UNK         0.0595 
     97 H97        23.7411  -26.5282  -38.0556 H         1 UNK         0.0839 
     98 H98        22.0320  -26.8129  -38.3513 H         1 UNK         0.0839 
     99 H99        22.7497  -25.2760  -38.8059 H         1 UNK         0.0839 
    100 H100       21.8422  -28.7206  -41.3364 H         1 UNK         0.2998 
    101 H101       23.5765  -31.0229  -40.6738 H         1 UNK         0.0822 
    102 H102       22.7002  -30.8199  -42.9749 H         1 UNK         0.0787 
    103 H103       22.0222  -32.2372  -42.2022 H         1 UNK         0.0787 
    104 H104       21.0387  -30.7901  -42.3827 H         1 UNK         0.0787 
    105 H105       22.8446  -32.8434  -39.5441 H         1 UNK         0.3055 
    106 H106       20.8605  -32.3214  -37.4293 H         1 UNK         0.1106 
    107 H107       23.0995  -33.2483  -36.8495 H         1 UNK         0.0828 
    108 H108       21.8286  -34.3846  -36.4350 H         1 UNK         0.0828 
    109 H109       22.8030  -34.6549  -37.8725 H         1 UNK         0.0828 
    110 H110       20.8895  -33.9241  -40.4895 H         1 UNK         0.2931 
    111 H111       18.9835  -35.9932  -39.8843 H         1 UNK         0.0412 
    112 H112       15.8439  -34.7554  -41.1397 H         1 UNK         0.3472 
    113 H113       16.8320  -36.1917  -41.1462 H         1 UNK         0.3472 
    114 H114       20.5199  -36.4276  -41.6604 H         1 UNK         0.0970 
    115 H115       18.9431  -36.3710  -42.3668 H         1 UNK         0.0970 
    116 H116       19.2378  -34.8981  -45.1700 H         1 UNK         0.0612 
    117 H117       18.0699  -34.8280  -43.8719 H         1 UNK         0.0612 
@<TRIPOS>BOND
     1    1    2 1    
     2    1   62 1    
     3    1   63 1    
     4    1   64 1    
     5    2    3 2    
     6    2    4 am   BACKBONE|DICT|INTERRES
     7    4    5 1    
     8    4   65 1    
     9    5    6 1    
    10    5   25 1    
    11    5   66 1    
    12    6    7 1    
    13    6   67 1    
    14    6   68 1    
    15    7    8 1    
    16    8    9 1    
    17    8   69 1    
    18    8   70 1    
    19    9   10 ar   
    20    9   14 ar   
    21   10   11 ar   
    22   10   71 1    
    23   11   12 ar   
    24   11   61 1    
    25   12   13 ar   
    26   12   72 1    
    27   13   14 ar   
    28   13   15 1    
    29   14   73 1    
    30   15   16 1    
    31   15   74 1    
    32   15   75 1    
    33   16   17 1    
    34   17   18 1    
    35   17   76 1    
    36   17   77 1    
    37   18   19 1    
    38   18   27 1    
    39   18   78 1    
    40   19   20 am   BACKBONE|DICT|INTERRES
    41   19   79 1    
    42   20   21 2    
    43   20   22 1    
    44   22   23 1    
    45   22   24 1    
    46   22   80 1    
    47   23   81 1    
    48   23   82 1    
    49   23   83 1    
    50   24   25 am   BACKBONE|DICT|INTERRES
    51   24   84 1    
    52   25   26 2    
    53   27   28 2    
    54   27   29 am   BACKBONE|DICT|INTERRES
    55   29   30 1    
    56   29   85 1    
    57   30   31 1    
    58   30   32 1    
    59   30   86 1    
    60   31   87 1    
    61   31   88 1    
    62   31   89 1    
    63   32   33 2    
    64   32   34 am   BACKBONE|DICT|INTERRES
    65   34   35 1    
    66   34   90 1    
    67   35   36 1    
    68   35   37 1    
    69   35   91 1    
    70   36   92 1    
    71   36   93 1    
    72   36   94 1    
    73   37   38 2    
    74   37   39 am   BACKBONE|DICT|INTERRES
    75   39   40 1    
    76   39   95 1    
    77   40   41 1    
    78   40   42 1    
    79   40   96 1    
    80   41   97 1    
    81   41   98 1    
    82   41   99 1    
    83   42   43 2    
    84   42   44 am   BACKBONE|DICT|INTERRES
    85   44   45 1    
    86   44  100 1    
    87   45   46 1    
    88   45   47 1    
    89   45  101 1    
    90   46  102 1    
    91   46  103 1    
    92   46  104 1    
    93   47   48 2    
    94   47   49 am   BACKBONE|DICT|INTERRES
    95   49   50 1    
    96   49  105 1    
    97   50   51 1    
    98   50   52 1    
    99   50  106 1    
   100   51  107 1    
   101   51  108 1    
   102   51  109 1    
   103   52   53 2    
   104   52   54 am   BACKBONE|DICT|INTERRES
   105   54   55 1    
   106   54  110 1    
   107   55   56 1    
   108   55   59 1    
   109   55  111 1    
   110   56   57 am   BACKBONE|DICT|INTERRES
   111   56   58 2    
   112   57  112 1    
   113   57  113 1    
   114   59   60 1    
   115   59  114 1    
   116   59  115 1    
   117   60   61 1    
   118   61  116 1    
   119   61  117 1    
@<TRIPOS>SUBSTRUCTURE
     1 UNK         1 GROUP             0       ****    0 ROOT    
