@<TRIPOS>MOLECULE
3R8
117   119    1
SMALL
USER_CHARGES


@<TRIPOS>ATOM
      1 CA         15.0318  -24.2275  -46.8822 C.3       0 UNK        -0.2013 
      2 C          16.1669  -23.7381  -45.9955 C.2       0 UNK         0.4866 
      3 O          16.1286  -22.6028  -45.5213 O.2       0 UNK        -0.5176 
      4 N          17.1762  -24.5882  -45.7619 N.am      1 UNK        -0.4884 
      5 CA         18.3589  -24.2810  -44.9435 C.3       1 UNK         0.0853 
      6 C6         19.5849  -25.1273  -45.3933 C.3       10 UNK        -0.0849 
      7 S7         19.6612  -26.8331  -44.7401 S.3       10 UNK        -0.2776 
      8 C8         18.9052  -27.8261  -46.0633 C.3       10 UNK         0.0316 
      9 C9         18.8536  -29.2846  -45.6357 C.ar      10 UNK        -0.0863 
     10 C10        19.7178  -30.2242  -46.2003 C.ar      10 UNK        -0.1009 
     11 C11        19.7133  -31.5503  -45.7561 C.ar      10 UNK        -0.0712 
     12 C12        18.8545  -31.9229  -44.7150 C.ar      10 UNK        -0.0894 
     13 C13        17.9952  -30.9880  -44.1240 C.ar      10 UNK        -0.0745 
     14 C14        17.9683  -29.6833  -44.6319 C.ar      10 UNK        -0.0972 
     15 C15        17.1131  -31.4253  -42.9502 C.3       10 UNK         0.0209 
     16 S16        16.4595  -30.0746  -41.8959 S.3       10 UNK        -0.2568 
     17 C17        17.9108  -29.5603  -40.9060 C.3       10 UNK        -0.0983 
     18 CA         18.6972  -28.3699  -41.5246 C.3       3 UNK         0.0876 
     19 N          17.8614  -27.2133  -41.8701 N.am      3 UNK        -0.4424 
     20 C          17.2421  -26.3722  -41.0289 C.2       2 UNK         0.4918 
     21 O          17.2553  -26.4884  -39.8028 O.2       2 UNK        -0.4875 
     22 CA         16.4589  -25.2089  -41.6756 C.3       2 UNK         0.0481 
     23 CB         16.4156  -23.9513  -40.7817 C.3       2 UNK        -0.1831 
     24 N          16.9069  -24.8845  -43.0387 N.am      2 UNK        -0.4498 
     25 C          18.0894  -24.3708  -43.4203 C.2       1 UNK         0.5027 
     26 O          18.9721  -24.0248  -42.6344 O.2       1 UNK        -0.4969 
     27 C          19.9288  -27.9324  -40.7046 C.2       3 UNK         0.5005 
     28 O          20.1892  -28.4707  -39.6257 O.2       3 UNK        -0.5279 
     29 N          20.6649  -26.9558  -41.2505 N.am      4 UNK        -0.4463 
     30 CA         21.8987  -26.4071  -40.6894 C.3       4 UNK         0.0283 
     31 CB         21.5796  -25.0846  -39.9670 C.3       4 UNK        -0.1875 
     32 C          22.9750  -26.2471  -41.7788 C.2       4 UNK         0.4949 
     33 O          23.8059  -25.3424  -41.6877 O.2       4 UNK        -0.5039 
     34 N          22.9468  -27.1191  -42.7957 N.am      5 UNK        -0.4663 
     35 CA         23.9277  -27.1602  -43.8835 C.3       5 UNK         0.0242 
     36 CB         23.2652  -27.7386  -45.1450 C.3       5 UNK        -0.1982 
     37 C          25.1772  -27.9771  -43.5152 C.2       5 UNK         0.5017 
     38 O          26.2503  -27.7075  -44.0562 O.2       5 UNK        -0.5012 
     39 N          25.0239  -28.9530  -42.6132 N.am      6 UNK        -0.4439 
     40 CA         26.0788  -29.8263  -42.1032 C.3       6 UNK         0.0297 
     41 CB         26.3757  -30.9477  -43.1207 C.3       6 UNK        -0.2006 
     42 C          25.6447  -30.3832  -40.7396 C.2       6 UNK         0.4892 
     43 O          24.5790  -30.0155  -40.2414 O.2       6 UNK        -0.5089 
     44 N          26.4723  -31.2624  -40.1581 N.am      7 UNK        -0.4243 
     45 CA         26.1837  -31.9529  -38.8967 C.3       7 UNK         0.0196 
     46 CB         27.4571  -32.6444  -38.3824 C.3       7 UNK        -0.2007 
     47 C          25.0273  -32.9616  -39.0187 C.2       7 UNK         0.5020 
     48 O          24.1959  -33.0393  -38.1142 O.2       7 UNK        -0.5147 
     49 N          24.9931  -33.7091  -40.1318 N.am      8 UNK        -0.4734 
     50 CA         23.9088  -34.6395  -40.4613 C.3       8 UNK         0.0238 
     51 CB         24.4221  -35.7214  -41.4272 C.3       8 UNK        -0.1912 
     52 C          22.7019  -33.8946  -41.0512 C.2       8 UNK         0.5038 
     53 O          21.5838  -34.0534  -40.5597 O.2       8 UNK        -0.5046 
     54 N          22.9653  -33.0727  -42.0742 N.am      9 UNK        -0.4200 
     55 CA         22.0031  -32.1733  -42.7263 C.3       9 UNK         0.0839 
     56 C          21.7834  -30.8775  -41.9033 C.2       9 UNK         0.5513 
     57 N          21.3121  -30.9965  -40.6709 N.am      9 UNK        -0.7519 
     58 O          22.0332  -29.7704  -42.3720 O.2       9 UNK        -0.4960 
     59 C59        22.3939  -31.9203  -44.2092 C.3       10 UNK        -0.0876 
     60 S60        21.8549  -33.3218  -45.2470 S.3       10 UNK        -0.2414 
     61 C61        20.6574  -32.5625  -46.4005 C.3       10 UNK         0.0169 
     62 H62        14.9387  -23.5868  -47.7587 H         1 UNK         0.0903 
     63 H63        15.1918  -25.2494  -47.2254 H         1 UNK         0.0903 
     64 H64        14.0891  -24.1967  -46.3366 H         1 UNK         0.0903 
     65 H65        17.1588  -25.5050  -46.1839 H         1 UNK         0.3096 
     66 H66        18.6170  -23.2355  -45.1295 H         1 UNK         0.1121 
     67 H67        19.6594  -25.1480  -46.4819 H         1 UNK         0.0849 
     68 H68        20.4965  -24.6290  -45.0582 H         1 UNK         0.0849 
     69 H69        17.8960  -27.4708  -46.2721 H         1 UNK         0.0865 
     70 H70        19.4802  -27.7077  -46.9832 H         1 UNK         0.0865 
     71 H71        20.4032  -29.9195  -46.9795 H         1 UNK         0.1346 
     72 H72        18.8707  -32.9424  -44.3542 H         1 UNK         0.1412 
     73 H73        17.2953  -28.9494  -44.2141 H         1 UNK         0.1426 
     74 H74        16.2643  -31.9773  -43.3556 H         1 UNK         0.0716 
     75 H75        17.6603  -32.1257  -42.3171 H         1 UNK         0.0716 
     76 H76        17.5539  -29.2963  -39.9091 H         1 UNK         0.0695 
     77 H77        18.5654  -30.4225  -40.7728 H         1 UNK         0.0695 
     78 H78        19.1238  -28.7330  -42.4584 H         1 UNK         0.0983 
     79 H79        17.7987  -27.0078  -42.8559 H         1 UNK         0.3095 
     80 H80        15.4336  -25.5661  -41.7805 H         1 UNK         0.0454 
     81 H81        15.9161  -24.1620  -39.8354 H         1 UNK         0.0851 
     82 H82        17.4150  -23.5868  -40.5429 H         1 UNK         0.0851 
     83 H83        15.8673  -23.1408  -41.2614 H         1 UNK         0.0851 
     84 H84        16.2592  -25.1222  -43.7771 H         1 UNK         0.2976 
     85 H85        20.3814  -26.5725  -42.1436 H         1 UNK         0.3116 
     86 H86        22.3158  -27.1052  -39.9604 H         1 UNK         0.0646 
     87 H87        22.4682  -24.6699  -39.4896 H         1 UNK         0.0847 
     88 H88        20.8330  -25.2310  -39.1863 H         1 UNK         0.0847 
     89 H89        21.1960  -24.3339  -40.6592 H         1 UNK         0.0847 
     90 H90        22.2973  -27.9004  -42.7458 H         1 UNK         0.3040 
     91 H91        24.2579  -26.1440  -44.1107 H         1 UNK         0.1015 
     92 H92        22.4812  -27.0789  -45.5145 H         1 UNK         0.0786 
     93 H93        22.8211  -28.7167  -44.9580 H         1 UNK         0.0786 
     94 H94        23.9898  -27.8558  -45.9520 H         1 UNK         0.0786 
     95 H95        24.1154  -29.0873  -42.1779 H         1 UNK         0.3172 
     96 H96        26.9810  -29.2323  -41.9435 H         1 UNK         0.0595 
     97 H97        25.5310  -31.6256  -43.2318 H         1 UNK         0.0839 
     98 H98        27.2363  -31.5446  -42.8180 H         1 UNK         0.0839 
     99 H99        26.6079  -30.5430  -44.1059 H         1 UNK         0.0839 
    100 H100       27.3432  -31.4922  -40.6149 H         1 UNK         0.2998 
    101 H101       25.8869  -31.2006  -38.1621 H         1 UNK         0.0822 
    102 H102       28.2572  -31.9242  -38.2096 H         1 UNK         0.0787 
    103 H103       27.2691  -33.1502  -37.4341 H         1 UNK         0.0787 
    104 H104       27.8250  -33.3942  -39.0838 H         1 UNK         0.0787 
    105 H105       25.7325  -33.5969  -40.8095 H         1 UNK         0.3055 
    106 H106       23.5761  -35.1370  -39.5468 H         1 UNK         0.1106 
    107 H107       23.6257  -36.4209  -41.6854 H         1 UNK         0.0828 
    108 H108       24.7978  -35.2984  -42.3595 H         1 UNK         0.0828 
    109 H109       25.2266  -36.3029  -40.9764 H         1 UNK         0.0828 
    110 H110       23.9187  -33.0003  -42.3894 H         1 UNK         0.2931 
    111 H111       21.0253  -32.6599  -42.7281 H         1 UNK         0.0412 
    112 H112       21.1427  -30.1633  -40.1199 H         1 UNK         0.3472 
    113 H113       21.1420  -31.9144  -40.2837 H         1 UNK         0.3472 
    114 H114       23.4693  -31.7836  -44.3197 H         1 UNK         0.0970 
    115 H115       21.9544  -30.9991  -44.5898 H         1 UNK         0.0970 
    116 H116       20.0656  -33.3549  -46.8602 H         1 UNK         0.0612 
    117 H117       21.2204  -32.0966  -47.2107 H         1 UNK         0.0612 
@<TRIPOS>BOND
     1    1    2 1    
     2    1   62 1    
     3    1   63 1    
     4    1   64 1    
     5    2    3 2    
     6    2    4 am   BACKBONE|DICT|INTERRES
     7    4    5 1    
     8    4   65 1    
     9    5    6 1    
    10    5   25 1    
    11    5   66 1    
    12    6    7 1    
    13    6   67 1    
    14    6   68 1    
    15    7    8 1    
    16    8    9 1    
    17    8   69 1    
    18    8   70 1    
    19    9   10 ar   
    20    9   14 ar   
    21   10   11 ar   
    22   10   71 1    
    23   11   12 ar   
    24   11   61 1    
    25   12   13 ar   
    26   12   72 1    
    27   13   14 ar   
    28   13   15 1    
    29   14   73 1    
    30   15   16 1    
    31   15   74 1    
    32   15   75 1    
    33   16   17 1    
    34   17   18 1    
    35   17   76 1    
    36   17   77 1    
    37   18   19 1    
    38   18   27 1    
    39   18   78 1    
    40   19   20 am   BACKBONE|DICT|INTERRES
    41   19   79 1    
    42   20   21 2    
    43   20   22 1    
    44   22   23 1    
    45   22   24 1    
    46   22   80 1    
    47   23   81 1    
    48   23   82 1    
    49   23   83 1    
    50   24   25 am   BACKBONE|DICT|INTERRES
    51   24   84 1    
    52   25   26 2    
    53   27   28 2    
    54   27   29 am   BACKBONE|DICT|INTERRES
    55   29   30 1    
    56   29   85 1    
    57   30   31 1    
    58   30   32 1    
    59   30   86 1    
    60   31   87 1    
    61   31   88 1    
    62   31   89 1    
    63   32   33 2    
    64   32   34 am   BACKBONE|DICT|INTERRES
    65   34   35 1    
    66   34   90 1    
    67   35   36 1    
    68   35   37 1    
    69   35   91 1    
    70   36   92 1    
    71   36   93 1    
    72   36   94 1    
    73   37   38 2    
    74   37   39 am   BACKBONE|DICT|INTERRES
    75   39   40 1    
    76   39   95 1    
    77   40   41 1    
    78   40   42 1    
    79   40   96 1    
    80   41   97 1    
    81   41   98 1    
    82   41   99 1    
    83   42   43 2    
    84   42   44 am   BACKBONE|DICT|INTERRES
    85   44   45 1    
    86   44  100 1    
    87   45   46 1    
    88   45   47 1    
    89   45  101 1    
    90   46  102 1    
    91   46  103 1    
    92   46  104 1    
    93   47   48 2    
    94   47   49 am   BACKBONE|DICT|INTERRES
    95   49   50 1    
    96   49  105 1    
    97   50   51 1    
    98   50   52 1    
    99   50  106 1    
   100   51  107 1    
   101   51  108 1    
   102   51  109 1    
   103   52   53 2    
   104   52   54 am   BACKBONE|DICT|INTERRES
   105   54   55 1    
   106   54  110 1    
   107   55   56 1    
   108   55   59 1    
   109   55  111 1    
   110   56   57 am   BACKBONE|DICT|INTERRES
   111   56   58 2    
   112   57  112 1    
   113   57  113 1    
   114   59   60 1    
   115   59  114 1    
   116   59  115 1    
   117   60   61 1    
   118   61  116 1    
   119   61  117 1    
@<TRIPOS>SUBSTRUCTURE
     1 UNK         1 GROUP             0       ****    0 ROOT    
