@<TRIPOS>MOLECULE
3R8
117   119    1
SMALL
USER_CHARGES


@<TRIPOS>ATOM
      1 CA         17.0043  -23.2683  -47.1736 C.3       0 UNK        -0.2013 
      2 C          18.3059  -24.0556  -47.1719 C.2       0 UNK         0.4866 
      3 O          19.3254  -23.5560  -47.6476 O.2       0 UNK        -0.5176 
      4 N          18.2807  -25.2839  -46.6384 N.am      1 UNK        -0.4884 
      5 CA         19.4333  -26.1960  -46.5785 C.3       1 UNK         0.0853 
      6 C6         19.0042  -27.6618  -46.3114 C.3       10 UNK        -0.0849 
      7 S7         17.6745  -28.2734  -47.4031 S.3       10 UNK        -0.2776 
      8 C8         17.6363  -30.0541  -46.9786 C.3       10 UNK         0.0316 
      9 C9         17.5977  -30.3337  -45.4768 C.ar      10 UNK        -0.0863 
     10 C10        18.4407  -31.3042  -44.9256 C.ar      10 UNK        -0.1009 
     11 C11        18.4522  -31.5410  -43.5467 C.ar      10 UNK        -0.0712 
     12 C12        17.6198  -30.7901  -42.7121 C.ar      10 UNK        -0.0894 
     13 C13        16.7710  -29.8203  -43.2507 C.ar      10 UNK        -0.0745 
     14 C14        16.7430  -29.6173  -44.6327 C.ar      10 UNK        -0.0972 
     15 C15        15.9004  -28.9643  -42.3479 C.3       10 UNK         0.0209 
     16 S16        16.6442  -27.3211  -42.0983 S.3       10 UNK        -0.2568 
     17 C17        17.8227  -27.6136  -40.7317 C.3       10 UNK        -0.0983 
     18 CA         19.3217  -27.5206  -41.1313 C.3       3 UNK         0.0876 
     19 N          19.5992  -26.3351  -41.9500 N.am      3 UNK        -0.4424 
     20 C          20.7899  -25.9014  -42.3885 C.2       2 UNK         0.4918 
     21 O          21.8673  -26.4631  -42.1711 O.2       2 UNK        -0.4875 
     22 CA         20.7246  -24.6444  -43.2741 C.3       2 UNK         0.0481 
     23 CB         22.0937  -23.9691  -43.4970 C.3       2 UNK        -0.1831 
     24 N          20.0487  -24.9572  -44.5388 N.am      2 UNK        -0.4498 
     25 C          20.4713  -25.7840  -45.5109 C.2       1 UNK         0.5027 
     26 O          21.6044  -26.2610  -45.5694 O.2       1 UNK        -0.4969 
     27 C          20.1918  -27.5324  -39.8581 C.2       3 UNK         0.5005 
     28 O          20.1811  -26.5456  -39.1175 O.2       3 UNK        -0.5279 
     29 N          20.9474  -28.6170  -39.6424 N.am      4 UNK        -0.4463 
     30 CA         21.9026  -28.8731  -38.5530 C.3       4 UNK         0.0283 
     31 CB         21.2209  -28.8273  -37.1718 C.3       4 UNK        -0.1875 
     32 C          23.1658  -27.9910  -38.5795 C.2       4 UNK         0.4949 
     33 O          24.2422  -28.4853  -38.2455 O.2       4 UNK        -0.5039 
     34 N          23.0274  -26.7200  -38.9775 N.am      5 UNK        -0.4663 
     35 CA         24.1083  -25.7418  -39.1176 C.3       5 UNK         0.0242 
     36 CB         23.5033  -24.3540  -39.3808 C.3       5 UNK        -0.1982 
     37 C          25.1216  -26.1129  -40.2132 C.2       5 UNK         0.5017 
     38 O          26.3196  -25.9035  -40.0177 O.2       5 UNK        -0.5012 
     39 N          24.6275  -26.6715  -41.3246 N.am      6 UNK        -0.4439 
     40 CA         25.4360  -27.2266  -42.4100 C.3       6 UNK         0.0297 
     41 CB         25.5282  -26.2287  -43.5760 C.3       6 UNK        -0.2006 
     42 C          24.8641  -28.5698  -42.8762 C.2       6 UNK         0.4892 
     43 O          25.6232  -29.5296  -43.0177 O.2       6 UNK        -0.5089 
     44 N          23.5436  -28.6287  -43.0958 N.am      7 UNK        -0.4243 
     45 CA         22.8315  -29.8378  -43.4986 C.3       7 UNK         0.0196 
     46 CB         21.5824  -29.4429  -44.3003 C.3       7 UNK        -0.2007 
     47 C          22.4877  -30.6677  -42.2560 C.2       7 UNK         0.5020 
     48 O          21.4373  -30.4571  -41.6479 O.2       7 UNK        -0.5147 
     49 N          23.3983  -31.5704  -41.8769 N.am      8 UNK        -0.4734 
     50 CA         23.2666  -32.4276  -40.6954 C.3       8 UNK         0.0238 
     51 CB         24.6686  -32.8522  -40.2286 C.3       8 UNK        -0.1912 
     52 C          22.3751  -33.6635  -40.9126 C.2       8 UNK         0.5038 
     53 O          21.8841  -34.2128  -39.9261 O.2       8 UNK        -0.5046 
     54 N          22.2007  -34.0917  -42.1737 N.am      9 UNK        -0.4200 
     55 CA         21.4726  -35.3114  -42.5850 C.3       9 UNK         0.0839 
     56 C          22.1492  -36.6435  -42.1254 C.2       9 UNK         0.5513 
     57 N          23.4237  -36.6445  -41.7520 N.am      9 UNK        -0.7519 
     58 O          21.5285  -37.7036  -42.1432 O.2       9 UNK        -0.4960 
     59 C59        19.9446  -35.2528  -42.2604 C.3       10 UNK        -0.0876 
     60 S60        18.9768  -34.2639  -43.4502 S.3       10 UNK        -0.2414 
     61 C61        19.3996  -32.5709  -42.9516 C.3       10 UNK         0.0169 
     62 H62        16.1866  -23.8298  -46.7221 H         1 UNK         0.0903 
     63 H63        17.1263  -22.3396  -46.6168 H         1 UNK         0.0903 
     64 H64        16.7193  -23.0179  -48.1952 H         1 UNK         0.0903 
     65 H65        17.4090  -25.6632  -46.2949 H         1 UNK         0.3096 
     66 H66        19.9397  -26.1622  -47.5460 H         1 UNK         0.1121 
     67 H67        18.6714  -27.7690  -45.2770 H         1 UNK         0.0849 
     68 H68        19.8598  -28.3293  -46.4261 H         1 UNK         0.0849 
     69 H69        16.7616  -30.5098  -47.4443 H         1 UNK         0.0865 
     70 H70        18.5077  -30.5298  -47.4313 H         1 UNK         0.0865 
     71 H71        19.1023  -31.8720  -45.5656 H         1 UNK         0.1346 
     72 H72        17.6441  -30.9488  -41.6428 H         1 UNK         0.1412 
     73 H73        16.0878  -28.8627  -45.0464 H         1 UNK         0.1426 
     74 H74        15.7235  -29.4524  -41.3884 H         1 UNK         0.0716 
     75 H75        14.9193  -28.8378  -42.8080 H         1 UNK         0.0716 
     76 H76        17.6192  -28.5841  -40.2761 H         1 UNK         0.0695 
     77 H77        17.5863  -26.8725  -39.9650 H         1 UNK         0.0695 
     78 H78        19.5689  -28.3927  -41.7399 H         1 UNK         0.0983 
     79 H79        18.7779  -25.8047  -42.1999 H         1 UNK         0.3095 
     80 H80        20.0927  -23.9225  -42.7545 H         1 UNK         0.0454 
     81 H81        22.8039  -24.6264  -43.9940 H         1 UNK         0.0851 
     82 H82        22.5409  -23.6728  -42.5486 H         1 UNK         0.0851 
     83 H83        21.9948  -23.0691  -44.1034 H         1 UNK         0.0851 
     84 H84        19.1001  -24.6193  -44.6218 H         1 UNK         0.2976 
     85 H85        20.9549  -29.3354  -40.3693 H         1 UNK         0.3116 
     86 H86        22.2433  -29.8968  -38.7085 H         1 UNK         0.0646 
     87 H87        20.8777  -27.8246  -36.9161 H         1 UNK         0.0847 
     88 H88        21.9132  -29.1386  -36.3884 H         1 UNK         0.0847 
     89 H89        20.3625  -29.4975  -37.1302 H         1 UNK         0.0847 
     90 H90        22.0827  -26.4048  -39.1821 H         1 UNK         0.3040 
     91 H91        24.6507  -25.7069  -38.1701 H         1 UNK         0.1015 
     92 H92        22.8908  -24.3474  -40.2823 H         1 UNK         0.0786 
     93 H93        24.2841  -23.6027  -39.5075 H         1 UNK         0.0786 
     94 H94        22.8760  -24.0323  -38.5492 H         1 UNK         0.0786 
     95 H95        23.6187  -26.7631  -41.4077 H         1 UNK         0.3172 
     96 H96        26.4482  -27.4213  -42.0487 H         1 UNK         0.0595 
     97 H97        24.5584  -26.0644  -44.0444 H         1 UNK         0.0839 
     98 H98        26.2011  -26.5999  -44.3500 H         1 UNK         0.0839 
     99 H99        25.9127  -25.2636  -43.2460 H         1 UNK         0.0839 
    100 H100       22.9703  -27.8052  -42.9352 H         1 UNK         0.2998 
    101 H101       23.4654  -30.4373  -44.1558 H         1 UNK         0.0822 
    102 H102       21.8602  -28.9001  -45.2029 H         1 UNK         0.0787 
    103 H103       21.0300  -30.3264  -44.6159 H         1 UNK         0.0787 
    104 H104       20.9019  -28.8140  -43.7261 H         1 UNK         0.0787 
    105 H105       24.2649  -31.6299  -42.3958 H         1 UNK         0.3055 
    106 H106       22.8079  -31.8479  -39.8922 H         1 UNK         0.1106 
    107 H107       24.6119  -33.4766  -39.3356 H         1 UNK         0.0828 
    108 H108       25.1963  -33.4233  -40.9931 H         1 UNK         0.0828 
    109 H109       25.2796  -31.9854  -39.9754 H         1 UNK         0.0828 
    110 H110       22.6611  -33.5845  -42.9145 H         1 UNK         0.2931 
    111 H111       21.5687  -35.3449  -43.6708 H         1 UNK         0.0412 
    112 H112       23.9593  -35.7919  -41.7504 H         1 UNK         0.3472 
    113 H113       23.8538  -37.5120  -41.4711 H         1 UNK         0.3472 
    114 H114       19.7587  -34.8957  -41.2474 H         1 UNK         0.0970 
    115 H115       19.4978  -36.2475  -42.2935 H         1 UNK         0.0970 
    116 H116       19.4161  -32.5002  -41.8628 H         1 UNK         0.0612 
    117 H117       20.4085  -32.3561  -43.2982 H         1 UNK         0.0612 
@<TRIPOS>BOND
     1    1    2 1    
     2    1   62 1    
     3    1   63 1    
     4    1   64 1    
     5    2    3 2    
     6    2    4 am   BACKBONE|DICT|INTERRES
     7    4    5 1    
     8    4   65 1    
     9    5    6 1    
    10    5   25 1    
    11    5   66 1    
    12    6    7 1    
    13    6   67 1    
    14    6   68 1    
    15    7    8 1    
    16    8    9 1    
    17    8   69 1    
    18    8   70 1    
    19    9   10 ar   
    20    9   14 ar   
    21   10   11 ar   
    22   10   71 1    
    23   11   12 ar   
    24   11   61 1    
    25   12   13 ar   
    26   12   72 1    
    27   13   14 ar   
    28   13   15 1    
    29   14   73 1    
    30   15   16 1    
    31   15   74 1    
    32   15   75 1    
    33   16   17 1    
    34   17   18 1    
    35   17   76 1    
    36   17   77 1    
    37   18   19 1    
    38   18   27 1    
    39   18   78 1    
    40   19   20 am   BACKBONE|DICT|INTERRES
    41   19   79 1    
    42   20   21 2    
    43   20   22 1    
    44   22   23 1    
    45   22   24 1    
    46   22   80 1    
    47   23   81 1    
    48   23   82 1    
    49   23   83 1    
    50   24   25 am   BACKBONE|DICT|INTERRES
    51   24   84 1    
    52   25   26 2    
    53   27   28 2    
    54   27   29 am   BACKBONE|DICT|INTERRES
    55   29   30 1    
    56   29   85 1    
    57   30   31 1    
    58   30   32 1    
    59   30   86 1    
    60   31   87 1    
    61   31   88 1    
    62   31   89 1    
    63   32   33 2    
    64   32   34 am   BACKBONE|DICT|INTERRES
    65   34   35 1    
    66   34   90 1    
    67   35   36 1    
    68   35   37 1    
    69   35   91 1    
    70   36   92 1    
    71   36   93 1    
    72   36   94 1    
    73   37   38 2    
    74   37   39 am   BACKBONE|DICT|INTERRES
    75   39   40 1    
    76   39   95 1    
    77   40   41 1    
    78   40   42 1    
    79   40   96 1    
    80   41   97 1    
    81   41   98 1    
    82   41   99 1    
    83   42   43 2    
    84   42   44 am   BACKBONE|DICT|INTERRES
    85   44   45 1    
    86   44  100 1    
    87   45   46 1    
    88   45   47 1    
    89   45  101 1    
    90   46  102 1    
    91   46  103 1    
    92   46  104 1    
    93   47   48 2    
    94   47   49 am   BACKBONE|DICT|INTERRES
    95   49   50 1    
    96   49  105 1    
    97   50   51 1    
    98   50   52 1    
    99   50  106 1    
   100   51  107 1    
   101   51  108 1    
   102   51  109 1    
   103   52   53 2    
   104   52   54 am   BACKBONE|DICT|INTERRES
   105   54   55 1    
   106   54  110 1    
   107   55   56 1    
   108   55   59 1    
   109   55  111 1    
   110   56   57 am   BACKBONE|DICT|INTERRES
   111   56   58 2    
   112   57  112 1    
   113   57  113 1    
   114   59   60 1    
   115   59  114 1    
   116   59  115 1    
   117   60   61 1    
   118   61  116 1    
   119   61  117 1    
@<TRIPOS>SUBSTRUCTURE
     1 UNK         1 GROUP             0       ****    0 ROOT    
