@<TRIPOS>MOLECULE
3R8
117   119    1
SMALL
USER_CHARGES


@<TRIPOS>ATOM
      1 CA         16.4955  -23.8651  -40.3285 C.3       0 UNK        -0.2013 
      2 C          16.5187  -24.2431  -41.8021 C.2       0 UNK         0.4866 
      3 O          15.5389  -24.0114  -42.5106 O.2       0 UNK        -0.5176 
      4 N          17.6300  -24.8201  -42.2677 N.am      1 UNK        -0.4884 
      5 CA         17.8719  -25.2268  -43.6501 C.3       1 UNK         0.0853 
      6 C6         17.1044  -26.5201  -44.0331 C.3       10 UNK        -0.0849 
      7 S7         16.8133  -26.6318  -45.8301 S.3       10 UNK        -0.2776 
      8 C8         15.7774  -28.1250  -45.9279 C.3       10 UNK         0.0316 
      9 C9         16.5558  -29.3748  -45.5457 C.ar      10 UNK        -0.0863 
     10 C10        16.3252  -30.0064  -44.3193 C.ar      10 UNK        -0.1009 
     11 C11        17.0389  -31.1564  -43.9668 C.ar      10 UNK        -0.0712 
     12 C12        17.9790  -31.6787  -44.8588 C.ar      10 UNK        -0.0894 
     13 C13        18.2521  -31.0275  -46.0665 C.ar      10 UNK        -0.0745 
     14 C14        17.5214  -29.8894  -46.4154 C.ar      10 UNK        -0.0972 
     15 C15        19.3828  -31.5173  -46.9613 C.3       10 UNK         0.0209 
     16 S16        20.8581  -30.4424  -46.8519 S.3       10 UNK        -0.2568 
     17 C17        21.2274  -30.4827  -45.0624 C.3       10 UNK        -0.0983 
     18 CA         21.9218  -29.2161  -44.5060 C.3       3 UNK         0.0876 
     19 N          21.3728  -27.9592  -45.0312 N.am      3 UNK        -0.4424 
     20 C          21.9709  -26.7685  -44.8837 C.2       2 UNK         0.4918 
     21 O          23.0215  -26.6035  -44.2649 O.2       2 UNK        -0.4875 
     22 CA         21.2526  -25.5497  -45.4835 C.3       2 UNK         0.0481 
     23 CB         21.3705  -25.5461  -47.0160 C.3       2 UNK        -0.1831 
     24 N          19.8431  -25.4522  -45.0933 N.am      2 UNK        -0.4498 
     25 C          19.3933  -25.3728  -43.8338 C.2       1 UNK         0.5027 
     26 O          20.1248  -25.4257  -42.8397 O.2       1 UNK        -0.4969 
     27 C          21.8846  -29.2530  -42.9643 C.2       3 UNK         0.5005 
     28 O          22.7708  -29.8470  -42.3479 O.2       3 UNK        -0.5279 
     29 N          20.8551  -28.6279  -42.3714 N.am      4 UNK        -0.4463 
     30 CA         20.6742  -28.4972  -40.9252 C.3       4 UNK         0.0283 
     31 CB         19.2719  -27.9547  -40.6062 C.3       4 UNK        -0.1875 
     32 C          21.7687  -27.6254  -40.2954 C.2       4 UNK         0.4949 
     33 O          22.3583  -28.0246  -39.2919 O.2       4 UNK        -0.5039 
     34 N          22.0518  -26.4791  -40.9281 N.am      5 UNK        -0.4663 
     35 CA         23.1396  -25.5759  -40.5542 C.3       5 UNK         0.0242 
     36 CB         23.0002  -24.2617  -41.3395 C.3       5 UNK        -0.1982 
     37 C          24.5296  -26.1970  -40.7727 C.2       5 UNK         0.5017 
     38 O          25.4113  -26.0034  -39.9350 O.2       5 UNK        -0.5012 
     39 N          24.6992  -26.9213  -41.8882 N.am      6 UNK        -0.4439 
     40 CA         25.9548  -27.5636  -42.2733 C.3       6 UNK         0.0297 
     41 CB         25.9040  -27.9799  -43.7524 C.3       6 UNK        -0.2006 
     42 C          26.3326  -28.7624  -41.3894 C.2       6 UNK         0.4892 
     43 O          27.4657  -28.8069  -40.9075 O.2       6 UNK        -0.5089 
     44 N          25.4149  -29.7269  -41.2241 N.am      7 UNK        -0.4243 
     45 CA         25.7207  -31.0260  -40.6168 C.3       7 UNK         0.0196 
     46 CB         26.4324  -31.9277  -41.6503 C.3       7 UNK        -0.2007 
     47 C          24.4881  -31.7075  -40.0013 C.2       7 UNK         0.5020 
     48 O          24.4180  -32.9376  -40.0109 O.2       7 UNK        -0.5147 
     49 N          23.5342  -30.9232  -39.4749 N.am      8 UNK        -0.4734 
     50 CA         22.3206  -31.3830  -38.7762 C.3       8 UNK         0.0238 
     51 CB         22.6917  -31.9748  -37.3991 C.3       8 UNK        -0.1912 
     52 C          21.4391  -32.3366  -39.6137 C.2       8 UNK         0.5038 
     53 O          20.8750  -33.2860  -39.0669 O.2       8 UNK        -0.5046 
     54 N          21.3619  -32.0719  -40.9255 N.am      9 UNK        -0.4200 
     55 CA         20.6840  -32.8844  -41.9511 C.3       9 UNK         0.0839 
     56 C          21.4255  -34.2070  -42.3139 C.2       9 UNK         0.5513 
     57 N          22.6391  -34.4564  -41.8357 N.am      9 UNK        -0.7519 
     58 O          20.9039  -35.0137  -43.0792 O.2       9 UNK        -0.4960 
     59 C59        19.1649  -33.1144  -41.6872 C.3       10 UNK        -0.0876 
     60 S60        18.2073  -31.5710  -41.4779 S.3       10 UNK        -0.2414 
     61 C61        16.8037  -31.8217  -42.6176 C.3       10 UNK         0.0169 
     62 H62        15.6738  -24.3729  -39.8242 H         1 UNK         0.0903 
     63 H63        17.4223  -24.1364  -39.8231 H         1 UNK         0.0903 
     64 H64        16.3511  -22.7906  -40.2188 H         1 UNK         0.0903 
     65 H65        18.4438  -24.9346  -41.6746 H         1 UNK         0.3096 
     66 H66        17.5443  -24.4026  -44.2884 H         1 UNK         0.1121 
     67 H67        16.1255  -26.5369  -43.5517 H         1 UNK         0.0849 
     68 H68        17.6234  -27.4135  -43.6800 H         1 UNK         0.0849 
     69 H69        14.8977  -28.0015  -45.2941 H         1 UNK         0.0865 
     70 H70        15.4043  -28.2312  -46.9477 H         1 UNK         0.0865 
     71 H71        15.5943  -29.5976  -43.6348 H         1 UNK         0.1346 
     72 H72        18.5430  -32.5594  -44.5863 H         1 UNK         0.1412 
     73 H73        17.7284  -29.3835  -47.3489 H         1 UNK         0.1426 
     74 H74        19.6665  -32.5383  -46.7010 H         1 UNK         0.0716 
     75 H75        19.0410  -31.5484  -47.9968 H         1 UNK         0.0716 
     76 H76        20.3026  -30.6421  -44.5148 H         1 UNK         0.0695 
     77 H77        21.8441  -31.3622  -44.8681 H         1 UNK         0.0695 
     78 H78        22.9700  -29.2594  -44.8077 H         1 UNK         0.0983 
     79 H79        20.5195  -28.0266  -45.5670 H         1 UNK         0.3095 
     80 H80        21.7551  -24.6567  -45.1060 H         1 UNK         0.0454 
     81 H81        20.8415  -26.3858  -47.4686 H         1 UNK         0.0851 
     82 H82        20.9675  -24.6275  -47.4425 H         1 UNK         0.0851 
     83 H83        22.4141  -25.6131  -47.3269 H         1 UNK         0.0851 
     84 H84        19.1643  -25.4405  -45.8428 H         1 UNK         0.2976 
     85 H85        20.1849  -28.1551  -42.9586 H         1 UNK         0.3116 
     86 H86        20.7420  -29.4925  -40.4909 H         1 UNK         0.0646 
     87 H87        19.1375  -26.9316  -40.9514 H         1 UNK         0.0847 
     88 H88        18.4929  -28.5662  -41.0612 H         1 UNK         0.0847 
     89 H89        19.0949  -27.9562  -39.5300 H         1 UNK         0.0847 
     90 H90        21.4865  -26.2079  -41.7288 H         1 UNK         0.3040 
     91 H91        23.0413  -25.3527  -39.4895 H         1 UNK         0.1015 
     92 H92        23.0581  -24.4264  -42.4163 H         1 UNK         0.0786 
     93 H93        23.7910  -23.5597  -41.0716 H         1 UNK         0.0786 
     94 H94        22.0479  -23.7745  -41.1291 H         1 UNK         0.0786 
     95 H95        23.9374  -26.9632  -42.5588 H         1 UNK         0.3172 
     96 H96        26.7477  -26.8192  -42.1722 H         1 UNK         0.0595 
     97 H97        26.8447  -28.4377  -44.0613 H         1 UNK         0.0839 
     98 H98        25.7356  -27.1204  -44.4014 H         1 UNK         0.0839 
     99 H99        25.1127  -28.7045  -43.9421 H         1 UNK         0.0839 
    100 H100       24.4920  -29.6336  -41.6463 H         1 UNK         0.2998 
    101 H101       26.4040  -30.8681  -39.7795 H         1 UNK         0.0822 
    102 H102       26.7243  -32.8824  -41.2107 H         1 UNK         0.0787 
    103 H103       25.7855  -32.1421  -42.5020 H         1 UNK         0.0787 
    104 H104       27.3432  -31.4647  -42.0298 H         1 UNK         0.0787 
    105 H105       23.6449  -29.9174  -39.5328 H         1 UNK         0.3055 
    106 H106       21.7102  -30.4997  -38.5879 H         1 UNK         0.1106 
    107 H107       23.2878  -31.2745  -36.8141 H         1 UNK         0.0828 
    108 H108       21.7985  -32.2016  -36.8155 H         1 UNK         0.0828 
    109 H109       23.2599  -32.9005  -37.4963 H         1 UNK         0.0828 
    110 H110       21.9072  -31.2947  -41.2845 H         1 UNK         0.2931 
    111 H111       20.7527  -32.2863  -42.8577 H         1 UNK         0.0412 
    112 H112       23.0995  -35.3132  -42.0981 H         1 UNK         0.3472 
    113 H113       23.1000  -33.8187  -41.1945 H         1 UNK         0.3472 
    114 H114       18.7300  -33.6872  -42.5069 H         1 UNK         0.0970 
    115 H115       19.0164  -33.7309  -40.8000 H         1 UNK         0.0970 
    116 H116       16.6000  -32.8843  -42.7544 H         1 UNK         0.0612 
    117 H117       15.9110  -31.4072  -42.1469 H         1 UNK         0.0612 
@<TRIPOS>BOND
     1    1    2 1    
     2    1   62 1    
     3    1   63 1    
     4    1   64 1    
     5    2    3 2    
     6    2    4 am   BACKBONE|DICT|INTERRES
     7    4    5 1    
     8    4   65 1    
     9    5    6 1    
    10    5   25 1    
    11    5   66 1    
    12    6    7 1    
    13    6   67 1    
    14    6   68 1    
    15    7    8 1    
    16    8    9 1    
    17    8   69 1    
    18    8   70 1    
    19    9   10 ar   
    20    9   14 ar   
    21   10   11 ar   
    22   10   71 1    
    23   11   12 ar   
    24   11   61 1    
    25   12   13 ar   
    26   12   72 1    
    27   13   14 ar   
    28   13   15 1    
    29   14   73 1    
    30   15   16 1    
    31   15   74 1    
    32   15   75 1    
    33   16   17 1    
    34   17   18 1    
    35   17   76 1    
    36   17   77 1    
    37   18   19 1    
    38   18   27 1    
    39   18   78 1    
    40   19   20 am   BACKBONE|DICT|INTERRES
    41   19   79 1    
    42   20   21 2    
    43   20   22 1    
    44   22   23 1    
    45   22   24 1    
    46   22   80 1    
    47   23   81 1    
    48   23   82 1    
    49   23   83 1    
    50   24   25 am   BACKBONE|DICT|INTERRES
    51   24   84 1    
    52   25   26 2    
    53   27   28 2    
    54   27   29 am   BACKBONE|DICT|INTERRES
    55   29   30 1    
    56   29   85 1    
    57   30   31 1    
    58   30   32 1    
    59   30   86 1    
    60   31   87 1    
    61   31   88 1    
    62   31   89 1    
    63   32   33 2    
    64   32   34 am   BACKBONE|DICT|INTERRES
    65   34   35 1    
    66   34   90 1    
    67   35   36 1    
    68   35   37 1    
    69   35   91 1    
    70   36   92 1    
    71   36   93 1    
    72   36   94 1    
    73   37   38 2    
    74   37   39 am   BACKBONE|DICT|INTERRES
    75   39   40 1    
    76   39   95 1    
    77   40   41 1    
    78   40   42 1    
    79   40   96 1    
    80   41   97 1    
    81   41   98 1    
    82   41   99 1    
    83   42   43 2    
    84   42   44 am   BACKBONE|DICT|INTERRES
    85   44   45 1    
    86   44  100 1    
    87   45   46 1    
    88   45   47 1    
    89   45  101 1    
    90   46  102 1    
    91   46  103 1    
    92   46  104 1    
    93   47   48 2    
    94   47   49 am   BACKBONE|DICT|INTERRES
    95   49   50 1    
    96   49  105 1    
    97   50   51 1    
    98   50   52 1    
    99   50  106 1    
   100   51  107 1    
   101   51  108 1    
   102   51  109 1    
   103   52   53 2    
   104   52   54 am   BACKBONE|DICT|INTERRES
   105   54   55 1    
   106   54  110 1    
   107   55   56 1    
   108   55   59 1    
   109   55  111 1    
   110   56   57 am   BACKBONE|DICT|INTERRES
   111   56   58 2    
   112   57  112 1    
   113   57  113 1    
   114   59   60 1    
   115   59  114 1    
   116   59  115 1    
   117   60   61 1    
   118   61  116 1    
   119   61  117 1    
@<TRIPOS>SUBSTRUCTURE
     1 UNK         1 GROUP             0       ****    0 ROOT    
