@<TRIPOS>MOLECULE
3R8
117   119    1
SMALL
USER_CHARGES


@<TRIPOS>ATOM
      1 CA         16.2584  -25.1656  -46.2267 C.3       0 UNK        -0.2013 
      2 C          17.6879  -25.2993  -46.7283 C.2       0 UNK         0.4866 
      3 O          18.2237  -24.3507  -47.3015 O.2       0 UNK        -0.5176 
      4 N          18.3006  -26.4748  -46.5344 N.am      1 UNK        -0.4884 
      5 CA         19.6525  -26.8091  -47.0062 C.3       1 UNK         0.0853 
      6 C6         19.9417  -28.3335  -46.9420 C.3       10 UNK        -0.0849 
      7 S7         18.6154  -29.3306  -47.7118 S.3       10 UNK        -0.2776 
      8 C8         18.4867  -30.7810  -46.6060 C.3       10 UNK         0.0316 
      9 C9         18.2390  -30.4389  -45.1378 C.ar      10 UNK        -0.0863 
     10 C10        19.0247  -31.0412  -44.1500 C.ar      10 UNK        -0.1009 
     11 C11        18.8265  -30.7428  -42.7997 C.ar      10 UNK        -0.0712 
     12 C12        17.8131  -29.8553  -42.4327 C.ar      10 UNK        -0.0894 
     13 C13        17.0257  -29.2372  -43.4067 C.ar      10 UNK        -0.0745 
     14 C14        17.2324  -29.5432  -44.7570 C.ar      10 UNK        -0.0972 
     15 C15        15.9587  -28.2331  -42.9991 C.3       10 UNK         0.0209 
     16 S16        16.6255  -26.5385  -42.9596 S.3       10 UNK        -0.2568 
     17 C17        17.3448  -26.4017  -41.2833 C.3       10 UNK        -0.0983 
     18 CA         18.8760  -26.6392  -41.2351 C.3       3 UNK         0.0876 
     19 N          19.6002  -25.8758  -42.2522 N.am      3 UNK        -0.4424 
     20 C          20.8946  -26.0401  -42.5556 C.2       2 UNK         0.4918 
     21 O          21.6589  -26.7818  -41.9357 O.2       2 UNK        -0.4875 
     22 CA         21.3503  -25.3612  -43.8530 C.3       2 UNK         0.0481 
     23 CB         22.8797  -25.4527  -44.0571 C.3       2 UNK        -0.1831 
     24 N          20.5804  -26.0279  -44.9049 N.am      2 UNK        -0.4498 
     25 C          20.7263  -26.0148  -46.2349 C.2       1 UNK         0.5027 
     26 O          21.6090  -25.4132  -46.8472 O.2       1 UNK        -0.4969 
     27 C          19.4417  -26.3735  -39.8267 C.2       3 UNK         0.5005 
     28 O          19.5783  -25.2106  -39.4386 O.2       3 UNK        -0.5279 
     29 N          19.7764  -27.4586  -39.1107 N.am      4 UNK        -0.4463 
     30 CA         20.4504  -27.4865  -37.8042 C.3       4 UNK         0.0283 
     31 CB         19.5739  -26.8434  -36.7072 C.3       4 UNK        -0.1875 
     32 C          21.8871  -26.9176  -37.8287 C.2       4 UNK         0.4949 
     33 O          22.4015  -26.5268  -36.7793 O.2       4 UNK        -0.5039 
     34 N          22.5180  -26.9004  -39.0097 N.am      5 UNK        -0.4663 
     35 CA         23.8948  -26.4706  -39.2351 C.3       5 UNK         0.0242 
     36 CB         23.8992  -25.0234  -39.7723 C.3       5 UNK        -0.1982 
     37 C          24.5898  -27.4970  -40.1464 C.2       5 UNK         0.5017 
     38 O          24.4063  -28.7007  -39.9478 O.2       5 UNK        -0.5012 
     39 N          25.3950  -27.0235  -41.1064 N.am      6 UNK        -0.4439 
     40 CA         26.1858  -27.8340  -42.0352 C.3       6 UNK         0.0297 
     41 CB         27.3459  -26.9753  -42.5749 C.3       6 UNK        -0.2006 
     42 C          25.3272  -28.4392  -43.1640 C.2       6 UNK         0.4892 
     43 O          25.4660  -28.0432  -44.3231 O.2       6 UNK        -0.5089 
     44 N          24.4611  -29.3909  -42.8051 N.am      7 UNK        -0.4243 
     45 CA         23.6273  -30.1709  -43.7158 C.3       7 UNK         0.0196 
     46 CB         22.2331  -29.5323  -43.8177 C.3       7 UNK        -0.2007 
     47 C          23.5579  -31.6254  -43.2313 C.2       7 UNK         0.5020 
     48 O          23.9388  -31.9222  -42.0955 O.2       7 UNK        -0.5147 
     49 N          23.0797  -32.5148  -44.1102 N.am      8 UNK        -0.4734 
     50 CA         23.0754  -33.9753  -43.9549 C.3       8 UNK         0.0238 
     51 CB         22.9296  -34.6112  -45.3517 C.3       8 UNK        -0.1912 
     52 C          22.0378  -34.5211  -42.9476 C.2       8 UNK         0.5038 
     53 O          21.2567  -35.4085  -43.2973 O.2       8 UNK        -0.5046 
     54 N          22.0680  -34.0042  -41.7152 N.am      9 UNK        -0.4200 
     55 CA         21.3048  -34.4983  -40.5546 C.3       9 UNK         0.0839 
     56 C          22.2163  -35.1265  -39.4604 C.2       9 UNK         0.5513 
     57 N          23.5277  -35.2195  -39.6505 N.am      9 UNK        -0.7519 
     58 O          21.7231  -35.5593  -38.4219 O.2       9 UNK        -0.4960 
     59 C59        20.3757  -33.4054  -39.9617 C.3       10 UNK        -0.0876 
     60 S60        19.0497  -32.9153  -41.1139 S.3       10 UNK        -0.2414 
     61 C61        19.7269  -31.3551  -41.7410 C.3       10 UNK         0.0169 
     62 H62        15.8477  -26.1235  -45.9083 H         1 UNK         0.0903 
     63 H63        16.2196  -24.4787  -45.3817 H         1 UNK         0.0903 
     64 H64        15.6181  -24.7721  -47.0157 H         1 UNK         0.0903 
     65 H65        17.8035  -27.2256  -46.0780 H         1 UNK         0.3096 
     66 H66        19.7163  -26.5028  -48.0531 H         1 UNK         0.1121 
     67 H67        20.8800  -28.5619  -47.4511 H         1 UNK         0.0849 
     68 H68        20.0773  -28.6532  -45.9081 H         1 UNK         0.0849 
     69 H69        17.6716  -31.4154  -46.9565 H         1 UNK         0.0865 
     70 H70        19.3981  -31.3710  -46.7143 H         1 UNK         0.0865 
     71 H71        19.8002  -31.7417  -44.4286 H         1 UNK         0.1346 
     72 H72        17.6477  -29.6329  -41.3878 H         1 UNK         0.1412 
     73 H73        16.6133  -29.0803  -45.5131 H         1 UNK         0.1426 
     74 H74        15.5279  -28.4943  -42.0314 H         1 UNK         0.0716 
     75 H75        15.1344  -28.2652  -43.7133 H         1 UNK         0.0716 
     76 H76        16.8309  -27.0921  -40.6123 H         1 UNK         0.0695 
     77 H77        17.1091  -25.4001  -40.9177 H         1 UNK         0.0695 
     78 H78        19.0584  -27.6868  -41.4731 H         1 UNK         0.0983 
     79 H79        19.0417  -25.2316  -42.7926 H         1 UNK         0.3095 
     80 H80        21.0576  -24.3108  -43.8135 H         1 UNK         0.0454 
     81 H81        23.2083  -26.4737  -44.2403 H         1 UNK         0.0851 
     82 H82        23.4149  -25.0929  -43.1785 H         1 UNK         0.0851 
     83 H83        23.2115  -24.8408  -44.8949 H         1 UNK         0.0851 
     84 H84        19.8025  -26.5689  -44.5512 H         1 UNK         0.2976 
     85 H85        19.6239  -28.3673  -39.5256 H         1 UNK         0.3116 
     86 H86        20.5597  -28.5423  -37.5510 H         1 UNK         0.0646 
     87 H87        19.4888  -25.7639  -36.8356 H         1 UNK         0.0847 
     88 H88        19.9966  -27.0171  -35.7169 H         1 UNK         0.0847 
     89 H89        18.5678  -27.2624  -36.7047 H         1 UNK         0.0847 
     90 H90        22.0374  -27.2396  -39.8358 H         1 UNK         0.3040 
     91 H91        24.4466  -26.4878  -38.2927 H         1 UNK         0.1015 
     92 H92        23.4105  -24.9499  -40.7439 H         1 UNK         0.0786 
     93 H93        24.9127  -24.6326  -39.8701 H         1 UNK         0.0786 
     94 H94        23.3706  -24.3556  -39.0915 H         1 UNK         0.0786 
     95 H95        25.4580  -26.0222  -41.2200 H         1 UNK         0.3172 
     96 H96        26.6258  -28.6668  -41.4816 H         1 UNK         0.0595 
     97 H97        26.9851  -26.1047  -43.1247 H         1 UNK         0.0839 
     98 H98        27.9740  -27.5521  -43.2553 H         1 UNK         0.0839 
     99 H99        27.9881  -26.6211  -41.7681 H         1 UNK         0.0839 
    100 H100       24.4107  -29.6607  -41.8267 H         1 UNK         0.2998 
    101 H101       24.0854  -30.1841  -44.7075 H         1 UNK         0.0822 
    102 H102       22.2892  -28.5295  -44.2357 H         1 UNK         0.0787 
    103 H103       21.5849  -30.1080  -44.4756 H         1 UNK         0.0787 
    104 H104       21.7490  -29.4568  -42.8438 H         1 UNK         0.0787 
    105 H105       22.7606  -32.1714  -45.0050 H         1 UNK         0.3055 
    106 H106       24.0537  -34.2701  -43.5674 H         1 UNK         0.1106 
    107 H107       22.9938  -35.6990  -45.2977 H         1 UNK         0.0828 
    108 H108       21.9709  -34.3634  -45.8098 H         1 UNK         0.0828 
    109 H109       23.7205  -34.2802  -46.0251 H         1 UNK         0.0828 
    110 H110       22.7385  -33.2611  -41.5354 H         1 UNK         0.2931 
    111 H111       20.6639  -35.3222  -40.8729 H         1 UNK         0.0412 
    112 H112       23.9529  -34.8859  -40.5004 H         1 UNK         0.3472 
    113 H113       24.0992  -35.6366  -38.9324 H         1 UNK         0.3472 
    114 H114       19.8831  -33.7688  -39.0577 H         1 UNK         0.0970 
    115 H115       20.9542  -32.5322  -39.6549 H         1 UNK         0.0970 
    116 H116       19.8630  -30.6572  -40.9138 H         1 UNK         0.0612 
    117 H117       20.7172  -31.5398  -42.1563 H         1 UNK         0.0612 
@<TRIPOS>BOND
     1    1    2 1    
     2    1   62 1    
     3    1   63 1    
     4    1   64 1    
     5    2    3 2    
     6    2    4 am   BACKBONE|DICT|INTERRES
     7    4    5 1    
     8    4   65 1    
     9    5    6 1    
    10    5   25 1    
    11    5   66 1    
    12    6    7 1    
    13    6   67 1    
    14    6   68 1    
    15    7    8 1    
    16    8    9 1    
    17    8   69 1    
    18    8   70 1    
    19    9   10 ar   
    20    9   14 ar   
    21   10   11 ar   
    22   10   71 1    
    23   11   12 ar   
    24   11   61 1    
    25   12   13 ar   
    26   12   72 1    
    27   13   14 ar   
    28   13   15 1    
    29   14   73 1    
    30   15   16 1    
    31   15   74 1    
    32   15   75 1    
    33   16   17 1    
    34   17   18 1    
    35   17   76 1    
    36   17   77 1    
    37   18   19 1    
    38   18   27 1    
    39   18   78 1    
    40   19   20 am   BACKBONE|DICT|INTERRES
    41   19   79 1    
    42   20   21 2    
    43   20   22 1    
    44   22   23 1    
    45   22   24 1    
    46   22   80 1    
    47   23   81 1    
    48   23   82 1    
    49   23   83 1    
    50   24   25 am   BACKBONE|DICT|INTERRES
    51   24   84 1    
    52   25   26 2    
    53   27   28 2    
    54   27   29 am   BACKBONE|DICT|INTERRES
    55   29   30 1    
    56   29   85 1    
    57   30   31 1    
    58   30   32 1    
    59   30   86 1    
    60   31   87 1    
    61   31   88 1    
    62   31   89 1    
    63   32   33 2    
    64   32   34 am   BACKBONE|DICT|INTERRES
    65   34   35 1    
    66   34   90 1    
    67   35   36 1    
    68   35   37 1    
    69   35   91 1    
    70   36   92 1    
    71   36   93 1    
    72   36   94 1    
    73   37   38 2    
    74   37   39 am   BACKBONE|DICT|INTERRES
    75   39   40 1    
    76   39   95 1    
    77   40   41 1    
    78   40   42 1    
    79   40   96 1    
    80   41   97 1    
    81   41   98 1    
    82   41   99 1    
    83   42   43 2    
    84   42   44 am   BACKBONE|DICT|INTERRES
    85   44   45 1    
    86   44  100 1    
    87   45   46 1    
    88   45   47 1    
    89   45  101 1    
    90   46  102 1    
    91   46  103 1    
    92   46  104 1    
    93   47   48 2    
    94   47   49 am   BACKBONE|DICT|INTERRES
    95   49   50 1    
    96   49  105 1    
    97   50   51 1    
    98   50   52 1    
    99   50  106 1    
   100   51  107 1    
   101   51  108 1    
   102   51  109 1    
   103   52   53 2    
   104   52   54 am   BACKBONE|DICT|INTERRES
   105   54   55 1    
   106   54  110 1    
   107   55   56 1    
   108   55   59 1    
   109   55  111 1    
   110   56   57 am   BACKBONE|DICT|INTERRES
   111   56   58 2    
   112   57  112 1    
   113   57  113 1    
   114   59   60 1    
   115   59  114 1    
   116   59  115 1    
   117   60   61 1    
   118   61  116 1    
   119   61  117 1    
@<TRIPOS>SUBSTRUCTURE
     1 UNK         1 GROUP             0       ****    0 ROOT    
