@<TRIPOS>MOLECULE
3R8
117   119    1
SMALL
USER_CHARGES


@<TRIPOS>ATOM
      1 CA         15.7378  -25.8029  -41.7886 C.3       0 UNK        -0.2013 
      2 C          16.5464  -25.4068  -43.0142 C.2       0 UNK         0.4866 
      3 O          17.2951  -24.4322  -42.9602 O.2       0 UNK        -0.5176 
      4 N          16.3868  -26.1458  -44.1203 N.am      1 UNK        -0.4884 
      5 CA         16.9503  -25.8422  -45.4440 C.3       1 UNK         0.0853 
      6 C6         16.3643  -26.7230  -46.5882 C.3       10 UNK        -0.0849 
      7 S7         14.6413  -27.2763  -46.3072 S.3       10 UNK        -0.2776 
      8 C8         14.8183  -29.0904  -46.1728 C.3       10 UNK         0.0316 
      9 C9         15.9157  -29.5290  -45.2065 C.ar      10 UNK        -0.0863 
     10 C10        17.0814  -30.1217  -45.7017 C.ar      10 UNK        -0.1009 
     11 C11        18.0812  -30.5574  -44.8306 C.ar      10 UNK        -0.0712 
     12 C12        17.9167  -30.3873  -43.4543 C.ar      10 UNK        -0.0894 
     13 C13        16.7563  -29.7957  -42.9360 C.ar      10 UNK        -0.0745 
     14 C14        15.7574  -29.3780  -43.8244 C.ar      10 UNK        -0.0972 
     15 C15        16.5043  -29.6460  -41.4327 C.3       10 UNK         0.0209 
     16 S16        17.9184  -30.0231  -40.3367 S.3       10 UNK        -0.2568 
     17 C17        18.7600  -28.4160  -40.1510 C.3       10 UNK        -0.0983 
     18 CA         20.0795  -28.3352  -40.9633 C.3       3 UNK         0.0876 
     19 N          19.8602  -27.8304  -42.3263 N.am      3 UNK        -0.4424 
     20 C          20.7533  -27.9451  -43.3209 C.2       2 UNK         0.4918 
     21 O          21.7941  -28.5902  -43.2151 O.2       2 UNK        -0.4875 
     22 CA         20.4603  -27.1861  -44.6262 C.3       2 UNK         0.0481 
     23 CB         21.0724  -27.8535  -45.8727 C.3       2 UNK        -0.1831 
     24 N          19.0269  -26.9613  -44.8126 N.am      2 UNK        -0.4498 
     25 C          18.4889  -25.9102  -45.4460 C.2       1 UNK         0.5027 
     26 O          19.1418  -25.0211  -45.9945 O.2       1 UNK        -0.4969 
     27 C          21.1436  -27.4982  -40.2173 C.2       3 UNK         0.5005 
     28 O          21.8771  -28.0445  -39.3931 O.2       3 UNK        -0.5279 
     29 N          21.2188  -26.1955  -40.5287 N.am      4 UNK        -0.4463 
     30 CA         22.1666  -25.2438  -39.9436 C.3       4 UNK         0.0283 
     31 CB         21.5669  -23.8306  -40.0390 C.3       4 UNK        -0.1875 
     32 C          23.5624  -25.2768  -40.5944 C.2       4 UNK         0.4949 
     33 O          24.4738  -24.6281  -40.0788 O.2       4 UNK        -0.5039 
     34 N          23.7271  -26.0068  -41.7072 N.am      5 UNK        -0.4663 
     35 CA         24.9621  -26.0975  -42.4955 C.3       5 UNK         0.0242 
     36 CB         24.6010  -26.5371  -43.9273 C.3       5 UNK        -0.1982 
     37 C          26.0141  -27.0172  -41.8411 C.2       5 UNK         0.5017 
     38 O          26.4526  -27.9899  -42.4559 O.2       5 UNK        -0.5012 
     39 N          26.3757  -26.7069  -40.5886 N.am      6 UNK        -0.4439 
     40 CA         27.2789  -27.4174  -39.6699 C.3       6 UNK         0.0297 
     41 CB         28.6939  -27.5807  -40.2588 C.3       6 UNK        -0.2006 
     42 C          26.7279  -28.7601  -39.1531 C.2       6 UNK         0.4892 
     43 O          26.8477  -29.0327  -37.9580 O.2       6 UNK        -0.5089 
     44 N          26.1195  -29.5578  -40.0346 N.am      7 UNK        -0.4243 
     45 CA         25.4201  -30.8006  -39.7303 C.3       7 UNK         0.0196 
     46 CB         26.4075  -31.9805  -39.7589 C.3       7 UNK        -0.2007 
     47 C          24.3023  -30.9866  -40.7613 C.2       7 UNK         0.5020 
     48 O          24.4364  -30.5251  -41.8964 O.2       7 UNK        -0.5147 
     49 N          23.2256  -31.6671  -40.3545 N.am      8 UNK        -0.4734 
     50 CA         22.0744  -31.9644  -41.2084 C.3       8 UNK         0.0238 
     51 CB         20.8776  -32.3404  -40.3184 C.3       8 UNK        -0.1912 
     52 C          22.3691  -33.0794  -42.2259 C.2       8 UNK         0.5038 
     53 O          23.2794  -33.8867  -42.0227 O.2       8 UNK        -0.5046 
     54 N          21.5564  -33.1125  -43.2867 N.am      9 UNK        -0.4200 
     55 CA         21.5965  -34.1032  -44.3727 C.3       9 UNK         0.0839 
     56 C          21.1108  -35.5342  -43.9917 C.2       9 UNK         0.5513 
     57 N          20.5193  -35.7521  -42.8230 N.am      9 UNK        -0.7519 
     58 O          21.2871  -36.4673  -44.7709 O.2       9 UNK        -0.4960 
     59 C59        20.8869  -33.5635  -45.6450 C.3       10 UNK        -0.0876 
     60 S60        19.1592  -33.0409  -45.3474 S.3       10 UNK        -0.2414 
     61 C61        19.3325  -31.2312  -45.3693 C.3       10 UNK         0.0169 
     62 H62        15.0792  -26.6472  -41.9889 H         1 UNK         0.0903 
     63 H63        16.3980  -26.0641  -40.9635 H         1 UNK         0.0903 
     64 H64        15.1171  -24.9661  -41.4693 H         1 UNK         0.0903 
     65 H65        15.7416  -26.9237  -44.1165 H         1 UNK         0.3096 
     66 H66        16.6797  -24.8055  -45.6581 H         1 UNK         0.1121 
     67 H67        16.3841  -26.1574  -47.5214 H         1 UNK         0.0849 
     68 H68        16.9860  -27.5970  -46.7848 H         1 UNK         0.0849 
     69 H69        13.8662  -29.5140  -45.8498 H         1 UNK         0.0865 
     70 H70        15.0020  -29.4958  -47.1691 H         1 UNK         0.0865 
     71 H71        17.2063  -30.2598  -46.7672 H         1 UNK         0.1346 
     72 H72        18.6938  -30.7444  -42.7954 H         1 UNK         0.1412 
     73 H73        14.8427  -28.9475  -43.4389 H         1 UNK         0.1426 
     74 H74        15.6960  -30.3281  -41.1659 H         1 UNK         0.0716 
     75 H75        16.1361  -28.6452  -41.2121 H         1 UNK         0.0716 
     76 H76        18.0873  -27.5963  -40.4019 H         1 UNK         0.0695 
     77 H77        18.9500  -28.3146  -39.0802 H         1 UNK         0.0695 
     78 H78        20.4982  -29.3392  -41.0384 H         1 UNK         0.0983 
     79 H79        19.0323  -27.2745  -42.4757 H         1 UNK         0.3095 
     80 H80        20.9469  -26.2167  -44.5001 H         1 UNK         0.0454 
     81 H81        22.1431  -28.0208  -45.7496 H         1 UNK         0.0851 
     82 H82        20.6114  -28.8164  -46.0812 H         1 UNK         0.0851 
     83 H83        20.9485  -27.2282  -46.7567 H         1 UNK         0.0851 
     84 H84        18.4038  -27.6648  -44.4383 H         1 UNK         0.2976 
     85 H85        20.5760  -25.8254  -41.2137 H         1 UNK         0.3116 
     86 H86        22.2984  -25.4836  -38.8862 H         1 UNK         0.0646 
     87 H87        22.2229  -23.0943  -39.5723 H         1 UNK         0.0847 
     88 H88        20.6055  -23.7708  -39.5285 H         1 UNK         0.0847 
     89 H89        21.4183  -23.5221  -41.0747 H         1 UNK         0.0847 
     90 H90        22.9537  -26.5725  -42.0257 H         1 UNK         0.3040 
     91 H91        25.4073  -25.1019  -42.5593 H         1 UNK         0.1015 
     92 H92        24.1810  -27.5436  -43.9452 H         1 UNK         0.0786 
     93 H93        25.4838  -26.5427  -44.5680 H         1 UNK         0.0786 
     94 H94        23.8763  -25.8619  -44.3826 H         1 UNK         0.0786 
     95 H95        25.8985  -25.9026  -40.1866 H         1 UNK         0.3172 
     96 H96        27.3672  -26.7650  -38.7996 H         1 UNK         0.0595 
     97 H97        29.3755  -27.9972  -39.5159 H         1 UNK         0.0839 
     98 H98        28.7072  -28.2524  -41.1175 H         1 UNK         0.0839 
     99 H99        29.1059  -26.6224  -40.5750 H         1 UNK         0.0839 
    100 H100       26.0473  -29.2510  -41.0030 H         1 UNK         0.2998 
    101 H101       24.9673  -30.7251  -38.7390 H         1 UNK         0.0822 
    102 H102       25.8986  -32.9222  -39.5489 H         1 UNK         0.0787 
    103 H103       26.8863  -32.0781  -40.7342 H         1 UNK         0.0787 
    104 H104       27.1915  -31.8609  -39.0108 H         1 UNK         0.0787 
    105 H105       23.2133  -32.0570  -39.4230 H         1 UNK         0.3055 
    106 H106       21.8306  -31.0604  -41.7709 H         1 UNK         0.1106 
    107 H107       20.6498  -31.5486  -39.6042 H         1 UNK         0.0828 
    108 H108       19.9767  -32.5019  -40.9120 H         1 UNK         0.0828 
    109 H109       21.0650  -33.2552  -39.7547 H         1 UNK         0.0828 
    110 H110       20.8058  -32.4426  -43.3517 H         1 UNK         0.2931 
    111 H111       22.6490  -34.2267  -44.6358 H         1 UNK         0.0412 
    112 H112       20.2158  -36.6847  -42.5900 H         1 UNK         0.3472 
    113 H113       20.3703  -34.9961  -42.1756 H         1 UNK         0.3472 
    114 H114       20.8909  -34.3135  -46.4384 H         1 UNK         0.0970 
    115 H115       21.4533  -32.7226  -46.0481 H         1 UNK         0.0970 
    116 H116       20.1961  -30.9311  -44.7739 H         1 UNK         0.0612 
    117 H117       19.5305  -30.9089  -46.3926 H         1 UNK         0.0612 
@<TRIPOS>BOND
     1    1    2 1    
     2    1   62 1    
     3    1   63 1    
     4    1   64 1    
     5    2    3 2    
     6    2    4 am   BACKBONE|DICT|INTERRES
     7    4    5 1    
     8    4   65 1    
     9    5    6 1    
    10    5   25 1    
    11    5   66 1    
    12    6    7 1    
    13    6   67 1    
    14    6   68 1    
    15    7    8 1    
    16    8    9 1    
    17    8   69 1    
    18    8   70 1    
    19    9   10 ar   
    20    9   14 ar   
    21   10   11 ar   
    22   10   71 1    
    23   11   12 ar   
    24   11   61 1    
    25   12   13 ar   
    26   12   72 1    
    27   13   14 ar   
    28   13   15 1    
    29   14   73 1    
    30   15   16 1    
    31   15   74 1    
    32   15   75 1    
    33   16   17 1    
    34   17   18 1    
    35   17   76 1    
    36   17   77 1    
    37   18   19 1    
    38   18   27 1    
    39   18   78 1    
    40   19   20 am   BACKBONE|DICT|INTERRES
    41   19   79 1    
    42   20   21 2    
    43   20   22 1    
    44   22   23 1    
    45   22   24 1    
    46   22   80 1    
    47   23   81 1    
    48   23   82 1    
    49   23   83 1    
    50   24   25 am   BACKBONE|DICT|INTERRES
    51   24   84 1    
    52   25   26 2    
    53   27   28 2    
    54   27   29 am   BACKBONE|DICT|INTERRES
    55   29   30 1    
    56   29   85 1    
    57   30   31 1    
    58   30   32 1    
    59   30   86 1    
    60   31   87 1    
    61   31   88 1    
    62   31   89 1    
    63   32   33 2    
    64   32   34 am   BACKBONE|DICT|INTERRES
    65   34   35 1    
    66   34   90 1    
    67   35   36 1    
    68   35   37 1    
    69   35   91 1    
    70   36   92 1    
    71   36   93 1    
    72   36   94 1    
    73   37   38 2    
    74   37   39 am   BACKBONE|DICT|INTERRES
    75   39   40 1    
    76   39   95 1    
    77   40   41 1    
    78   40   42 1    
    79   40   96 1    
    80   41   97 1    
    81   41   98 1    
    82   41   99 1    
    83   42   43 2    
    84   42   44 am   BACKBONE|DICT|INTERRES
    85   44   45 1    
    86   44  100 1    
    87   45   46 1    
    88   45   47 1    
    89   45  101 1    
    90   46  102 1    
    91   46  103 1    
    92   46  104 1    
    93   47   48 2    
    94   47   49 am   BACKBONE|DICT|INTERRES
    95   49   50 1    
    96   49  105 1    
    97   50   51 1    
    98   50   52 1    
    99   50  106 1    
   100   51  107 1    
   101   51  108 1    
   102   51  109 1    
   103   52   53 2    
   104   52   54 am   BACKBONE|DICT|INTERRES
   105   54   55 1    
   106   54  110 1    
   107   55   56 1    
   108   55   59 1    
   109   55  111 1    
   110   56   57 am   BACKBONE|DICT|INTERRES
   111   56   58 2    
   112   57  112 1    
   113   57  113 1    
   114   59   60 1    
   115   59  114 1    
   116   59  115 1    
   117   60   61 1    
   118   61  116 1    
   119   61  117 1    
@<TRIPOS>SUBSTRUCTURE
     1 UNK         1 GROUP             0       ****    0 ROOT    
