@<TRIPOS>MOLECULE
3R8
117   119    1
SMALL
USER_CHARGES


@<TRIPOS>ATOM
      1 CA         16.4733  -24.2489  -46.8837 C.3       0 UNK        -0.2013 
      2 C          17.8983  -24.7574  -47.0410 C.2       0 UNK         0.4866 
      3 O          18.7301  -24.0773  -47.6415 O.2       0 UNK        -0.5176 
      4 N          18.1883  -25.9471  -46.4995 N.am      1 UNK        -0.4884 
      5 CA         19.5018  -26.6024  -46.5748 C.3       1 UNK         0.0853 
      6 C6         19.3818  -28.1414  -46.4395 C.3       10 UNK        -0.0849 
      7 S7         18.3673  -28.9464  -47.7287 S.3       10 UNK        -0.2776 
      8 C8         16.7623  -29.2595  -46.9142 C.3       10 UNK         0.0316 
      9 C9         16.8854  -29.8712  -45.5228 C.ar      10 UNK        -0.0863 
     10 C10        17.4355  -31.1449  -45.3392 C.ar      10 UNK        -0.1009 
     11 C11        17.5465  -31.6900  -44.0546 C.ar      10 UNK        -0.0712 
     12 C12        17.1103  -30.9502  -42.9502 C.ar      10 UNK        -0.0894 
     13 C13        16.5444  -29.6844  -43.1239 C.ar      10 UNK        -0.0745 
     14 C14        16.4317  -29.1547  -44.4121 C.ar      10 UNK        -0.0972 
     15 C15        15.9989  -28.9060  -41.9355 C.3       10 UNK         0.0209 
     16 S16        16.8053  -27.2837  -41.7480 S.3       10 UNK        -0.2568 
     17 C17        18.0640  -27.5840  -40.4577 C.3       10 UNK        -0.0983 
     18 CA         19.5336  -27.4956  -40.9526 C.3       3 UNK         0.0876 
     19 N          19.7399  -26.3583  -41.8548 N.am      3 UNK        -0.4424 
     20 C          20.8893  -25.9282  -42.3921 C.2       2 UNK         0.4918 
     21 O          21.9964  -26.4354  -42.1889 O.2       2 UNK        -0.4875 
     22 CA         20.7275  -24.7573  -43.3768 C.3       2 UNK         0.0481 
     23 CB         22.0500  -24.0227  -43.6818 C.3       2 UNK        -0.1831 
     24 N          20.0436  -25.2129  -44.5955 N.am      2 UNK        -0.4498 
     25 C          20.5064  -26.0654  -45.5263 C.2       1 UNK         0.5027 
     26 O          21.6705  -26.4630  -45.5701 O.2       1 UNK        -0.4969 
     27 C          20.4796  -27.4308  -39.7372 C.2       3 UNK         0.5005 
     28 O          20.5102  -26.4015  -39.0574 O.2       3 UNK        -0.5279 
     29 N          21.2437  -28.5048  -39.4995 N.am      4 UNK        -0.4463 
     30 CA         22.2517  -28.7051  -38.4459 C.3       4 UNK         0.0283 
     31 CB         21.6283  -28.6119  -37.0401 C.3       4 UNK        -0.1875 
     32 C          23.5014  -27.8095  -38.5573 C.2       4 UNK         0.4949 
     33 O          24.5972  -28.2807  -38.2546 O.2       4 UNK        -0.5039 
     34 N          23.3309  -26.5545  -38.9927 N.am      5 UNK        -0.4663 
     35 CA         24.3928  -25.5740  -39.2328 C.3       5 UNK         0.0242 
     36 CB         23.7601  -24.2100  -39.5518 C.3       5 UNK        -0.1982 
     37 C          25.3570  -26.0005  -40.3516 C.2       5 UNK         0.5017 
     38 O          26.5644  -25.7968  -40.2178 O.2       5 UNK        -0.5012 
     39 N          24.8065  -26.6045  -41.4107 N.am      6 UNK        -0.4439 
     40 CA         25.5525  -27.2423  -42.4934 C.3       6 UNK         0.0297 
     41 CB         25.5549  -26.3420  -43.7399 C.3       6 UNK        -0.2006 
     42 C          24.9555  -28.6184  -42.8071 C.2       6 UNK         0.4892 
     43 O          25.7009  -29.5946  -42.9002 O.2       6 UNK        -0.5089 
     44 N          23.6262  -28.6816  -42.9552 N.am      7 UNK        -0.4243 
     45 CA         22.8866  -29.8993  -43.2684 C.3       7 UNK         0.0196 
     46 CB         21.6372  -29.5247  -44.0767 C.3       7 UNK        -0.2007 
     47 C          22.5441  -30.6635  -41.9851 C.2       7 UNK         0.5020 
     48 O          21.4535  -30.4939  -41.4374 O.2       7 UNK        -0.5147 
     49 N          23.4944  -31.4781  -41.5119 N.am      8 UNK        -0.4734 
     50 CA         23.2870  -32.4222  -40.4082 C.3       8 UNK         0.0238 
     51 CB         24.6487  -32.8843  -39.8663 C.3       8 UNK        -0.1912 
     52 C          22.4241  -33.6284  -40.8239 C.2       8 UNK         0.5038 
     53 O          21.6991  -34.1661  -39.9865 O.2       8 UNK        -0.5046 
     54 N          22.5119  -34.0093  -42.1073 N.am      9 UNK        -0.4200 
     55 CA         21.7083  -35.0475  -42.7788 C.3       9 UNK         0.0839 
     56 C          21.9498  -36.5011  -42.2683 C.2       9 UNK         0.5513 
     57 N          23.0514  -36.7844  -41.5836 N.am      9 UNK        -0.7519 
     58 O          21.1467  -37.3955  -42.5223 O.2       9 UNK        -0.4960 
     59 C59        20.1976  -34.6807  -42.8645 C.3       10 UNK        -0.0876 
     60 S60        19.9113  -33.0451  -43.6225 S.3       10 UNK        -0.2414 
     61 C61        18.1113  -33.0880  -43.8524 C.3       10 UNK         0.0169 
     62 H62        15.8451  -24.9533  -46.3373 H         1 UNK         0.0903 
     63 H63        16.4704  -23.3016  -46.3443 H         1 UNK         0.0903 
     64 H64        16.0240  -24.0846  -47.8635 H         1 UNK         0.0903 
     65 H65        17.4675  -26.4673  -46.0212 H         1 UNK         0.3096 
     66 H66        19.9375  -26.3888  -47.5537 H         1 UNK         0.1121 
     67 H67        20.3686  -28.5924  -46.5425 H         1 UNK         0.0849 
     68 H68        19.0382  -28.4155  -45.4418 H         1 UNK         0.0849 
     69 H69        16.2041  -28.3230  -46.8775 H         1 UNK         0.0865 
     70 H70        16.1764  -29.9302  -47.5441 H         1 UNK         0.0865 
     71 H71        17.7797  -31.7088  -46.1955 H         1 UNK         0.1346 
     72 H72        17.1941  -31.3716  -41.9577 H         1 UNK         0.1412 
     73 H73        15.9855  -28.1784  -44.5436 H         1 UNK         0.1426 
     74 H74        16.0756  -29.4814  -41.0122 H         1 UNK         0.0716 
     75 H75        14.9327  -28.7406  -42.0957 H         1 UNK         0.0716 
     76 H76        17.8902  -28.5523  -39.9863 H         1 UNK         0.0695 
     77 H77        17.8762  -26.8403  -39.6803 H         1 UNK         0.0695 
     78 H78        19.7526  -28.3966  -41.5279 H         1 UNK         0.0983 
     79 H79        18.8898  -25.8731  -42.1010 H         1 UNK         0.3095 
     80 H80        20.0633  -24.0322  -42.9038 H         1 UNK         0.0454 
     81 H81        22.7989  -24.6782  -44.1222 H         1 UNK         0.0851 
     82 H82        22.4830  -23.6124  -42.7694 H         1 UNK         0.0851 
     83 H83        21.8907  -23.1911  -44.3677 H         1 UNK         0.0851 
     84 H84        19.0731  -24.9450  -44.6776 H         1 UNK         0.2976 
     85 H85        21.1880  -29.2733  -40.1705 H         1 UNK         0.3116 
     86 H86        22.6009  -29.7299  -38.5769 H         1 UNK         0.0646 
     87 H87        21.2731  -27.6060  -36.8149 H         1 UNK         0.0847 
     88 H88        22.3594  -28.8733  -36.2740 H         1 UNK         0.0847 
     89 H89        20.7877  -29.2972  -36.9324 H         1 UNK         0.0847 
     90 H90        22.3732  -26.2567  -39.1633 H         1 UNK         0.3040 
     91 H91        24.9751  -25.4802  -38.3136 H         1 UNK         0.1015 
     92 H92        23.1267  -24.2573  -40.4383 H         1 UNK         0.0786 
     93 H93        24.5268  -23.4561  -39.7361 H         1 UNK         0.0786 
     94 H94        23.1483  -23.8540  -38.7228 H         1 UNK         0.0786 
     95 H95        23.7942  -26.6853  -41.4413 H         1 UNK         0.3172 
     96 H96        26.5879  -27.4042  -42.1857 H         1 UNK         0.0595 
     97 H97        24.5496  -26.1951  -44.1349 H         1 UNK         0.0839 
     98 H98        26.1543  -26.7844  -44.5365 H         1 UNK         0.0839 
     99 H99        25.9773  -25.3613  -43.5209 H         1 UNK         0.0839 
    100 H100       23.0690  -27.8392  -42.8412 H         1 UNK         0.2998 
    101 H101       23.4963  -30.5501  -43.8992 H         1 UNK         0.0822 
    102 H102       21.9314  -29.0809  -45.0254 H         1 UNK         0.0787 
    103 H103       21.0293  -30.4007  -44.3020 H         1 UNK         0.0787 
    104 H104       21.0032  -28.8109  -43.5520 H         1 UNK         0.0787 
    105 H105       24.3943  -31.4917  -41.9748 H         1 UNK         0.3055 
    106 H106       22.7557  -31.9084  -39.6045 H         1 UNK         0.1106 
    107 H107       24.5218  -33.5764  -39.0327 H         1 UNK         0.0828 
    108 H108       25.2378  -33.3957  -40.6284 H         1 UNK         0.0828 
    109 H109       25.2342  -32.0412  -39.4986 H         1 UNK         0.0828 
    110 H110       23.1502  -33.5055  -42.7039 H         1 UNK         0.2931 
    111 H111       22.0811  -35.0642  -43.8035 H         1 UNK         0.0412 
    112 H112       23.7235  -36.0633  -41.3761 H         1 UNK         0.3472 
    113 H113       23.2072  -37.7283  -41.2657 H         1 UNK         0.3472 
    114 H114       19.7440  -34.6926  -41.8721 H         1 UNK         0.0970 
    115 H115       19.6596  -35.4235  -43.4564 H         1 UNK         0.0970 
    116 H116       17.8718  -33.7225  -44.7069 H         1 UNK         0.0612 
    117 H117       17.6440  -33.5517  -42.9821 H         1 UNK         0.0612 
@<TRIPOS>BOND
     1    1    2 1    
     2    1   62 1    
     3    1   63 1    
     4    1   64 1    
     5    2    3 2    
     6    2    4 am   BACKBONE|DICT|INTERRES
     7    4    5 1    
     8    4   65 1    
     9    5    6 1    
    10    5   25 1    
    11    5   66 1    
    12    6    7 1    
    13    6   67 1    
    14    6   68 1    
    15    7    8 1    
    16    8    9 1    
    17    8   69 1    
    18    8   70 1    
    19    9   10 ar   
    20    9   14 ar   
    21   10   11 ar   
    22   10   71 1    
    23   11   12 ar   
    24   11   61 1    
    25   12   13 ar   
    26   12   72 1    
    27   13   14 ar   
    28   13   15 1    
    29   14   73 1    
    30   15   16 1    
    31   15   74 1    
    32   15   75 1    
    33   16   17 1    
    34   17   18 1    
    35   17   76 1    
    36   17   77 1    
    37   18   19 1    
    38   18   27 1    
    39   18   78 1    
    40   19   20 am   BACKBONE|DICT|INTERRES
    41   19   79 1    
    42   20   21 2    
    43   20   22 1    
    44   22   23 1    
    45   22   24 1    
    46   22   80 1    
    47   23   81 1    
    48   23   82 1    
    49   23   83 1    
    50   24   25 am   BACKBONE|DICT|INTERRES
    51   24   84 1    
    52   25   26 2    
    53   27   28 2    
    54   27   29 am   BACKBONE|DICT|INTERRES
    55   29   30 1    
    56   29   85 1    
    57   30   31 1    
    58   30   32 1    
    59   30   86 1    
    60   31   87 1    
    61   31   88 1    
    62   31   89 1    
    63   32   33 2    
    64   32   34 am   BACKBONE|DICT|INTERRES
    65   34   35 1    
    66   34   90 1    
    67   35   36 1    
    68   35   37 1    
    69   35   91 1    
    70   36   92 1    
    71   36   93 1    
    72   36   94 1    
    73   37   38 2    
    74   37   39 am   BACKBONE|DICT|INTERRES
    75   39   40 1    
    76   39   95 1    
    77   40   41 1    
    78   40   42 1    
    79   40   96 1    
    80   41   97 1    
    81   41   98 1    
    82   41   99 1    
    83   42   43 2    
    84   42   44 am   BACKBONE|DICT|INTERRES
    85   44   45 1    
    86   44  100 1    
    87   45   46 1    
    88   45   47 1    
    89   45  101 1    
    90   46  102 1    
    91   46  103 1    
    92   46  104 1    
    93   47   48 2    
    94   47   49 am   BACKBONE|DICT|INTERRES
    95   49   50 1    
    96   49  105 1    
    97   50   51 1    
    98   50   52 1    
    99   50  106 1    
   100   51  107 1    
   101   51  108 1    
   102   51  109 1    
   103   52   53 2    
   104   52   54 am   BACKBONE|DICT|INTERRES
   105   54   55 1    
   106   54  110 1    
   107   55   56 1    
   108   55   59 1    
   109   55  111 1    
   110   56   57 am   BACKBONE|DICT|INTERRES
   111   56   58 2    
   112   57  112 1    
   113   57  113 1    
   114   59   60 1    
   115   59  114 1    
   116   59  115 1    
   117   60   61 1    
   118   61  116 1    
   119   61  117 1    
@<TRIPOS>SUBSTRUCTURE
     1 UNK         1 GROUP             0       ****    0 ROOT    
