@<TRIPOS>MOLECULE
3R8
117   119    1
SMALL
USER_CHARGES


@<TRIPOS>ATOM
      1 CA         16.1334  -21.4343  -45.9171 C.3       0 UNK        -0.2013 
      2 C          16.9756  -22.3094  -45.0008 C.2       0 UNK         0.4866 
      3 O          17.3284  -21.8837  -43.9003 O.2       0 UNK        -0.5176 
      4 N          17.3087  -23.5257  -45.4487 N.am      1 UNK        -0.4884 
      5 CA         18.0440  -24.5345  -44.6804 C.3       1 UNK         0.0853 
      6 C6         18.6416  -25.6406  -45.5946 C.3       10 UNK        -0.0849 
      7 S7         17.4461  -26.3645  -46.7724 S.3       10 UNK        -0.2776 
      8 C8         18.4450  -27.6717  -47.5604 C.3       10 UNK         0.0316 
      9 C9         18.5854  -28.9283  -46.7063 C.ar      10 UNK        -0.0863 
     10 C10        19.8383  -29.5302  -46.5429 C.ar      10 UNK        -0.1009 
     11 C11        19.9646  -30.7190  -45.8172 C.ar      10 UNK        -0.0712 
     12 C12        18.8324  -31.3020  -45.2428 C.ar      10 UNK        -0.0894 
     13 C13        17.5817  -30.6929  -45.3687 C.ar      10 UNK        -0.0745 
     14 C14        17.4608  -29.5202  -46.1192 C.ar      10 UNK        -0.0972 
     15 C15        16.3687  -31.2788  -44.6628 C.3       10 UNK         0.0209 
     16 S16        15.9141  -30.2947  -43.1968 S.3       10 UNK        -0.2568 
     17 C17        17.3481  -30.5540  -42.0932 C.3       10 UNK        -0.0983 
     18 CA         18.4580  -29.4775  -42.2623 C.3       3 UNK         0.0876 
     19 N          17.9788  -28.0923  -42.1614 N.am      3 UNK        -0.4424 
     20 C          17.4812  -27.4830  -41.0760 C.2       2 UNK         0.4918 
     21 O          17.2962  -28.0472  -39.9972 O.2       2 UNK        -0.4875 
     22 CA         17.1769  -25.9759  -41.2033 C.3       2 UNK         0.0481 
     23 CB         17.6618  -25.2058  -39.9611 C.3       2 UNK        -0.1831 
     24 N          17.7986  -25.3799  -42.3937 N.am      2 UNK        -0.4498 
     25 C          17.1712  -25.1227  -43.5493 C.2       1 UNK         0.5027 
     26 O          15.9754  -25.3521  -43.7467 O.2       1 UNK        -0.4969 
     27 C          19.6992  -29.7284  -41.3763 C.2       3 UNK         0.5005 
     28 O          19.8629  -30.8109  -40.8072 O.2       3 UNK        -0.5279 
     29 N          20.5589  -28.7064  -41.2850 N.am      4 UNK        -0.4463 
     30 CA         21.7692  -28.6797  -40.4742 C.3       4 UNK         0.0283 
     31 CB         21.4246  -28.2201  -39.0435 C.3       4 UNK        -0.1875 
     32 C          22.8124  -27.7917  -41.1658 C.2       4 UNK         0.4949 
     33 O          23.3080  -26.8314  -40.5739 O.2       4 UNK        -0.5039 
     34 N          23.1024  -28.1026  -42.4363 N.am      5 UNK        -0.4663 
     35 CA         24.0458  -27.3775  -43.2924 C.3       5 UNK         0.0242 
     36 CB         23.7457  -27.7236  -44.7634 C.3       5 UNK        -0.1982 
     37 C          25.5075  -27.6736  -42.9020 C.2       5 UNK         0.5017 
     38 O          26.1865  -28.4333  -43.5946 O.2       5 UNK        -0.5012 
     39 N          25.9421  -27.0903  -41.7742 N.am      6 UNK        -0.4439 
     40 CA         27.2504  -27.2608  -41.1216 C.3       6 UNK         0.0297 
     41 CB         28.3886  -26.7033  -42.0031 C.3       6 UNK        -0.2006 
     42 C          27.5041  -28.7105  -40.6554 C.2       6 UNK         0.4892 
     43 O          28.6427  -29.1813  -40.6760 O.2       6 UNK        -0.5089 
     44 N          26.4254  -29.3828  -40.2427 N.am      7 UNK        -0.4243 
     45 CA         26.3375  -30.7726  -39.8067 C.3       7 UNK         0.0196 
     46 CB         26.6225  -31.7306  -40.9879 C.3       7 UNK        -0.2007 
     47 C          24.9266  -30.9622  -39.2251 C.2       7 UNK         0.5020 
     48 O          24.2740  -29.9739  -38.8863 O.2       7 UNK        -0.5147 
     49 N          24.4563  -32.2102  -39.1608 N.am      8 UNK        -0.4734 
     50 CA         23.0630  -32.5714  -38.8922 C.3       8 UNK         0.0238 
     51 CB         22.9765  -33.3190  -37.5481 C.3       8 UNK        -0.1912 
     52 C          22.5779  -33.4095  -40.0838 C.2       8 UNK         0.5038 
     53 O          22.2923  -34.5986  -39.9314 O.2       8 UNK        -0.5046 
     54 N          22.5991  -32.7885  -41.2702 N.am      9 UNK        -0.4200 
     55 CA         22.3740  -33.4412  -42.5670 C.3       9 UNK         0.0839 
     56 C          20.9195  -33.9253  -42.8382 C.2       9 UNK         0.5513 
     57 N          19.9104  -33.4284  -42.1341 N.am      9 UNK        -0.7519 
     58 O          20.7099  -34.7784  -43.6964 O.2       9 UNK        -0.4960 
     59 C59        22.9585  -32.5947  -43.7286 C.3       10 UNK        -0.0876 
     60 S60        22.0556  -31.0343  -44.0357 S.3       10 UNK        -0.2414 
     61 C61        21.3147  -31.3955  -45.6595 C.3       10 UNK         0.0169 
     62 H62        16.6616  -20.5079  -46.1414 H         1 UNK         0.0903 
     63 H63        15.9059  -21.9317  -46.8598 H         1 UNK         0.0903 
     64 H64        15.1914  -21.1809  -45.4315 H         1 UNK         0.0903 
     65 H65        16.9632  -23.8455  -46.3434 H         1 UNK         0.3096 
     66 H66        18.8838  -24.0199  -44.2068 H         1 UNK         0.1121 
     67 H67        19.0928  -26.4397  -45.0032 H         1 UNK         0.0849 
     68 H68        19.4589  -25.2142  -46.1787 H         1 UNK         0.0849 
     69 H69        17.9678  -27.9513  -48.5006 H         1 UNK         0.0865 
     70 H70        19.4223  -27.2645  -47.8247 H         1 UNK         0.0865 
     71 H71        20.7146  -29.0858  -46.9952 H         1 UNK         0.1346 
     72 H72        18.9345  -32.2131  -44.6687 H         1 UNK         0.1412 
     73 H73        16.4891  -29.0579  -46.2299 H         1 UNK         0.1426 
     74 H74        16.5485  -32.3135  -44.3665 H         1 UNK         0.0716 
     75 H75        15.5233  -31.2993  -45.3521 H         1 UNK         0.0716 
     76 H76        17.7493  -31.5512  -42.2781 H         1 UNK         0.0695 
     77 H77        16.9841  -30.5630  -41.0647 H         1 UNK         0.0695 
     78 H78        18.8452  -29.5565  -43.2749 H         1 UNK         0.0983 
     79 H79        18.0358  -27.5508  -43.0100 H         1 UNK         0.3095 
     80 H80        16.0913  -25.8733  -41.2565 H         1 UNK         0.0454 
     81 H81        18.7355  -25.3200  -39.8069 H         1 UNK         0.0851 
     82 H82        17.1639  -25.5613  -39.0579 H         1 UNK         0.0851 
     83 H83        17.4456  -24.1407  -40.0455 H         1 UNK         0.0851 
     84 H84        18.7789  -25.1486  -42.3102 H         1 UNK         0.2976 
     85 H85        20.3652  -27.8642  -41.8080 H         1 UNK         0.3116 
     86 H86        22.1904  -29.6847  -40.4282 H         1 UNK         0.0646 
     87 H87        20.7283  -28.9081  -38.5640 H         1 UNK         0.0847 
     88 H88        20.9733  -27.2275  -39.0372 H         1 UNK         0.0847 
     89 H89        22.3174  -28.1779  -38.4187 H         1 UNK         0.0847 
     90 H90        22.6667  -28.9188  -42.8463 H         1 UNK         0.3040 
     91 H91        23.8807  -26.3048  -43.1667 H         1 UNK         0.1015 
     92 H92        22.7206  -27.4670  -45.0320 H         1 UNK         0.0786 
     93 H93        23.8890  -28.7850  -44.9692 H         1 UNK         0.0786 
     94 H94        24.4045  -27.1714  -45.4348 H         1 UNK         0.0786 
     95 H95        25.2537  -26.5596  -41.2483 H         1 UNK         0.3172 
     96 H96        27.2147  -26.6568  -40.2138 H         1 UNK         0.0595 
     97 H97        29.3356  -26.6996  -41.4619 H         1 UNK         0.0839 
     98 H98        28.1884  -25.6765  -42.3088 H         1 UNK         0.0839 
     99 H99        28.5340  -27.3002  -42.9039 H         1 UNK         0.0839 
    100 H100       25.5418  -28.8914  -40.1772 H         1 UNK         0.2998 
    101 H101       27.0626  -30.9393  -39.0081 H         1 UNK         0.0822 
    102 H102       27.5978  -31.5399  -41.4350 H         1 UNK         0.0787 
    103 H103       26.6303  -32.7732  -40.6691 H         1 UNK         0.0787 
    104 H104       25.8754  -31.6283  -41.7762 H         1 UNK         0.0787 
    105 H105       25.0510  -32.9652  -39.4748 H         1 UNK         0.3055 
    106 H106       22.4236  -31.6867  -38.8365 H         1 UNK         0.1106 
    107 H107       21.9495  -33.6171  -37.3334 H         1 UNK         0.0828 
    108 H108       23.3095  -32.6871  -36.7247 H         1 UNK         0.0828 
    109 H109       23.5881  -34.2221  -37.5448 H         1 UNK         0.0828 
    110 H110       22.8191  -31.8057  -41.3047 H         1 UNK         0.2931 
    111 H111       22.9707  -34.3555  -42.5391 H         1 UNK         0.0412 
    112 H112       20.0601  -32.6645  -41.4829 H         1 UNK         0.3472 
    113 H113       18.9797  -33.7748  -42.2979 H         1 UNK         0.3472 
    114 H114       23.9979  -32.3426  -43.5129 H         1 UNK         0.0970 
    115 H115       23.0011  -33.1931  -44.6400 H         1 UNK         0.0970 
    116 H116       22.0030  -31.0804  -46.4451 H         1 UNK         0.0612 
    117 H117       21.1768  -32.4706  -45.7834 H         1 UNK         0.0612 
@<TRIPOS>BOND
     1    1    2 1    
     2    1   62 1    
     3    1   63 1    
     4    1   64 1    
     5    2    3 2    
     6    2    4 am   BACKBONE|DICT|INTERRES
     7    4    5 1    
     8    4   65 1    
     9    5    6 1    
    10    5   25 1    
    11    5   66 1    
    12    6    7 1    
    13    6   67 1    
    14    6   68 1    
    15    7    8 1    
    16    8    9 1    
    17    8   69 1    
    18    8   70 1    
    19    9   10 ar   
    20    9   14 ar   
    21   10   11 ar   
    22   10   71 1    
    23   11   12 ar   
    24   11   61 1    
    25   12   13 ar   
    26   12   72 1    
    27   13   14 ar   
    28   13   15 1    
    29   14   73 1    
    30   15   16 1    
    31   15   74 1    
    32   15   75 1    
    33   16   17 1    
    34   17   18 1    
    35   17   76 1    
    36   17   77 1    
    37   18   19 1    
    38   18   27 1    
    39   18   78 1    
    40   19   20 am   BACKBONE|DICT|INTERRES
    41   19   79 1    
    42   20   21 2    
    43   20   22 1    
    44   22   23 1    
    45   22   24 1    
    46   22   80 1    
    47   23   81 1    
    48   23   82 1    
    49   23   83 1    
    50   24   25 am   BACKBONE|DICT|INTERRES
    51   24   84 1    
    52   25   26 2    
    53   27   28 2    
    54   27   29 am   BACKBONE|DICT|INTERRES
    55   29   30 1    
    56   29   85 1    
    57   30   31 1    
    58   30   32 1    
    59   30   86 1    
    60   31   87 1    
    61   31   88 1    
    62   31   89 1    
    63   32   33 2    
    64   32   34 am   BACKBONE|DICT|INTERRES
    65   34   35 1    
    66   34   90 1    
    67   35   36 1    
    68   35   37 1    
    69   35   91 1    
    70   36   92 1    
    71   36   93 1    
    72   36   94 1    
    73   37   38 2    
    74   37   39 am   BACKBONE|DICT|INTERRES
    75   39   40 1    
    76   39   95 1    
    77   40   41 1    
    78   40   42 1    
    79   40   96 1    
    80   41   97 1    
    81   41   98 1    
    82   41   99 1    
    83   42   43 2    
    84   42   44 am   BACKBONE|DICT|INTERRES
    85   44   45 1    
    86   44  100 1    
    87   45   46 1    
    88   45   47 1    
    89   45  101 1    
    90   46  102 1    
    91   46  103 1    
    92   46  104 1    
    93   47   48 2    
    94   47   49 am   BACKBONE|DICT|INTERRES
    95   49   50 1    
    96   49  105 1    
    97   50   51 1    
    98   50   52 1    
    99   50  106 1    
   100   51  107 1    
   101   51  108 1    
   102   51  109 1    
   103   52   53 2    
   104   52   54 am   BACKBONE|DICT|INTERRES
   105   54   55 1    
   106   54  110 1    
   107   55   56 1    
   108   55   59 1    
   109   55  111 1    
   110   56   57 am   BACKBONE|DICT|INTERRES
   111   56   58 2    
   112   57  112 1    
   113   57  113 1    
   114   59   60 1    
   115   59  114 1    
   116   59  115 1    
   117   60   61 1    
   118   61  116 1    
   119   61  117 1    
@<TRIPOS>SUBSTRUCTURE
     1 UNK         1 GROUP             0       ****    0 ROOT    
