@<TRIPOS>MOLECULE
3R8
117   119    1
SMALL
USER_CHARGES


@<TRIPOS>ATOM
      1 CA         17.9992  -29.3255  -41.0020 C.3       0 UNK        -0.2013 
      2 C          17.2609  -28.1399  -41.6041 C.2       0 UNK         0.4866 
      3 O          16.4802  -27.4874  -40.9095 O.2       0 UNK        -0.5176 
      4 N          17.5043  -27.8636  -42.8898 N.am      1 UNK        -0.4884 
      5 CA         16.9578  -26.7221  -43.6330 C.3       1 UNK         0.0853 
      6 C6         16.5326  -27.1064  -45.0813 C.3       10 UNK        -0.0849 
      7 S7         15.4271  -28.5633  -45.1635 S.3       10 UNK        -0.2776 
      8 C8         16.4297  -29.7812  -46.0845 C.3       10 UNK         0.0316 
      9 C9         17.5997  -30.2981  -45.2590 C.ar      10 UNK        -0.0863 
     10 C10        17.4364  -31.3908  -44.4001 C.ar      10 UNK        -0.1009 
     11 C11        18.5021  -31.8362  -43.6099 C.ar      10 UNK        -0.0712 
     12 C12        19.7296  -31.1718  -43.6713 C.ar      10 UNK        -0.0894 
     13 C13        19.9017  -30.0834  -44.5281 C.ar      10 UNK        -0.0745 
     14 C14        18.8449  -29.6697  -45.3405 C.ar      10 UNK        -0.0972 
     15 C15        21.1996  -29.3011  -44.5276 C.3       10 UNK         0.0209 
     16 S16        21.0318  -27.9016  -43.3879 S.3       10 UNK        -0.2568 
     17 C17        22.4766  -26.8945  -43.8284 C.3       10 UNK        -0.0983 
     18 CA         22.1914  -25.7429  -44.8257 C.3       3 UNK         0.0876 
     19 N          20.9788  -24.9919  -44.4800 N.am      3 UNK        -0.4424 
     20 C          20.3393  -24.1432  -45.2930 C.2       2 UNK         0.4918 
     21 O          20.7578  -23.8196  -46.4056 O.2       2 UNK        -0.4875 
     22 CA         18.9790  -23.6152  -44.7898 C.3       2 UNK         0.0481 
     23 CB         18.3747  -22.5528  -45.7267 C.3       2 UNK        -0.1831 
     24 N          18.0135  -24.7089  -44.6247 N.am      2 UNK        -0.4498 
     25 C          17.9694  -25.5489  -43.5794 C.2       1 UNK         0.5027 
     26 O          18.7160  -25.4197  -42.6047 O.2       1 UNK        -0.4969 
     27 C          23.4549  -24.8644  -44.8928 C.2       3 UNK         0.5005 
     28 O          24.3837  -25.1969  -45.6311 O.2       3 UNK        -0.5279 
     29 N          23.5074  -23.8315  -44.0362 N.am      4 UNK        -0.4463 
     30 CA         24.6871  -23.0664  -43.6037 C.3       4 UNK         0.0283 
     31 CB         25.4210  -22.3823  -44.7749 C.3       4 UNK        -0.1875 
     32 C          25.6345  -23.9206  -42.7388 C.2       4 UNK         0.4949 
     33 O          25.8478  -23.5945  -41.5713 O.2       4 UNK        -0.5039 
     34 N          26.1344  -25.0269  -43.3014 N.am      5 UNK        -0.4663 
     35 CA         26.8441  -26.0897  -42.5921 C.3       5 UNK         0.0242 
     36 CB         27.9155  -26.6828  -43.5252 C.3       5 UNK        -0.1982 
     37 C          25.8094  -27.1384  -42.1531 C.2       5 UNK         0.5017 
     38 O          25.5093  -28.0520  -42.9231 O.2       5 UNK        -0.5012 
     39 N          25.2294  -26.9315  -40.9624 N.am      6 UNK        -0.4439 
     40 CA         24.1219  -27.7053  -40.3871 C.3       6 UNK         0.0297 
     41 CB         23.7876  -27.1398  -38.9971 C.3       6 UNK        -0.2006 
     42 C          24.3779  -29.2200  -40.2967 C.2       6 UNK         0.4892 
     43 O          25.4814  -29.6378  -39.9374 O.2       6 UNK        -0.5089 
     44 N          23.3272  -29.9992  -40.5722 N.am      7 UNK        -0.4243 
     45 CA         23.2733  -31.4495  -40.4280 C.3       7 UNK         0.0196 
     46 CB         23.6143  -32.1212  -41.7692 C.3       7 UNK        -0.2007 
     47 C          21.8595  -31.8182  -39.9672 C.2       7 UNK         0.5020 
     48 O          20.8994  -31.1655  -40.3807 O.2       7 UNK        -0.5147 
     49 N          21.7538  -32.8476  -39.1199 N.am      8 UNK        -0.4734 
     50 CA         20.4878  -33.2874  -38.5214 C.3       8 UNK         0.0238 
     51 CB         20.7698  -33.8244  -37.1075 C.3       8 UNK        -0.1912 
     52 C          19.7444  -34.3473  -39.3531 C.2       8 UNK         0.5038 
     53 O          18.5663  -34.5856  -39.0856 O.2       8 UNK        -0.5046 
     54 N          20.4370  -34.9784  -40.3131 N.am      9 UNK        -0.4200 
     55 CA         19.9562  -36.1103  -41.1308 C.3       9 UNK         0.0839 
     56 C          19.7013  -37.4234  -40.3251 C.2       9 UNK         0.5513 
     57 N          20.2586  -37.5840  -39.1305 N.am      9 UNK        -0.7519 
     58 O          19.0172  -38.3277  -40.7979 O.2       9 UNK        -0.4960 
     59 C59        18.7669  -35.7386  -42.0657 C.3       10 UNK        -0.0876 
     60 S60        19.2123  -34.4769  -43.3036 S.3       10 UNK        -0.2414 
     61 C61        18.3327  -33.0179  -42.6693 C.3       10 UNK         0.0169 
     62 H62        17.3931  -30.2277  -41.0770 H         1 UNK         0.0903 
     63 H63        18.9459  -29.5037  -41.5111 H         1 UNK         0.0903 
     64 H64        18.2200  -29.1465  -39.9502 H         1 UNK         0.0903 
     65 H65        18.1653  -28.4365  -43.3981 H         1 UNK         0.3096 
     66 H66        16.0612  -26.3640  -43.1226 H         1 UNK         0.1121 
     67 H67        15.9855  -26.2813  -45.5403 H         1 UNK         0.0849 
     68 H68        17.4035  -27.2704  -45.7149 H         1 UNK         0.0849 
     69 H69        15.7893  -30.6160  -46.3733 H         1 UNK         0.0865 
     70 H70        16.7828  -29.3378  -47.0170 H         1 UNK         0.0865 
     71 H71        16.4767  -31.8857  -44.3389 H         1 UNK         0.1346 
     72 H72        20.5424  -31.4925  -43.0345 H         1 UNK         0.1412 
     73 H73        18.9867  -28.8286  -46.0046 H         1 UNK         0.1426 
     74 H74        21.4227  -28.9398  -45.5328 H         1 UNK         0.0716 
     75 H75        22.0371  -29.9294  -44.2203 H         1 UNK         0.0716 
     76 H76        23.2591  -27.5494  -44.2159 H         1 UNK         0.0695 
     77 H77        22.8582  -26.4837  -42.8939 H         1 UNK         0.0695 
     78 H78        22.0402  -26.1773  -45.8164 H         1 UNK         0.0983 
     79 H79        20.5207  -25.2504  -43.6117 H         1 UNK         0.3095 
     80 H80        19.1509  -23.1388  -43.8224 H         1 UNK         0.0454 
     81 H81        19.0576  -21.7119  -45.8548 H         1 UNK         0.0851 
     82 H82        18.1655  -22.9563  -46.7182 H         1 UNK         0.0851 
     83 H83        17.4441  -22.1523  -45.3244 H         1 UNK         0.0851 
     84 H84        17.3929  -24.8721  -45.4042 H         1 UNK         0.2976 
     85 H85        22.6772  -23.6722  -43.4816 H         1 UNK         0.3116 
     86 H86        24.3022  -22.2731  -42.9606 H         1 UNK         0.0646 
     87 H87        26.2089  -21.7260  -44.4036 H         1 UNK         0.0847 
     88 H88        24.7394  -21.7687  -45.3638 H         1 UNK         0.0847 
     89 H89        25.8932  -23.0972  -45.4485 H         1 UNK         0.0847 
     90 H90        25.8296  -25.2395  -44.2473 H         1 UNK         0.3040 
     91 H91        27.3474  -25.6927  -41.7073 H         1 UNK         0.1015 
     92 H92        28.6627  -25.9353  -43.7924 H         1 UNK         0.0786 
     93 H93        27.4840  -27.0675  -44.4504 H         1 UNK         0.0786 
     94 H94        28.4395  -27.5076  -43.0407 H         1 UNK         0.0786 
     95 H95        25.5425  -26.1383  -40.4205 H         1 UNK         0.3172 
     96 H96        23.2506  -27.5527  -41.0226 H         1 UNK         0.0595 
     97 H97        22.9494  -27.6742  -38.5475 H         1 UNK         0.0839 
     98 H98        23.5049  -26.0882  -39.0512 H         1 UNK         0.0839 
     99 H99        24.6329  -27.2275  -38.3132 H         1 UNK         0.0839 
    100 H100       22.4359  -29.5781  -40.8059 H         1 UNK         0.2998 
    101 H101       23.9874  -31.7704  -39.6662 H         1 UNK         0.0822 
    102 H102       23.5706  -33.2078  -41.6870 H         1 UNK         0.0787 
    103 H103       22.9218  -31.8233  -42.5571 H         1 UNK         0.0787 
    104 H104       24.6211  -31.8600  -42.0957 H         1 UNK         0.0787 
    105 H105       22.5912  -33.3306  -38.8243 H         1 UNK         0.3055 
    106 H106       19.8152  -32.4311  -38.4269 H         1 UNK         0.1106 
    107 H107       21.4386  -34.6857  -37.1248 H         1 UNK         0.0828 
    108 H108       21.2233  -33.0597  -36.4766 H         1 UNK         0.0828 
    109 H109       19.8475  -34.1387  -36.6164 H         1 UNK         0.0828 
    110 H110       21.3978  -34.7086  -40.4598 H         1 UNK         0.2931 
    111 H111       20.7965  -36.3636  -41.7784 H         1 UNK         0.0412 
    112 H112       20.0975  -38.4401  -38.6228 H         1 UNK         0.3472 
    113 H113       20.8392  -36.8635  -38.7335 H         1 UNK         0.3472 
    114 H114       18.4371  -36.6127  -42.6297 H         1 UNK         0.0970 
    115 H115       17.8982  -35.4182  -41.4893 H         1 UNK         0.0970 
    116 H116       17.2763  -33.2574  -42.5389 H         1 UNK         0.0612 
    117 H117       18.7205  -32.7562  -41.6839 H         1 UNK         0.0612 
@<TRIPOS>BOND
     1    1    2 1    
     2    1   62 1    
     3    1   63 1    
     4    1   64 1    
     5    2    3 2    
     6    2    4 am   BACKBONE|DICT|INTERRES
     7    4    5 1    
     8    4   65 1    
     9    5    6 1    
    10    5   25 1    
    11    5   66 1    
    12    6    7 1    
    13    6   67 1    
    14    6   68 1    
    15    7    8 1    
    16    8    9 1    
    17    8   69 1    
    18    8   70 1    
    19    9   10 ar   
    20    9   14 ar   
    21   10   11 ar   
    22   10   71 1    
    23   11   12 ar   
    24   11   61 1    
    25   12   13 ar   
    26   12   72 1    
    27   13   14 ar   
    28   13   15 1    
    29   14   73 1    
    30   15   16 1    
    31   15   74 1    
    32   15   75 1    
    33   16   17 1    
    34   17   18 1    
    35   17   76 1    
    36   17   77 1    
    37   18   19 1    
    38   18   27 1    
    39   18   78 1    
    40   19   20 am   BACKBONE|DICT|INTERRES
    41   19   79 1    
    42   20   21 2    
    43   20   22 1    
    44   22   23 1    
    45   22   24 1    
    46   22   80 1    
    47   23   81 1    
    48   23   82 1    
    49   23   83 1    
    50   24   25 am   BACKBONE|DICT|INTERRES
    51   24   84 1    
    52   25   26 2    
    53   27   28 2    
    54   27   29 am   BACKBONE|DICT|INTERRES
    55   29   30 1    
    56   29   85 1    
    57   30   31 1    
    58   30   32 1    
    59   30   86 1    
    60   31   87 1    
    61   31   88 1    
    62   31   89 1    
    63   32   33 2    
    64   32   34 am   BACKBONE|DICT|INTERRES
    65   34   35 1    
    66   34   90 1    
    67   35   36 1    
    68   35   37 1    
    69   35   91 1    
    70   36   92 1    
    71   36   93 1    
    72   36   94 1    
    73   37   38 2    
    74   37   39 am   BACKBONE|DICT|INTERRES
    75   39   40 1    
    76   39   95 1    
    77   40   41 1    
    78   40   42 1    
    79   40   96 1    
    80   41   97 1    
    81   41   98 1    
    82   41   99 1    
    83   42   43 2    
    84   42   44 am   BACKBONE|DICT|INTERRES
    85   44   45 1    
    86   44  100 1    
    87   45   46 1    
    88   45   47 1    
    89   45  101 1    
    90   46  102 1    
    91   46  103 1    
    92   46  104 1    
    93   47   48 2    
    94   47   49 am   BACKBONE|DICT|INTERRES
    95   49   50 1    
    96   49  105 1    
    97   50   51 1    
    98   50   52 1    
    99   50  106 1    
   100   51  107 1    
   101   51  108 1    
   102   51  109 1    
   103   52   53 2    
   104   52   54 am   BACKBONE|DICT|INTERRES
   105   54   55 1    
   106   54  110 1    
   107   55   56 1    
   108   55   59 1    
   109   55  111 1    
   110   56   57 am   BACKBONE|DICT|INTERRES
   111   56   58 2    
   112   57  112 1    
   113   57  113 1    
   114   59   60 1    
   115   59  114 1    
   116   59  115 1    
   117   60   61 1    
   118   61  116 1    
   119   61  117 1    
@<TRIPOS>SUBSTRUCTURE
     1 UNK         1 GROUP             0       ****    0 ROOT    
