@<TRIPOS>MOLECULE
3R8
117   119    1
SMALL
USER_CHARGES


@<TRIPOS>ATOM
      1 CA         21.8155  -23.1395  -40.4862 C.3       0 UNK        -0.2013 
      2 C          21.0423  -24.2152  -41.2323 C.2       0 UNK         0.4866 
      3 O          21.6338  -25.2097  -41.6435 O.2       0 UNK        -0.5176 
      4 N          19.7276  -24.0301  -41.3992 N.am      1 UNK        -0.4884 
      5 CA         18.8056  -24.9133  -42.1279 C.3       1 UNK         0.0853 
      6 C6         18.7389  -26.3640  -41.5345 C.3       10 UNK        -0.0849 
      7 S7         19.4831  -27.7422  -42.4883 S.3       10 UNK        -0.2776 
      8 C8         18.0019  -28.7485  -42.8289 C.3       10 UNK         0.0316 
      9 C9         18.3382  -29.9751  -43.6613 C.ar      10 UNK        -0.0863 
     10 C10        18.3370  -31.2478  -43.0848 C.ar      10 UNK        -0.1009 
     11 C11        18.6409  -32.3740  -43.8555 C.ar      10 UNK        -0.0712 
     12 C12        18.9661  -32.2153  -45.2056 C.ar      10 UNK        -0.0894 
     13 C13        18.9655  -30.9507  -45.8020 C.ar      10 UNK        -0.0745 
     14 C14        18.6288  -29.8370  -45.0207 C.ar      10 UNK        -0.0972 
     15 C15        19.3202  -30.8560  -47.2892 C.3       10 UNK         0.0209 
     16 S16        19.5205  -29.1742  -47.9754 S.3       10 UNK        -0.2568 
     17 C17        21.0252  -28.6069  -47.1114 C.3       10 UNK        -0.0983 
     18 CA         21.0734  -27.0644  -46.9444 C.3       3 UNK         0.0876 
     19 N          19.8951  -26.5468  -46.2360 N.am      3 UNK        -0.4424 
     20 C          19.0615  -25.6212  -46.7254 C.2       2 UNK         0.4918 
     21 O          19.2086  -25.0703  -47.8170 O.2       2 UNK        -0.4875 
     22 CA         17.8463  -25.2349  -45.8600 C.3       2 UNK         0.0481 
     23 CB         16.6170  -26.0500  -46.2944 C.3       2 UNK        -0.1831 
     24 N          18.0145  -25.3656  -44.4063 N.am      2 UNK        -0.4498 
     25 C          18.9759  -24.7958  -43.6643 C.2       1 UNK         0.5027 
     26 O          19.9303  -24.1823  -44.1510 O.2       1 UNK        -0.4969 
     27 C          22.3855  -26.6256  -46.2605 C.2       3 UNK         0.5005 
     28 O          23.4449  -27.1284  -46.6391 O.2       3 UNK        -0.5279 
     29 N          22.3107  -25.7290  -45.2598 N.am      4 UNK        -0.4463 
     30 CA         23.4136  -25.2989  -44.3857 C.3       4 UNK         0.0283 
     31 CB         24.4922  -24.5298  -45.1789 C.3       4 UNK        -0.1875 
     32 C          23.9986  -26.4557  -43.5421 C.2       4 UNK         0.4949 
     33 O          25.1858  -26.4379  -43.2127 O.2       4 UNK        -0.5039 
     34 N          23.1579  -27.4505  -43.2235 N.am      5 UNK        -0.4663 
     35 CA         23.5309  -28.6751  -42.5131 C.3       5 UNK         0.0242 
     36 CB         22.7256  -29.8509  -43.0978 C.3       5 UNK        -0.1982 
     37 C          23.3168  -28.5847  -40.9936 C.2       5 UNK         0.5017 
     38 O          23.7101  -29.5148  -40.2904 O.2       5 UNK        -0.5012 
     39 N          22.6627  -27.5168  -40.5081 N.am      6 UNK        -0.4439 
     40 CA         22.2957  -27.2500  -39.1081 C.3       6 UNK         0.0297 
     41 CB         23.5571  -26.9582  -38.2690 C.3       6 UNK        -0.2006 
     42 C          21.4067  -28.3424  -38.4783 C.2       6 UNK         0.4892 
     43 O          21.4327  -28.5228  -37.2600 O.2       6 UNK        -0.5089 
     44 N          20.6679  -29.0715  -39.3303 N.am      7 UNK        -0.4243 
     45 CA         19.9036  -30.2907  -39.0379 C.3       7 UNK         0.0196 
     46 CB         18.7051  -29.9832  -38.1164 C.3       7 UNK        -0.2007 
     47 C          20.7667  -31.4668  -38.5235 C.2       7 UNK         0.5020 
     48 O          20.2206  -32.4142  -37.9582 O.2       7 UNK        -0.5147 
     49 N          22.0866  -31.4173  -38.7568 N.am      8 UNK        -0.4734 
     50 CA         23.0615  -32.4596  -38.4180 C.3       8 UNK         0.0238 
     51 CB         24.2766  -31.8025  -37.7373 C.3       8 UNK        -0.1912 
     52 C          23.4601  -33.2679  -39.6682 C.2       8 UNK         0.5038 
     53 O          24.5797  -33.7774  -39.7459 O.2       8 UNK        -0.5046 
     54 N          22.5327  -33.3540  -40.6275 N.am      9 UNK        -0.4200 
     55 CA         22.5996  -34.1343  -41.8672 C.3       9 UNK         0.0839 
     56 C          22.7840  -35.6624  -41.6408 C.2       9 UNK         0.5513 
     57 N          23.3701  -36.3597  -42.6048 N.am      9 UNK        -0.7519 
     58 O          22.3775  -36.2252  -40.6257 O.2       9 UNK        -0.4960 
     59 C59        21.3690  -33.8255  -42.7639 C.3       10 UNK        -0.0876 
     60 S60        19.7723  -33.9824  -41.8843 S.3       10 UNK        -0.2414 
     61 C61        18.5847  -33.7668  -43.2427 C.3       10 UNK         0.0169 
     62 H62        21.1686  -22.3304  -40.1480 H         1 UNK         0.0903 
     63 H63        22.3069  -23.5701  -39.6142 H         1 UNK         0.0903 
     64 H64        22.5819  -22.7152  -41.1342 H         1 UNK         0.0903 
     65 H65        19.3131  -23.1735  -41.0584 H         1 UNK         0.3096 
     66 H66        17.8308  -24.4604  -41.9366 H         1 UNK         0.1121 
     67 H67        19.1839  -26.3861  -40.5385 H         1 UNK         0.0849 
     68 H68        17.6912  -26.6091  -41.3549 H         1 UNK         0.0849 
     69 H69        17.5440  -29.0437  -41.8831 H         1 UNK         0.0865 
     70 H70        17.2599  -28.1483  -43.3568 H         1 UNK         0.0865 
     71 H71        18.0912  -31.3687  -42.0387 H         1 UNK         0.1346 
     72 H72        19.2069  -33.0846  -45.8026 H         1 UNK         0.1412 
     73 H73        18.5961  -28.8517  -45.4577 H         1 UNK         0.1426 
     74 H74        18.5383  -31.3595  -47.8593 H         1 UNK         0.0716 
     75 H75        20.2415  -31.4109  -47.4740 H         1 UNK         0.0716 
     76 H76        21.0988  -29.0954  -46.1384 H         1 UNK         0.0695 
     77 H77        21.8804  -28.9597  -47.6909 H         1 UNK         0.0695 
     78 H78        21.1198  -26.6369  -47.9482 H         1 UNK         0.0983 
     79 H79        19.7080  -26.9322  -45.3220 H         1 UNK         0.3095 
     80 H80        17.6387  -24.1816  -46.0585 H         1 UNK         0.0454 
     81 H81        15.7123  -25.7080  -45.7917 H         1 UNK         0.0851 
     82 H82        16.4423  -25.9531  -47.3670 H         1 UNK         0.0851 
     83 H83        16.7407  -27.1126  -46.0817 H         1 UNK         0.0851 
     84 H84        17.2723  -25.8501  -43.9235 H         1 UNK         0.2976 
     85 H85        21.4051  -25.3295  -45.0306 H         1 UNK         0.3116 
     86 H86        22.9801  -24.5888  -43.6830 H         1 UNK         0.0646 
     87 H87        25.2173  -24.0719  -44.5052 H         1 UNK         0.0847 
     88 H88        24.0530  -23.7281  -45.7723 H         1 UNK         0.0847 
     89 H89        25.0471  -25.1828  -45.8527 H         1 UNK         0.0847 
     90 H90        22.1860  -27.3514  -43.4799 H         1 UNK         0.3040 
     91 H91        24.5917  -28.8801  -42.6737 H         1 UNK         0.1015 
     92 H92        22.8974  -29.9546  -44.1694 H         1 UNK         0.0786 
     93 H93        21.6530  -29.7325  -42.9423 H         1 UNK         0.0786 
     94 H94        23.0179  -30.7936  -42.6328 H         1 UNK         0.0786 
     95 H95        22.3604  -26.7944  -41.1637 H         1 UNK         0.3172 
     96 H96        21.6897  -26.3438  -39.1184 H         1 UNK         0.0595 
     97 H97        24.1620  -26.1737  -38.7236 H         1 UNK         0.0839 
     98 H98        24.1829  -27.8447  -38.1595 H         1 UNK         0.0839 
     99 H99        23.2931  -26.6208  -37.2660 H         1 UNK         0.0839 
    100 H100       20.7122  -28.8117  -40.3070 H         1 UNK         0.2998 
    101 H101       19.5003  -30.6216  -39.9961 H         1 UNK         0.0822 
    102 H102       19.0266  -29.7112  -37.1108 H         1 UNK         0.0787 
    103 H103       18.1028  -29.1646  -38.5102 H         1 UNK         0.0787 
    104 H104       18.0496  -30.8499  -38.0236 H         1 UNK         0.0787 
    105 H105       22.4707  -30.6180  -39.2552 H         1 UNK         0.3055 
    106 H106       22.6235  -33.1685  -37.7120 H         1 UNK         0.1106 
    107 H107       23.9750  -31.2165  -36.8689 H         1 UNK         0.0828 
    108 H108       24.9861  -32.5542  -37.3890 H         1 UNK         0.0828 
    109 H109       24.8111  -31.1398  -38.4187 H         1 UNK         0.0828 
    110 H110       21.6349  -32.9338  -40.4409 H         1 UNK         0.2931 
    111 H111       23.4885  -33.7842  -42.3958 H         1 UNK         0.0412 
    112 H112       23.4900  -37.3540  -42.4864 H         1 UNK         0.3472 
    113 H113       23.7047  -35.9125  -43.4445 H         1 UNK         0.3472 
    114 H114       21.3595  -34.4628  -43.6501 H         1 UNK         0.0970 
    115 H115       21.4440  -32.8036  -43.1393 H         1 UNK         0.0970 
    116 H116       17.5791  -33.9417  -42.8582 H         1 UNK         0.0612 
    117 H117       18.7634  -34.5363  -43.9954 H         1 UNK         0.0612 
@<TRIPOS>BOND
     1    1    2 1    
     2    1   62 1    
     3    1   63 1    
     4    1   64 1    
     5    2    3 2    
     6    2    4 am   BACKBONE|DICT|INTERRES
     7    4    5 1    
     8    4   65 1    
     9    5    6 1    
    10    5   25 1    
    11    5   66 1    
    12    6    7 1    
    13    6   67 1    
    14    6   68 1    
    15    7    8 1    
    16    8    9 1    
    17    8   69 1    
    18    8   70 1    
    19    9   10 ar   
    20    9   14 ar   
    21   10   11 ar   
    22   10   71 1    
    23   11   12 ar   
    24   11   61 1    
    25   12   13 ar   
    26   12   72 1    
    27   13   14 ar   
    28   13   15 1    
    29   14   73 1    
    30   15   16 1    
    31   15   74 1    
    32   15   75 1    
    33   16   17 1    
    34   17   18 1    
    35   17   76 1    
    36   17   77 1    
    37   18   19 1    
    38   18   27 1    
    39   18   78 1    
    40   19   20 am   BACKBONE|DICT|INTERRES
    41   19   79 1    
    42   20   21 2    
    43   20   22 1    
    44   22   23 1    
    45   22   24 1    
    46   22   80 1    
    47   23   81 1    
    48   23   82 1    
    49   23   83 1    
    50   24   25 am   BACKBONE|DICT|INTERRES
    51   24   84 1    
    52   25   26 2    
    53   27   28 2    
    54   27   29 am   BACKBONE|DICT|INTERRES
    55   29   30 1    
    56   29   85 1    
    57   30   31 1    
    58   30   32 1    
    59   30   86 1    
    60   31   87 1    
    61   31   88 1    
    62   31   89 1    
    63   32   33 2    
    64   32   34 am   BACKBONE|DICT|INTERRES
    65   34   35 1    
    66   34   90 1    
    67   35   36 1    
    68   35   37 1    
    69   35   91 1    
    70   36   92 1    
    71   36   93 1    
    72   36   94 1    
    73   37   38 2    
    74   37   39 am   BACKBONE|DICT|INTERRES
    75   39   40 1    
    76   39   95 1    
    77   40   41 1    
    78   40   42 1    
    79   40   96 1    
    80   41   97 1    
    81   41   98 1    
    82   41   99 1    
    83   42   43 2    
    84   42   44 am   BACKBONE|DICT|INTERRES
    85   44   45 1    
    86   44  100 1    
    87   45   46 1    
    88   45   47 1    
    89   45  101 1    
    90   46  102 1    
    91   46  103 1    
    92   46  104 1    
    93   47   48 2    
    94   47   49 am   BACKBONE|DICT|INTERRES
    95   49   50 1    
    96   49  105 1    
    97   50   51 1    
    98   50   52 1    
    99   50  106 1    
   100   51  107 1    
   101   51  108 1    
   102   51  109 1    
   103   52   53 2    
   104   52   54 am   BACKBONE|DICT|INTERRES
   105   54   55 1    
   106   54  110 1    
   107   55   56 1    
   108   55   59 1    
   109   55  111 1    
   110   56   57 am   BACKBONE|DICT|INTERRES
   111   56   58 2    
   112   57  112 1    
   113   57  113 1    
   114   59   60 1    
   115   59  114 1    
   116   59  115 1    
   117   60   61 1    
   118   61  116 1    
   119   61  117 1    
@<TRIPOS>SUBSTRUCTURE
     1 UNK         1 GROUP             0       ****    0 ROOT    
