@<TRIPOS>MOLECULE
3R8
117   119    1
SMALL
USER_CHARGES


@<TRIPOS>ATOM
      1 CA         18.2973  -29.7359  -41.3431 C.3       0 UNK        -0.2013 
      2 C          18.1160  -28.2654  -41.6827 C.2       0 UNK         0.4866 
      3 O          18.6466  -27.4044  -40.9814 O.2       0 UNK        -0.5176 
      4 N          17.3769  -27.9623  -42.7583 N.am      1 UNK        -0.4884 
      5 CA         17.0195  -26.6116  -43.2138 C.3       1 UNK         0.0853 
      6 C6         15.6600  -26.5980  -43.9722 C.3       10 UNK        -0.0849 
      7 S7         15.6236  -27.3379  -45.6465 S.3       10 UNK        -0.2776 
      8 C8         15.0124  -29.0365  -45.3568 C.3       10 UNK         0.0316 
      9 C9         16.0811  -30.0411  -44.9234 C.ar      10 UNK        -0.0863 
     10 C10        15.6892  -31.1968  -44.2418 C.ar      10 UNK        -0.1009 
     11 C11        16.6358  -32.1428  -43.8387 C.ar      10 UNK        -0.0712 
     12 C12        17.9899  -31.9254  -44.1119 C.ar      10 UNK        -0.0894 
     13 C13        18.4026  -30.7755  -44.7909 C.ar      10 UNK        -0.0745 
     14 C14        17.4391  -29.8521  -45.2093 C.ar      10 UNK        -0.0972 
     15 C15        19.8929  -30.5121  -44.9905 C.3       10 UNK         0.0209 
     16 S16        20.2957  -29.6124  -46.5268 S.3       10 UNK        -0.2568 
     17 C17        22.0184  -29.1203  -46.1999 C.3       10 UNK        -0.0983 
     18 CA         22.2109  -27.5824  -46.1393 C.3       3 UNK         0.0876 
     19 N          21.4006  -26.9502  -45.0819 N.am      3 UNK        -0.4424 
     20 C          21.2247  -25.6269  -44.9490 C.2       2 UNK         0.4918 
     21 O          21.5957  -24.8051  -45.7887 O.2       2 UNK        -0.4875 
     22 CA         20.5889  -25.1508  -43.6277 C.3       2 UNK         0.0481 
     23 CB         20.3770  -23.6224  -43.5761 C.3       2 UNK        -0.1831 
     24 N          19.3591  -25.8640  -43.2670 N.am      2 UNK        -0.4498 
     25 C          18.1855  -25.8649  -43.9160 C.2       1 UNK         0.5027 
     26 O          18.0058  -25.2855  -44.9879 O.2       1 UNK        -0.4969 
     27 C          23.7200  -27.2665  -45.9948 C.2       3 UNK         0.5005 
     28 O          24.4599  -27.3562  -46.9758 O.2       3 UNK        -0.5279 
     29 N          24.1457  -26.9221  -44.7749 N.am      4 UNK        -0.4463 
     30 CA         25.4992  -26.5859  -44.3574 C.3       4 UNK         0.0283 
     31 CB         26.3087  -27.8784  -44.1332 C.3       4 UNK        -0.1875 
     32 C          25.3875  -25.7629  -43.0660 C.2       4 UNK         0.4949 
     33 O          24.2872  -25.6196  -42.5241 O.2       4 UNK        -0.5039 
     34 N          26.5280  -25.2645  -42.5717 N.am      5 UNK        -0.4663 
     35 CA         26.6296  -24.4875  -41.3279 C.3       5 UNK         0.0242 
     36 CB         28.0464  -23.9007  -41.2165 C.3       5 UNK        -0.1982 
     37 C          26.2749  -25.2797  -40.0529 C.2       5 UNK         0.5017 
     38 O          25.9125  -24.6677  -39.0477 O.2       5 UNK        -0.5012 
     39 N          26.3755  -26.6126  -40.1205 N.am      6 UNK        -0.4439 
     40 CA         25.9983  -27.5555  -39.0695 C.3       6 UNK         0.0297 
     41 CB         27.2685  -28.0975  -38.3861 C.3       6 UNK        -0.2006 
     42 C          25.1195  -28.6585  -39.6805 C.2       6 UNK         0.4892 
     43 O          25.4465  -29.8420  -39.5748 O.2       6 UNK        -0.5089 
     44 N          24.0373  -28.2409  -40.3517 N.am      7 UNK        -0.4243 
     45 CA         23.0517  -29.1200  -40.9847 C.3       7 UNK         0.0196 
     46 CB         22.0979  -28.2699  -41.8371 C.3       7 UNK        -0.2007 
     47 C          22.2448  -29.9415  -39.9654 C.2       7 UNK         0.5020 
     48 O          21.9680  -29.4627  -38.8634 O.2       7 UNK        -0.5147 
     49 N          21.8393  -31.1432  -40.3825 N.am      8 UNK        -0.4734 
     50 CA         20.9876  -32.0701  -39.6437 C.3       8 UNK         0.0238 
     51 CB         21.8049  -32.7926  -38.5548 C.3       8 UNK        -0.1912 
     52 C          20.3949  -33.0716  -40.6427 C.2       8 UNK         0.5038 
     53 O          20.9338  -33.2209  -41.7437 O.2       8 UNK        -0.5046 
     54 N          19.3134  -33.7447  -40.2369 N.am      9 UNK        -0.4200 
     55 CA         18.6428  -34.7953  -41.0233 C.3       9 UNK         0.0839 
     56 C          19.2251  -36.2216  -40.8015 C.2       9 UNK         0.5513 
     57 N          20.1986  -36.4183  -39.9201 N.am      9 UNK        -0.7519 
     58 O          18.7922  -37.1690  -41.4524 O.2       9 UNK        -0.4960 
     59 C59        17.1037  -34.7731  -40.8227 C.3       10 UNK        -0.0876 
     60 S60        16.3696  -33.1724  -41.2976 S.3       10 UNK        -0.2414 
     61 C61        16.2005  -33.3948  -43.0957 C.3       10 UNK         0.0169 
     62 H62        18.3458  -29.8718  -40.2631 H         1 UNK         0.0903 
     63 H63        17.4650  -30.3314  -41.7151 H         1 UNK         0.0903 
     64 H64        19.2194  -30.1193  -41.7769 H         1 UNK         0.0903 
     65 H65        17.0158  -28.7134  -43.3339 H         1 UNK         0.3096 
     66 H66        16.8415  -26.0248  -42.3091 H         1 UNK         0.1121 
     67 H67        14.8948  -27.0753  -43.3581 H         1 UNK         0.0849 
     68 H68        15.3264  -25.5643  -44.0792 H         1 UNK         0.0849 
     69 H69        14.2012  -29.0058  -44.6277 H         1 UNK         0.0865 
     70 H70        14.5717  -29.3994  -46.2862 H         1 UNK         0.0865 
     71 H71        14.6430  -31.3629  -44.0222 H         1 UNK         0.1346 
     72 H72        18.7246  -32.6431  -43.7718 H         1 UNK         0.1412 
     73 H73        17.7581  -28.9646  -45.7361 H         1 UNK         0.1426 
     74 H74        20.4492  -31.4510  -44.9840 H         1 UNK         0.0716 
     75 H75        20.2437  -29.9340  -44.1367 H         1 UNK         0.0716 
     76 H76        22.6256  -29.5465  -47.0012 H         1 UNK         0.0695 
     77 H77        22.3698  -29.5893  -45.2785 H         1 UNK         0.0695 
     78 H78        21.8913  -27.1619  -47.0955 H         1 UNK         0.0983 
     79 H79        21.0066  -27.5642  -44.3868 H         1 UNK         0.3095 
     80 H80        21.3110  -25.3949  -42.8473 H         1 UNK         0.0454 
     81 H81        21.3215  -23.0938  -43.7107 H         1 UNK         0.0851 
     82 H82        19.9682  -23.3101  -42.6154 H         1 UNK         0.0851 
     83 H83        19.6995  -23.2779  -44.3580 H         1 UNK         0.0851 
     84 H84        19.3742  -26.3636  -42.3801 H         1 UNK         0.2976 
     85 H85        23.4656  -26.7799  -44.0393 H         1 UNK         0.3116 
     86 H86        25.9740  -25.9702  -45.1239 H         1 UNK         0.0646 
     87 H87        27.3367  -27.6607  -43.8423 H         1 UNK         0.0847 
     88 H88        26.3575  -28.4783  -45.0421 H         1 UNK         0.0847 
     89 H89        25.8691  -28.4980  -43.3502 H         1 UNK         0.0847 
     90 H90        27.3882  -25.4196  -43.0790 H         1 UNK         0.3040 
     91 H91        25.9199  -23.6596  -41.3945 H         1 UNK         0.1015 
     92 H92        28.1474  -23.2913  -40.3171 H         1 UNK         0.0786 
     93 H93        28.2790  -23.2588  -42.0665 H         1 UNK         0.0786 
     94 H94        28.8051  -24.6828  -41.1665 H         1 UNK         0.0786 
     95 H95        26.6647  -27.0190  -40.9990 H         1 UNK         0.3172 
     96 H96        25.3891  -27.0576  -38.3121 H         1 UNK         0.0595 
     97 H97        27.9134  -28.6237  -39.0909 H         1 UNK         0.0839 
     98 H98        27.0152  -28.7969  -37.5883 H         1 UNK         0.0839 
     99 H99        27.8500  -27.2921  -37.9373 H         1 UNK         0.0839 
    100 H100       23.8520  -27.2485  -40.3949 H         1 UNK         0.2998 
    101 H101       23.5911  -29.8071  -41.6407 H         1 UNK         0.0822 
    102 H102       22.6413  -27.7273  -42.6053 H         1 UNK         0.0787 
    103 H103       21.5554  -27.5436  -41.2298 H         1 UNK         0.0787 
    104 H104       21.3584  -28.8937  -42.3373 H         1 UNK         0.0787 
    105 H105       22.0675  -31.4661  -41.3161 H         1 UNK         0.3055 
    106 H106       20.1696  -31.5108  -39.1838 H         1 UNK         0.1106 
    107 H107       22.6294  -33.3634  -38.9840 H         1 UNK         0.0828 
    108 H108       22.2268  -32.0875  -37.8384 H         1 UNK         0.0828 
    109 H109       21.1836  -33.4875  -37.9888 H         1 UNK         0.0828 
    110 H110       18.9334  -33.5705  -39.3180 H         1 UNK         0.2931 
    111 H111       18.8205  -34.5883  -42.0801 H         1 UNK         0.0412 
    112 H112       20.5711  -35.6507  -39.3857 H         1 UNK         0.3472 
    113 H113       20.5677  -37.3480  -39.7929 H         1 UNK         0.3472 
    114 H114       16.6185  -35.5627  -41.4001 H         1 UNK         0.0970 
    115 H115       16.8542  -34.9703  -39.7788 H         1 UNK         0.0970 
    116 H116       15.1638  -33.6422  -43.3287 H         1 UNK         0.0612 
    117 H117       16.7995  -34.2400  -43.4373 H         1 UNK         0.0612 
@<TRIPOS>BOND
     1    1    2 1    
     2    1   62 1    
     3    1   63 1    
     4    1   64 1    
     5    2    3 2    
     6    2    4 am   BACKBONE|DICT|INTERRES
     7    4    5 1    
     8    4   65 1    
     9    5    6 1    
    10    5   25 1    
    11    5   66 1    
    12    6    7 1    
    13    6   67 1    
    14    6   68 1    
    15    7    8 1    
    16    8    9 1    
    17    8   69 1    
    18    8   70 1    
    19    9   10 ar   
    20    9   14 ar   
    21   10   11 ar   
    22   10   71 1    
    23   11   12 ar   
    24   11   61 1    
    25   12   13 ar   
    26   12   72 1    
    27   13   14 ar   
    28   13   15 1    
    29   14   73 1    
    30   15   16 1    
    31   15   74 1    
    32   15   75 1    
    33   16   17 1    
    34   17   18 1    
    35   17   76 1    
    36   17   77 1    
    37   18   19 1    
    38   18   27 1    
    39   18   78 1    
    40   19   20 am   BACKBONE|DICT|INTERRES
    41   19   79 1    
    42   20   21 2    
    43   20   22 1    
    44   22   23 1    
    45   22   24 1    
    46   22   80 1    
    47   23   81 1    
    48   23   82 1    
    49   23   83 1    
    50   24   25 am   BACKBONE|DICT|INTERRES
    51   24   84 1    
    52   25   26 2    
    53   27   28 2    
    54   27   29 am   BACKBONE|DICT|INTERRES
    55   29   30 1    
    56   29   85 1    
    57   30   31 1    
    58   30   32 1    
    59   30   86 1    
    60   31   87 1    
    61   31   88 1    
    62   31   89 1    
    63   32   33 2    
    64   32   34 am   BACKBONE|DICT|INTERRES
    65   34   35 1    
    66   34   90 1    
    67   35   36 1    
    68   35   37 1    
    69   35   91 1    
    70   36   92 1    
    71   36   93 1    
    72   36   94 1    
    73   37   38 2    
    74   37   39 am   BACKBONE|DICT|INTERRES
    75   39   40 1    
    76   39   95 1    
    77   40   41 1    
    78   40   42 1    
    79   40   96 1    
    80   41   97 1    
    81   41   98 1    
    82   41   99 1    
    83   42   43 2    
    84   42   44 am   BACKBONE|DICT|INTERRES
    85   44   45 1    
    86   44  100 1    
    87   45   46 1    
    88   45   47 1    
    89   45  101 1    
    90   46  102 1    
    91   46  103 1    
    92   46  104 1    
    93   47   48 2    
    94   47   49 am   BACKBONE|DICT|INTERRES
    95   49   50 1    
    96   49  105 1    
    97   50   51 1    
    98   50   52 1    
    99   50  106 1    
   100   51  107 1    
   101   51  108 1    
   102   51  109 1    
   103   52   53 2    
   104   52   54 am   BACKBONE|DICT|INTERRES
   105   54   55 1    
   106   54  110 1    
   107   55   56 1    
   108   55   59 1    
   109   55  111 1    
   110   56   57 am   BACKBONE|DICT|INTERRES
   111   56   58 2    
   112   57  112 1    
   113   57  113 1    
   114   59   60 1    
   115   59  114 1    
   116   59  115 1    
   117   60   61 1    
   118   61  116 1    
   119   61  117 1    
@<TRIPOS>SUBSTRUCTURE
     1 UNK         1 GROUP             0       ****    0 ROOT    
