@<TRIPOS>MOLECULE
3R8
117   119    1
SMALL
USER_CHARGES


@<TRIPOS>ATOM
      1 CA         19.9785  -24.0526  -40.3368 C.3       0 UNK        -0.2013 
      2 C          19.1141  -24.0752  -41.5879 C.2       0 UNK         0.4866 
      3 O          18.2540  -23.2092  -41.7535 O.2       0 UNK        -0.5176 
      4 N          19.3356  -25.0625  -42.4596 N.am      1 UNK        -0.4884 
      5 CA         18.6201  -25.2669  -43.7215 C.3       1 UNK         0.0853 
      6 C6         17.9803  -26.6802  -43.7745 C.3       10 UNK        -0.0849 
      7 S7         16.7151  -26.9301  -42.4832 S.3       10 UNK        -0.2776 
      8 C8         15.6737  -28.2243  -43.2357 C.3       10 UNK         0.0316 
      9 C9         16.4733  -29.4730  -43.5844 C.ar      10 UNK        -0.0863 
     10 C10        17.0452  -30.2477  -42.5709 C.ar      10 UNK        -0.1009 
     11 C11        17.8023  -31.3806  -42.8829 C.ar      10 UNK        -0.0712 
     12 C12        17.9735  -31.7457  -44.2209 C.ar      10 UNK        -0.0894 
     13 C13        17.4149  -30.9738  -45.2442 C.ar      10 UNK        -0.0745 
     14 C14        16.6557  -29.8453  -44.9199 C.ar      10 UNK        -0.0972 
     15 C15        17.6625  -31.3426  -46.7008 C.3       10 UNK         0.0209 
     16 S16        18.6644  -30.0920  -47.5723 S.3       10 UNK        -0.2568 
     17 C17        20.1614  -30.0097  -46.5291 C.3       10 UNK        -0.0983 
     18 CA         21.0874  -28.8260  -46.9026 C.3       3 UNK         0.0876 
     19 N          20.3776  -27.5435  -46.9016 N.am      3 UNK        -0.4424 
     20 C          20.8223  -26.4138  -47.4700 C.2       2 UNK         0.4918 
     21 O          21.8927  -26.3212  -48.0709 O.2       2 UNK        -0.4875 
     22 CA         19.9144  -25.1730  -47.3491 C.3       2 UNK         0.0481 
     23 CB         18.9955  -25.0618  -48.5761 C.3       2 UNK        -0.1831 
     24 N          19.1000  -25.1708  -46.1278 N.am      2 UNK        -0.4498 
     25 C          19.6066  -25.0680  -44.8903 C.2       1 UNK         0.5027 
     26 O          20.8033  -24.8604  -44.6725 O.2       1 UNK        -0.4969 
     27 C          22.3187  -28.8043  -45.9745 C.2       3 UNK         0.5005 
     28 O          23.3635  -29.3418  -46.3457 O.2       3 UNK        -0.5279 
     29 N          22.1770  -28.1893  -44.7922 N.am      4 UNK        -0.4463 
     30 CA         23.2062  -28.0713  -43.7641 C.3       4 UNK         0.0283 
     31 CB         23.4260  -29.4220  -43.0573 C.3       4 UNK        -0.1875 
     32 C          22.7776  -27.0065  -42.7508 C.2       4 UNK         0.4949 
     33 O          21.5843  -26.8636  -42.4752 O.2       4 UNK        -0.5039 
     34 N          23.7671  -26.3069  -42.1842 N.am      5 UNK        -0.4663 
     35 CA         23.5853  -25.2471  -41.1854 C.3       5 UNK         0.0242 
     36 CB         24.7987  -24.3030  -41.2468 C.3       5 UNK        -0.1982 
     37 C          23.3723  -25.7699  -39.7494 C.2       5 UNK         0.5017 
     38 O          23.2078  -24.9604  -38.8361 O.2       5 UNK        -0.5012 
     39 N          23.3897  -27.0936  -39.5664 N.am      6 UNK        -0.4439 
     40 CA         23.1834  -27.8003  -38.3073 C.3       6 UNK         0.0297 
     41 CB         24.5474  -28.0705  -37.6459 C.3       6 UNK        -0.2006 
     42 C          22.4372  -29.1072  -38.6028 C.2       6 UNK         0.4892 
     43 O          22.3315  -29.4981  -39.7667 O.2       6 UNK        -0.5089 
     44 N          21.9591  -29.7690  -37.5402 N.am      7 UNK        -0.4243 
     45 CA         21.1807  -31.0147  -37.5892 C.3       7 UNK         0.0196 
     46 CB         20.6196  -31.3062  -36.1873 C.3       7 UNK        -0.2007 
     47 C          21.9389  -32.2433  -38.1308 C.2       7 UNK         0.5020 
     48 O          21.3012  -33.2451  -38.4587 O.2       7 UNK        -0.5147 
     49 N          23.2719  -32.1621  -38.2355 N.am      8 UNK        -0.4734 
     50 CA         24.1342  -33.1602  -38.8740 C.3       8 UNK         0.0238 
     51 CB         25.5675  -32.9949  -38.3344 C.3       8 UNK        -0.1912 
     52 C          24.0608  -33.0493  -40.4115 C.2       8 UNK         0.5038 
     53 O          25.0562  -32.7120  -41.0553 O.2       8 UNK        -0.5046 
     54 N          22.8677  -33.3013  -40.9627 N.am      9 UNK        -0.4200 
     55 CA         22.5369  -33.1563  -42.3899 C.3       9 UNK         0.0839 
     56 C          23.1579  -34.2344  -43.3250 C.2       9 UNK         0.5513 
     57 N          23.7332  -35.3146  -42.8105 N.am      9 UNK        -0.7519 
     58 O          23.1160  -34.0854  -44.5433 O.2       9 UNK        -0.4960 
     59 C59        21.0061  -33.0407  -42.6241 C.3       10 UNK        -0.0876 
     60 S60        20.2064  -31.7729  -41.5802 S.3       10 UNK        -0.2414 
     61 C61        18.4469  -32.1959  -41.7728 C.3       10 UNK         0.0169 
     62 H62        20.4644  -25.0137  -40.1701 H         1 UNK         0.0903 
     63 H63        20.7470  -23.2847  -40.4202 H         1 UNK         0.0903 
     64 H64        19.3692  -23.8321  -39.4607 H         1 UNK         0.0903 
     65 H65        20.1207  -25.6978  -42.3225 H         1 UNK         0.3096 
     66 H66        17.8323  -24.5197  -43.8396 H         1 UNK         0.1121 
     67 H67        18.7413  -27.4553  -43.6593 H         1 UNK         0.0849 
     68 H68        17.5050  -26.8568  -44.7405 H         1 UNK         0.0849 
     69 H69        14.8790  -28.4909  -42.5375 H         1 UNK         0.0865 
     70 H70        15.1791  -27.8173  -44.1191 H         1 UNK         0.0865 
     71 H71        16.9165  -29.9535  -41.5380 H         1 UNK         0.1346 
     72 H72        18.5623  -32.6185  -44.4654 H         1 UNK         0.1412 
     73 H73        16.2285  -29.2464  -45.7129 H         1 UNK         0.1426 
     74 H74        16.7049  -31.4492  -47.2121 H         1 UNK         0.0716 
     75 H75        18.1616  -32.3098  -46.7784 H         1 UNK         0.0716 
     76 H76        20.6939  -30.9583  -46.6231 H         1 UNK         0.0695 
     77 H77        19.8617  -29.9274  -45.4831 H         1 UNK         0.0695 
     78 H78        21.4535  -28.9969  -47.9178 H         1 UNK         0.0983 
     79 H79        19.4640  -27.5428  -46.4759 H         1 UNK         0.3095 
     80 H80        20.5591  -24.2918  -47.3275 H         1 UNK         0.0454 
     81 H81        19.5787  -25.0332  -49.4977 H         1 UNK         0.0851 
     82 H82        18.3992  -24.1498  -48.5455 H         1 UNK         0.0851 
     83 H83        18.3127  -25.9092  -48.6505 H         1 UNK         0.0851 
     84 H84        18.1054  -25.3019  -46.2468 H         1 UNK         0.2976 
     85 H85        21.3067  -27.7275  -44.5619 H         1 UNK         0.3116 
     86 H86        24.1364  -27.7517  -44.2389 H         1 UNK         0.0646 
     87 H87        24.1671  -29.3387  -42.2615 H         1 UNK         0.0847 
     88 H88        22.5040  -29.7879  -42.6025 H         1 UNK         0.0847 
     89 H89        23.7856  -30.1830  -43.7493 H         1 UNK         0.0847 
     90 H90        24.7203  -26.5067  -42.4545 H         1 UNK         0.3040 
     91 H91        22.6968  -24.6707  -41.4516 H         1 UNK         0.1015 
     92 H92        24.6784  -23.4627  -40.5615 H         1 UNK         0.0786 
     93 H93        24.9260  -23.8846  -42.2455 H         1 UNK         0.0786 
     94 H94        25.7227  -24.8149  -40.9751 H         1 UNK         0.0786 
     95 H95        23.4178  -27.6968  -40.3788 H         1 UNK         0.3172 
     96 H96        22.5615  -27.1983  -37.6412 H         1 UNK         0.0595 
     97 H97        25.1833  -28.6954  -38.2745 H         1 UNK         0.0839 
     98 H98        24.4322  -28.5784  -36.6878 H         1 UNK         0.0839 
     99 H99        25.0826  -27.1407  -37.4521 H         1 UNK         0.0839 
    100 H100       22.1093  -29.3750  -36.6222 H         1 UNK         0.2998 
    101 H101       20.3397  -30.8469  -38.2658 H         1 UNK         0.0822 
    102 H102       20.0014  -32.2052  -36.1920 H         1 UNK         0.0787 
    103 H103       21.4162  -31.4629  -35.4589 H         1 UNK         0.0787 
    104 H104       19.9924  -30.4885  -35.8315 H         1 UNK         0.0787 
    105 H105       23.7085  -31.2910  -37.9732 H         1 UNK         0.3055 
    106 H106       23.7874  -34.1598  -38.6014 H         1 UNK         0.1106 
    107 H107       25.6025  -33.1303  -37.2532 H         1 UNK         0.0828 
    108 H108       26.2374  -33.7355  -38.7734 H         1 UNK         0.0828 
    109 H109       25.9762  -32.0097  -38.5628 H         1 UNK         0.0828 
    110 H110       22.0943  -33.5105  -40.3413 H         1 UNK         0.2931 
    111 H111       22.9767  -32.2119  -42.7098 H         1 UNK         0.0412 
    112 H112       24.1336  -36.0037  -43.4279 H         1 UNK         0.3472 
    113 H113       23.7735  -35.4457  -41.8126 H         1 UNK         0.3472 
    114 H114       20.8046  -32.7936  -43.6678 H         1 UNK         0.0970 
    115 H115       20.5276  -34.0034  -42.4354 H         1 UNK         0.0970 
    116 H116       17.9418  -32.0035  -40.8250 H         1 UNK         0.0612 
    117 H117       18.3262  -33.2623  -41.9674 H         1 UNK         0.0612 
@<TRIPOS>BOND
     1    1    2 1    
     2    1   62 1    
     3    1   63 1    
     4    1   64 1    
     5    2    3 2    
     6    2    4 am   BACKBONE|DICT|INTERRES
     7    4    5 1    
     8    4   65 1    
     9    5    6 1    
    10    5   25 1    
    11    5   66 1    
    12    6    7 1    
    13    6   67 1    
    14    6   68 1    
    15    7    8 1    
    16    8    9 1    
    17    8   69 1    
    18    8   70 1    
    19    9   10 ar   
    20    9   14 ar   
    21   10   11 ar   
    22   10   71 1    
    23   11   12 ar   
    24   11   61 1    
    25   12   13 ar   
    26   12   72 1    
    27   13   14 ar   
    28   13   15 1    
    29   14   73 1    
    30   15   16 1    
    31   15   74 1    
    32   15   75 1    
    33   16   17 1    
    34   17   18 1    
    35   17   76 1    
    36   17   77 1    
    37   18   19 1    
    38   18   27 1    
    39   18   78 1    
    40   19   20 am   BACKBONE|DICT|INTERRES
    41   19   79 1    
    42   20   21 2    
    43   20   22 1    
    44   22   23 1    
    45   22   24 1    
    46   22   80 1    
    47   23   81 1    
    48   23   82 1    
    49   23   83 1    
    50   24   25 am   BACKBONE|DICT|INTERRES
    51   24   84 1    
    52   25   26 2    
    53   27   28 2    
    54   27   29 am   BACKBONE|DICT|INTERRES
    55   29   30 1    
    56   29   85 1    
    57   30   31 1    
    58   30   32 1    
    59   30   86 1    
    60   31   87 1    
    61   31   88 1    
    62   31   89 1    
    63   32   33 2    
    64   32   34 am   BACKBONE|DICT|INTERRES
    65   34   35 1    
    66   34   90 1    
    67   35   36 1    
    68   35   37 1    
    69   35   91 1    
    70   36   92 1    
    71   36   93 1    
    72   36   94 1    
    73   37   38 2    
    74   37   39 am   BACKBONE|DICT|INTERRES
    75   39   40 1    
    76   39   95 1    
    77   40   41 1    
    78   40   42 1    
    79   40   96 1    
    80   41   97 1    
    81   41   98 1    
    82   41   99 1    
    83   42   43 2    
    84   42   44 am   BACKBONE|DICT|INTERRES
    85   44   45 1    
    86   44  100 1    
    87   45   46 1    
    88   45   47 1    
    89   45  101 1    
    90   46  102 1    
    91   46  103 1    
    92   46  104 1    
    93   47   48 2    
    94   47   49 am   BACKBONE|DICT|INTERRES
    95   49   50 1    
    96   49  105 1    
    97   50   51 1    
    98   50   52 1    
    99   50  106 1    
   100   51  107 1    
   101   51  108 1    
   102   51  109 1    
   103   52   53 2    
   104   52   54 am   BACKBONE|DICT|INTERRES
   105   54   55 1    
   106   54  110 1    
   107   55   56 1    
   108   55   59 1    
   109   55  111 1    
   110   56   57 am   BACKBONE|DICT|INTERRES
   111   56   58 2    
   112   57  112 1    
   113   57  113 1    
   114   59   60 1    
   115   59  114 1    
   116   59  115 1    
   117   60   61 1    
   118   61  116 1    
   119   61  117 1    
@<TRIPOS>SUBSTRUCTURE
     1 UNK         1 GROUP             0       ****    0 ROOT    
