@<TRIPOS>MOLECULE
3R8
117   119    1
SMALL
USER_CHARGES


@<TRIPOS>ATOM
      1 CA         15.1729  -21.9679  -44.4560 C.3       0 UNK        -0.2013 
      2 C          15.5071  -23.3590  -44.9731 C.2       0 UNK         0.4866 
      3 O          15.1244  -23.7036  -46.0912 O.2       0 UNK        -0.5176 
      4 N          16.2156  -24.1610  -44.1665 N.am      1 UNK        -0.4884 
      5 CA         16.6378  -25.5282  -44.5009 C.3       1 UNK         0.0853 
      6 C6         17.1078  -26.3012  -43.2415 C.3       10 UNK        -0.0849 
      7 S7         15.7058  -26.9827  -42.2838 S.3       10 UNK        -0.2776 
      8 C8         15.1912  -28.4456  -43.2583 C.3       10 UNK         0.0316 
      9 C9         16.2743  -29.5133  -43.3228 C.ar      10 UNK        -0.0863 
     10 C10        16.3326  -30.5377  -42.3724 C.ar      10 UNK        -0.1009 
     11 C11        17.3691  -31.4777  -42.4084 C.ar      10 UNK        -0.0712 
     12 C12        18.3621  -31.3751  -43.3891 C.ar      10 UNK        -0.0894 
     13 C13        18.3198  -30.3415  -44.3273 C.ar      10 UNK        -0.0745 
     14 C14        17.2449  -29.4537  -44.3242 C.ar      10 UNK        -0.0972 
     15 C15        19.4791  -30.0985  -45.2756 C.3       10 UNK         0.0209 
     16 S16        20.6179  -28.9090  -44.5022 S.3       10 UNK        -0.2568 
     17 C17        21.6623  -28.3957  -45.9067 C.3       10 UNK        -0.0983 
     18 CA         22.1965  -26.9383  -45.7933 C.3       3 UNK         0.0876 
     19 N          21.1379  -25.9311  -45.8416 N.am      3 UNK        -0.4424 
     20 C          20.5607  -25.4617  -46.9500 C.2       2 UNK         0.4918 
     21 O          20.8090  -25.8879  -48.0797 O.2       2 UNK        -0.4875 
     22 CA         19.5539  -24.3066  -46.7558 C.3       2 UNK         0.0481 
     23 CB         18.8478  -23.9054  -48.0686 C.3       2 UNK        -0.1831 
     24 N          18.5600  -24.5493  -45.6999 N.am      2 UNK        -0.4498 
     25 C          17.6953  -25.5750  -45.6266 C.2       1 UNK         0.5027 
     26 O          17.6779  -26.5185  -46.4177 O.2       1 UNK        -0.4969 
     27 C          23.0468  -26.6777  -44.5337 C.2       3 UNK         0.5005 
     28 O          22.7510  -25.7469  -43.7756 O.2       3 UNK        -0.5279 
     29 N          24.0901  -27.4931  -44.3304 N.am      4 UNK        -0.4463 
     30 CA         24.9590  -27.4550  -43.1541 C.3       4 UNK         0.0283 
     31 CB         26.2396  -28.2552  -43.4473 C.3       4 UNK        -0.1875 
     32 C          24.2188  -27.9915  -41.9164 C.2       4 UNK         0.4949 
     33 O          24.1361  -29.2084  -41.7304 O.2       4 UNK        -0.5039 
     34 N          23.6671  -27.0753  -41.1112 N.am      5 UNK        -0.4663 
     35 CA         22.9040  -27.3670  -39.8954 C.3       5 UNK         0.0242 
     36 CB         22.4226  -26.0491  -39.2679 C.3       5 UNK        -0.1982 
     37 C          23.7169  -28.1893  -38.8806 C.2       5 UNK         0.5017 
     38 O          24.8599  -27.8334  -38.5871 O.2       5 UNK        -0.5012 
     39 N          23.1093  -29.2801  -38.3937 N.am      6 UNK        -0.4439 
     40 CA         23.6689  -30.2872  -37.4806 C.3       6 UNK         0.0297 
     41 CB         24.0384  -29.6598  -36.1188 C.3       6 UNK        -0.2006 
     42 C          24.8240  -31.1316  -38.0661 C.2       6 UNK         0.4892 
     43 O          25.4504  -31.8779  -37.3112 O.2       6 UNK        -0.5089 
     44 N          25.0786  -31.0294  -39.3786 N.am      7 UNK        -0.4243 
     45 CA         26.0647  -31.8303  -40.1057 C.3       7 UNK         0.0196 
     46 CB         27.1783  -30.9208  -40.6492 C.3       7 UNK        -0.2007 
     47 C          25.3793  -32.6143  -41.2306 C.2       7 UNK         0.5020 
     48 O          25.5096  -33.8374  -41.2800 O.2       7 UNK        -0.5147 
     49 N          24.6419  -31.9093  -42.1003 N.am      8 UNK        -0.4734 
     50 CA         23.8167  -32.5064  -43.1538 C.3       8 UNK         0.0238 
     51 CB         23.5357  -31.4587  -44.2431 C.3       8 UNK        -0.1912 
     52 C          22.5040  -33.0708  -42.5891 C.2       8 UNK         0.5038 
     53 O          22.0601  -34.1307  -43.0315 O.2       8 UNK        -0.5046 
     54 N          21.9265  -32.3601  -41.6125 N.am      9 UNK        -0.4200 
     55 CA         20.7906  -32.8133  -40.8055 C.3       9 UNK         0.0839 
     56 C          21.2981  -33.6516  -39.6046 C.2       9 UNK         0.5513 
     57 N          20.7559  -34.8430  -39.3952 N.am      9 UNK        -0.7519 
     58 O          22.1606  -33.2121  -38.8480 O.2       9 UNK        -0.4960 
     59 C59        19.9241  -31.6076  -40.3552 C.3       10 UNK        -0.0876 
     60 S60        18.2381  -32.0723  -39.8238 S.3       10 UNK        -0.2414 
     61 C61        17.4299  -32.5923  -41.3751 C.3       10 UNK         0.0169 
     62 H62        14.0924  -21.8300  -44.4226 H         1 UNK         0.0903 
     63 H63        15.5670  -21.7984  -43.4541 H         1 UNK         0.0903 
     64 H64        15.5926  -21.2109  -45.1180 H         1 UNK         0.0903 
     65 H65        16.4773  -23.8316  -43.2477 H         1 UNK         0.3096 
     66 H66        15.7652  -26.0377  -44.9147 H         1 UNK         0.1121 
     67 H67        17.6765  -25.6407  -42.5849 H         1 UNK         0.0849 
     68 H68        17.8075  -27.1014  -43.4761 H         1 UNK         0.0849 
     69 H69        14.2900  -28.8641  -42.8077 H         1 UNK         0.0865 
     70 H70        14.9040  -28.1400  -44.2651 H         1 UNK         0.0865 
     71 H71        15.5834  -30.5944  -41.5943 H         1 UNK         0.1346 
     72 H72        19.1921  -32.0685  -43.3924 H         1 UNK         0.1412 
     73 H73        17.2120  -28.6612  -45.0580 H         1 UNK         0.1426 
     74 H74        19.1103  -29.7037  -46.2238 H         1 UNK         0.0716 
     75 H75        20.0071  -31.0273  -45.4971 H         1 UNK         0.0716 
     76 H76        21.0899  -28.4967  -46.8299 H         1 UNK         0.0695 
     77 H77        22.4869  -29.1037  -45.9979 H         1 UNK         0.0695 
     78 H78        22.8629  -26.7581  -46.6399 H         1 UNK         0.0983 
     79 H79        20.9425  -25.5016  -44.9462 H         1 UNK         0.3095 
     80 H80        20.1410  -23.4477  -46.4277 H         1 UNK         0.0454 
     81 H81        18.2634  -24.7285  -48.4812 H         1 UNK         0.0851 
     82 H82        19.5716  -23.6077  -48.8283 H         1 UNK         0.0851 
     83 H83        18.1748  -23.0618  -47.9159 H         1 UNK         0.0851 
     84 H84        18.4866  -23.8311  -44.9928 H         1 UNK         0.2976 
     85 H85        24.2557  -28.2439  -44.9844 H         1 UNK         0.3116 
     86 H86        25.2505  -26.4188  -42.9686 H         1 UNK         0.0646 
     87 H87        26.9327  -28.1928  -42.6080 H         1 UNK         0.0847 
     88 H88        26.7614  -27.8628  -44.3202 H         1 UNK         0.0847 
     89 H89        26.0335  -29.3109  -43.6279 H         1 UNK         0.0847 
     90 H90        23.7504  -26.1023  -41.3705 H         1 UNK         0.3040 
     91 H91        22.0267  -27.9421  -40.1997 H         1 UNK         0.1015 
     92 H92        23.2593  -25.4124  -38.9770 H         1 UNK         0.0786 
     93 H93        21.8290  -26.2366  -38.3720 H         1 UNK         0.0786 
     94 H94        21.7952  -25.4855  -39.9589 H         1 UNK         0.0786 
     95 H95        22.1644  -29.4663  -38.6987 H         1 UNK         0.3172 
     96 H96        22.8583  -30.9939  -37.2976 H         1 UNK         0.0595 
     97 H97        24.9018  -28.9987  -36.1962 H         1 UNK         0.0839 
     98 H98        24.2881  -30.4299  -35.3879 H         1 UNK         0.0839 
     99 H99        23.2094  -29.0842  -35.7073 H         1 UNK         0.0839 
    100 H100       24.5350  -30.3768  -39.9292 H         1 UNK         0.2998 
    101 H101       26.5278  -32.5642  -39.4425 H         1 UNK         0.0822 
    102 H102       27.7228  -30.4393  -39.8368 H         1 UNK         0.0787 
    103 H103       27.9014  -31.4914  -41.2335 H         1 UNK         0.0787 
    104 H104       26.7811  -30.1369  -41.2915 H         1 UNK         0.0787 
    105 H105       24.5773  -30.8971  -41.9957 H         1 UNK         0.3055 
    106 H106       24.3664  -33.3341  -43.6083 H         1 UNK         0.1106 
    107 H107       22.9074  -31.8727  -45.0329 H         1 UNK         0.0828 
    108 H108       23.0199  -30.5873  -43.8395 H         1 UNK         0.0828 
    109 H109       24.4591  -31.1156  -44.7092 H         1 UNK         0.0828 
    110 H110       22.3935  -31.5231  -41.2993 H         1 UNK         0.2931 
    111 H111       20.1758  -33.4542  -41.4383 H         1 UNK         0.0412 
    112 H112       20.0383  -35.2028  -40.0052 H         1 UNK         0.3472 
    113 H113       21.0688  -35.3927  -38.6102 H         1 UNK         0.3472 
    114 H114       20.4049  -31.0708  -39.5358 H         1 UNK         0.0970 
    115 H115       19.8364  -30.8759  -41.1588 H         1 UNK         0.0970 
    116 H116       16.4170  -32.9226  -41.1403 H         1 UNK         0.0612 
    117 H117       17.9362  -33.4662  -41.7857 H         1 UNK         0.0612 
@<TRIPOS>BOND
     1    1    2 1    
     2    1   62 1    
     3    1   63 1    
     4    1   64 1    
     5    2    3 2    
     6    2    4 am   BACKBONE|DICT|INTERRES
     7    4    5 1    
     8    4   65 1    
     9    5    6 1    
    10    5   25 1    
    11    5   66 1    
    12    6    7 1    
    13    6   67 1    
    14    6   68 1    
    15    7    8 1    
    16    8    9 1    
    17    8   69 1    
    18    8   70 1    
    19    9   10 ar   
    20    9   14 ar   
    21   10   11 ar   
    22   10   71 1    
    23   11   12 ar   
    24   11   61 1    
    25   12   13 ar   
    26   12   72 1    
    27   13   14 ar   
    28   13   15 1    
    29   14   73 1    
    30   15   16 1    
    31   15   74 1    
    32   15   75 1    
    33   16   17 1    
    34   17   18 1    
    35   17   76 1    
    36   17   77 1    
    37   18   19 1    
    38   18   27 1    
    39   18   78 1    
    40   19   20 am   BACKBONE|DICT|INTERRES
    41   19   79 1    
    42   20   21 2    
    43   20   22 1    
    44   22   23 1    
    45   22   24 1    
    46   22   80 1    
    47   23   81 1    
    48   23   82 1    
    49   23   83 1    
    50   24   25 am   BACKBONE|DICT|INTERRES
    51   24   84 1    
    52   25   26 2    
    53   27   28 2    
    54   27   29 am   BACKBONE|DICT|INTERRES
    55   29   30 1    
    56   29   85 1    
    57   30   31 1    
    58   30   32 1    
    59   30   86 1    
    60   31   87 1    
    61   31   88 1    
    62   31   89 1    
    63   32   33 2    
    64   32   34 am   BACKBONE|DICT|INTERRES
    65   34   35 1    
    66   34   90 1    
    67   35   36 1    
    68   35   37 1    
    69   35   91 1    
    70   36   92 1    
    71   36   93 1    
    72   36   94 1    
    73   37   38 2    
    74   37   39 am   BACKBONE|DICT|INTERRES
    75   39   40 1    
    76   39   95 1    
    77   40   41 1    
    78   40   42 1    
    79   40   96 1    
    80   41   97 1    
    81   41   98 1    
    82   41   99 1    
    83   42   43 2    
    84   42   44 am   BACKBONE|DICT|INTERRES
    85   44   45 1    
    86   44  100 1    
    87   45   46 1    
    88   45   47 1    
    89   45  101 1    
    90   46  102 1    
    91   46  103 1    
    92   46  104 1    
    93   47   48 2    
    94   47   49 am   BACKBONE|DICT|INTERRES
    95   49   50 1    
    96   49  105 1    
    97   50   51 1    
    98   50   52 1    
    99   50  106 1    
   100   51  107 1    
   101   51  108 1    
   102   51  109 1    
   103   52   53 2    
   104   52   54 am   BACKBONE|DICT|INTERRES
   105   54   55 1    
   106   54  110 1    
   107   55   56 1    
   108   55   59 1    
   109   55  111 1    
   110   56   57 am   BACKBONE|DICT|INTERRES
   111   56   58 2    
   112   57  112 1    
   113   57  113 1    
   114   59   60 1    
   115   59  114 1    
   116   59  115 1    
   117   60   61 1    
   118   61  116 1    
   119   61  117 1    
@<TRIPOS>SUBSTRUCTURE
     1 UNK         1 GROUP             0       ****    0 ROOT    
