@<TRIPOS>MOLECULE
3R8
117   119    1
SMALL
USER_CHARGES


@<TRIPOS>ATOM
      1 CA         17.9838  -27.0402  -41.3273 C.3       0 UNK        -0.2013 
      2 C          16.9619  -27.0179  -42.4522 C.2       0 UNK         0.4866 
      3 O          15.8823  -26.4494  -42.2858 O.2       0 UNK        -0.5176 
      4 N          17.2893  -27.6355  -43.5940 N.am      1 UNK        -0.4884 
      5 CA         16.4256  -27.7016  -44.7809 C.3       1 UNK         0.0853 
      6 C6         16.8320  -28.8486  -45.7370 C.3       10 UNK        -0.0849 
      7 S7         16.7978  -30.4761  -44.9120 S.3       10 UNK        -0.2776 
      8 C8         18.4444  -31.1408  -45.3177 C.3       10 UNK         0.0316 
      9 C9         19.5811  -30.3656  -44.6610 C.ar      10 UNK        -0.0863 
     10 C10        19.7443  -30.3855  -43.2721 C.ar      10 UNK        -0.1009 
     11 C11        20.8202  -29.7205  -42.6689 C.ar      10 UNK        -0.0712 
     12 C12        21.7379  -29.0422  -43.4773 C.ar      10 UNK        -0.0894 
     13 C13        21.5876  -29.0109  -44.8660 C.ar      10 UNK        -0.0745 
     14 C14        20.5045  -29.6738  -45.4502 C.ar      10 UNK        -0.0972 
     15 C15        22.6292  -28.3265  -45.7432 C.3       10 UNK         0.0209 
     16 S16        21.9269  -26.9623  -46.7286 S.3       10 UNK        -0.2568 
     17 C17        22.4490  -25.4563  -45.8241 C.3       10 UNK        -0.0983 
     18 CA         21.3205  -24.7280  -45.0443 C.3       3 UNK         0.0876 
     19 N          20.0921  -24.6354  -45.8292 N.am      3 UNK        -0.4424 
     20 C          19.0719  -23.8116  -45.5632 C.2       2 UNK         0.4918 
     21 O          19.1531  -22.7993  -44.8675 O.2       2 UNK        -0.4875 
     22 CA         17.7110  -24.2908  -46.0700 C.3       2 UNK         0.0481 
     23 CB         17.6575  -24.3231  -47.6116 C.3       2 UNK        -0.1831 
     24 N          17.4929  -25.6116  -45.4791 N.am      2 UNK        -0.4498 
     25 C          16.3867  -26.3606  -45.5424 C.2       1 UNK         0.5027 
     26 O          15.3692  -26.0395  -46.1581 O.2       1 UNK        -0.4969 
     27 C          21.0114  -25.4268  -43.7043 C.2       3 UNK         0.5005 
     28 O          20.0418  -26.1860  -43.6250 O.2       3 UNK        -0.5279 
     29 N          21.8408  -25.1629  -42.6879 N.am      4 UNK        -0.4463 
     30 CA         21.7356  -25.7492  -41.3472 C.3       4 UNK         0.0283 
     31 CB         21.1944  -24.6920  -40.3681 C.3       4 UNK        -0.1875 
     32 C          23.0775  -26.3378  -40.8767 C.2       4 UNK         0.4949 
     33 O          23.2529  -26.5799  -39.6824 O.2       4 UNK        -0.5039 
     34 N          24.0051  -26.5753  -41.8147 N.am      5 UNK        -0.4663 
     35 CA         25.3767  -27.0436  -41.5885 C.3       5 UNK         0.0242 
     36 CB         26.2183  -26.6911  -42.8304 C.3       5 UNK        -0.1982 
     37 C          25.4822  -28.5378  -41.2106 C.2       5 UNK         0.5017 
     38 O          26.2616  -29.2679  -41.8232 O.2       5 UNK        -0.5012 
     39 N          24.6948  -28.9687  -40.2151 N.am      6 UNK        -0.4439 
     40 CA         24.6861  -30.2665  -39.5149 C.3       6 UNK         0.0297 
     41 CB         26.0059  -30.4657  -38.7457 C.3       6 UNK        -0.2006 
     42 C          24.3634  -31.5289  -40.3433 C.2       6 UNK         0.4892 
     43 O          23.9392  -32.5172  -39.7422 O.2       6 UNK        -0.5089 
     44 N          24.5402  -31.4731  -41.6711 N.am      7 UNK        -0.4243 
     45 CA         24.5051  -32.5598  -42.6619 C.3       7 UNK         0.0196 
     46 CB         24.3834  -31.9469  -44.0675 C.3       7 UNK        -0.2007 
     47 C          23.4382  -33.6507  -42.4644 C.2       7 UNK         0.5020 
     48 O          23.7649  -34.8343  -42.5587 O.2       7 UNK        -0.5147 
     49 N          22.1992  -33.2385  -42.1782 N.am      8 UNK        -0.4734 
     50 CA         21.0845  -34.1257  -41.8368 C.3       8 UNK         0.0238 
     51 CB         20.1564  -34.2681  -43.0573 C.3       8 UNK        -0.1912 
     52 C          20.3430  -33.6276  -40.5837 C.2       8 UNK         0.5038 
     53 O          19.1505  -33.9033  -40.4410 O.2       8 UNK        -0.5046 
     54 N          21.0490  -32.8932  -39.7130 N.am      9 UNK        -0.4200 
     55 CA         20.5054  -32.2565  -38.5006 C.3       9 UNK         0.0839 
     56 C          21.2506  -32.6877  -37.2085 C.2       9 UNK         0.5513 
     57 N          22.4763  -33.1948  -37.2802 N.am      9 UNK        -0.7519 
     58 O          20.6990  -32.5700  -36.1176 O.2       9 UNK        -0.4960 
     59 C59        20.4649  -30.7057  -38.6097 C.3       10 UNK        -0.0876 
     60 S60        19.6265  -30.0996  -40.1153 S.3       10 UNK        -0.2414 
     61 C61        21.0815  -29.7771  -41.1657 C.3       10 UNK         0.0169 
     62 H62        17.5564  -27.4935  -40.4335 H         1 UNK         0.0903 
     63 H63        18.8691  -27.6100  -41.6063 H         1 UNK         0.0903 
     64 H64        18.2982  -26.0257  -41.0854 H         1 UNK         0.0903 
     65 H65        18.1986  -28.0728  -43.6799 H         1 UNK         0.3096 
     66 H66        15.4058  -27.8981  -44.4415 H         1 UNK         0.1121 
     67 H67        16.1489  -28.8958  -46.5876 H         1 UNK         0.0849 
     68 H68        17.8229  -28.6639  -46.1558 H         1 UNK         0.0849 
     69 H69        18.4884  -32.1808  -44.9944 H         1 UNK         0.0865 
     70 H70        18.5611  -31.1608  -46.4025 H         1 UNK         0.0865 
     71 H71        19.0381  -30.9409  -42.6709 H         1 UNK         0.1346 
     72 H72        22.5892  -28.5577  -43.0246 H         1 UNK         0.1412 
     73 H73        20.3974  -29.6664  -46.5263 H         1 UNK         0.1426 
     74 H74        23.0372  -29.0689  -46.4304 H         1 UNK         0.0716 
     75 H75        23.4746  -27.9735  -45.1517 H         1 UNK         0.0716 
     76 H76        23.3010  -25.6768  -45.1792 H         1 UNK         0.0695 
     77 H77        22.8404  -24.7703  -46.5768 H         1 UNK         0.0695 
     78 H78        21.6573  -23.7136  -44.8187 H         1 UNK         0.0983 
     79 H79        19.9130  -25.4457  -46.4046 H         1 UNK         0.3095 
     80 H80        16.9433  -23.6100  -45.6972 H         1 UNK         0.0454 
     81 H81        17.9426  -23.3573  -48.0307 H         1 UNK         0.0851 
     82 H82        18.3289  -25.0730  -48.0308 H         1 UNK         0.0851 
     83 H83        16.6525  -24.5403  -47.9725 H         1 UNK         0.0851 
     84 H84        18.2474  -25.9455  -44.8849 H         1 UNK         0.2976 
     85 H85        22.5944  -24.5022  -42.8255 H         1 UNK         0.3116 
     86 H86        21.0343  -26.5843  -41.3595 H         1 UNK         0.0646 
     87 H87        21.0387  -25.1169  -39.3756 H         1 UNK         0.0847 
     88 H88        20.2345  -24.2982  -40.7024 H         1 UNK         0.0847 
     89 H89        21.8821  -23.8525  -40.2609 H         1 UNK         0.0847 
     90 H90        23.7571  -26.3893  -42.7743 H         1 UNK         0.3040 
     91 H91        25.7885  -26.4859  -40.7442 H         1 UNK         0.1015 
     92 H92        26.1872  -25.6221  -43.0424 H         1 UNK         0.0786 
     93 H93        25.8704  -27.2210  -43.7181 H         1 UNK         0.0786 
     94 H94        27.2666  -26.9554  -42.6828 H         1 UNK         0.0786 
     95 H95        24.0818  -28.2592  -39.8171 H         1 UNK         0.3172 
     96 H96        23.8904  -30.1859  -38.7734 H         1 UNK         0.0595 
     97 H97        26.1984  -29.6361  -38.0654 H         1 UNK         0.0839 
     98 H98        26.8591  -30.5526  -39.4195 H         1 UNK         0.0839 
     99 H99        25.9752  -31.3750  -38.1435 H         1 UNK         0.0839 
    100 H100       24.9728  -30.6142  -41.9980 H         1 UNK         0.2998 
    101 H101       25.4754  -33.0556  -42.5972 H         1 UNK         0.0822 
    102 H102       25.2093  -31.2672  -44.2786 H         1 UNK         0.0787 
    103 H103       24.3983  -32.7212  -44.8360 H         1 UNK         0.0787 
    104 H104       23.4531  -31.3899  -44.1852 H         1 UNK         0.0787 
    105 H105       22.0138  -32.2462  -42.1431 H         1 UNK         0.3055 
    106 H106       21.4609  -35.1182  -41.5788 H         1 UNK         0.1106 
    107 H107       19.6909  -33.3179  -43.3140 H         1 UNK         0.0828 
    108 H108       20.7016  -34.6228  -43.9320 H         1 UNK         0.0828 
    109 H109       19.3563  -34.9836  -42.8641 H         1 UNK         0.0828 
    110 H110       22.0466  -32.7823  -39.8646 H         1 UNK         0.2931 
    111 H111       19.4757  -32.5895  -38.3588 H         1 UNK         0.0412 
    112 H112       22.9371  -33.4789  -36.4301 H         1 UNK         0.3472 
    113 H113       22.9817  -33.2269  -38.1578 H         1 UNK         0.3472 
    114 H114       21.4715  -30.2876  -38.5647 H         1 UNK         0.0970 
    115 H115       19.9354  -30.2881  -37.7513 H         1 UNK         0.0970 
    116 H116       21.8136  -30.5618  -40.9981 H         1 UNK         0.0612 
    117 H117       21.5420  -28.8507  -40.8256 H         1 UNK         0.0612 
@<TRIPOS>BOND
     1    1    2 1    
     2    1   62 1    
     3    1   63 1    
     4    1   64 1    
     5    2    3 2    
     6    2    4 am   BACKBONE|DICT|INTERRES
     7    4    5 1    
     8    4   65 1    
     9    5    6 1    
    10    5   25 1    
    11    5   66 1    
    12    6    7 1    
    13    6   67 1    
    14    6   68 1    
    15    7    8 1    
    16    8    9 1    
    17    8   69 1    
    18    8   70 1    
    19    9   10 ar   
    20    9   14 ar   
    21   10   11 ar   
    22   10   71 1    
    23   11   12 ar   
    24   11   61 1    
    25   12   13 ar   
    26   12   72 1    
    27   13   14 ar   
    28   13   15 1    
    29   14   73 1    
    30   15   16 1    
    31   15   74 1    
    32   15   75 1    
    33   16   17 1    
    34   17   18 1    
    35   17   76 1    
    36   17   77 1    
    37   18   19 1    
    38   18   27 1    
    39   18   78 1    
    40   19   20 am   BACKBONE|DICT|INTERRES
    41   19   79 1    
    42   20   21 2    
    43   20   22 1    
    44   22   23 1    
    45   22   24 1    
    46   22   80 1    
    47   23   81 1    
    48   23   82 1    
    49   23   83 1    
    50   24   25 am   BACKBONE|DICT|INTERRES
    51   24   84 1    
    52   25   26 2    
    53   27   28 2    
    54   27   29 am   BACKBONE|DICT|INTERRES
    55   29   30 1    
    56   29   85 1    
    57   30   31 1    
    58   30   32 1    
    59   30   86 1    
    60   31   87 1    
    61   31   88 1    
    62   31   89 1    
    63   32   33 2    
    64   32   34 am   BACKBONE|DICT|INTERRES
    65   34   35 1    
    66   34   90 1    
    67   35   36 1    
    68   35   37 1    
    69   35   91 1    
    70   36   92 1    
    71   36   93 1    
    72   36   94 1    
    73   37   38 2    
    74   37   39 am   BACKBONE|DICT|INTERRES
    75   39   40 1    
    76   39   95 1    
    77   40   41 1    
    78   40   42 1    
    79   40   96 1    
    80   41   97 1    
    81   41   98 1    
    82   41   99 1    
    83   42   43 2    
    84   42   44 am   BACKBONE|DICT|INTERRES
    85   44   45 1    
    86   44  100 1    
    87   45   46 1    
    88   45   47 1    
    89   45  101 1    
    90   46  102 1    
    91   46  103 1    
    92   46  104 1    
    93   47   48 2    
    94   47   49 am   BACKBONE|DICT|INTERRES
    95   49   50 1    
    96   49  105 1    
    97   50   51 1    
    98   50   52 1    
    99   50  106 1    
   100   51  107 1    
   101   51  108 1    
   102   51  109 1    
   103   52   53 2    
   104   52   54 am   BACKBONE|DICT|INTERRES
   105   54   55 1    
   106   54  110 1    
   107   55   56 1    
   108   55   59 1    
   109   55  111 1    
   110   56   57 am   BACKBONE|DICT|INTERRES
   111   56   58 2    
   112   57  112 1    
   113   57  113 1    
   114   59   60 1    
   115   59  114 1    
   116   59  115 1    
   117   60   61 1    
   118   61  116 1    
   119   61  117 1    
@<TRIPOS>SUBSTRUCTURE
     1 UNK         1 GROUP             0       ****    0 ROOT    
