@<TRIPOS>MOLECULE
3R8
117   119    1
SMALL
USER_CHARGES


@<TRIPOS>ATOM
      1 CA         18.9778  -23.9171  -49.4244 C.3       0 UNK        -0.2013 
      2 C          19.6147  -24.6723  -48.2675 C.2       0 UNK         0.4866 
      3 O          20.6904  -24.2915  -47.8045 O.2       0 UNK        -0.5176 
      4 N          18.9647  -25.7459  -47.8027 N.am      1 UNK        -0.4884 
      5 CA         19.3808  -26.5481  -46.6486 C.3       1 UNK         0.0853 
      6 C6         18.6932  -27.9396  -46.6286 C.3       10 UNK        -0.0849 
      7 S7         16.8804  -27.8817  -46.8522 S.3       10 UNK        -0.2776 
      8 C8         16.4436  -29.6401  -46.6820 C.3       10 UNK         0.0316 
      9 C9         16.4807  -30.0982  -45.2312 C.ar      10 UNK        -0.0863 
     10 C10        17.4459  -31.0123  -44.7965 C.ar      10 UNK        -0.1009 
     11 C11        17.4528  -31.4541  -43.4697 C.ar      10 UNK        -0.0712 
     12 C12        16.4785  -30.9885  -42.5830 C.ar      10 UNK        -0.0894 
     13 C13        15.5450  -30.0312  -42.9911 C.ar      10 UNK        -0.0745 
     14 C14        15.5392  -29.6059  -44.3221 C.ar      10 UNK        -0.0972 
     15 C15        14.5583  -29.4364  -41.9942 C.3       10 UNK         0.0209 
     16 S16        15.3754  -28.7613  -40.5070 S.3       10 UNK        -0.2568 
     17 C17        16.4862  -27.4766  -41.1883 C.3       10 UNK        -0.0983 
     18 CA         17.9652  -27.9469  -41.3087 C.3       3 UNK         0.0876 
     19 N          18.7496  -27.1386  -42.2510 N.am      3 UNK        -0.4424 
     20 C          19.1257  -25.8620  -42.0771 C.2       2 UNK         0.4918 
     21 O          18.7461  -25.1486  -41.1486 O.2       2 UNK        -0.4875 
     22 CA         20.1377  -25.2889  -43.0846 C.3       2 UNK         0.0481 
     23 CB         21.5585  -25.3785  -42.4996 C.3       2 UNK        -0.1831 
     24 N          20.1190  -25.9548  -44.3898 N.am      2 UNK        -0.4498 
     25 C          19.1765  -25.7772  -45.3256 C.2       1 UNK         0.5027 
     26 O          18.1895  -25.0523  -45.1753 O.2       1 UNK        -0.4969 
     27 C          18.7154  -28.1014  -39.9620 C.2       3 UNK         0.5005 
     28 O          18.1563  -27.8546  -38.8910 O.2       3 UNK        -0.5279 
     29 N          19.9977  -28.4775  -40.0526 N.am      4 UNK        -0.4463 
     30 CA         20.9057  -28.6905  -38.9334 C.3       4 UNK         0.0283 
     31 CB         21.4720  -27.3458  -38.4437 C.3       4 UNK        -0.1875 
     32 C          22.0233  -29.6354  -39.3844 C.2       4 UNK         0.4949 
     33 O          22.4170  -29.6067  -40.5562 O.2       4 UNK        -0.5039 
     34 N          22.5093  -30.4528  -38.4424 N.am      5 UNK        -0.4663 
     35 CA         23.5914  -31.4188  -38.6395 C.3       5 UNK         0.0242 
     36 CB         23.7242  -32.2958  -37.3848 C.3       5 UNK        -0.1982 
     37 C          24.9245  -30.7282  -38.9578 C.2       5 UNK         0.5017 
     38 O          25.2316  -29.6983  -38.3535 O.2       5 UNK        -0.5012 
     39 N          25.6753  -31.2954  -39.9113 N.am      6 UNK        -0.4439 
     40 CA         26.9641  -30.8422  -40.4584 C.3       6 UNK         0.0297 
     41 CB         28.0471  -30.7311  -39.3672 C.3       6 UNK        -0.2006 
     42 C          26.8802  -29.5532  -41.2978 C.2       6 UNK         0.4892 
     43 O          27.5993  -29.4430  -42.2912 O.2       6 UNK        -0.5089 
     44 N          25.9946  -28.6226  -40.9169 N.am      7 UNK        -0.4243 
     45 CA         25.6461  -27.4175  -41.6714 C.3       7 UNK         0.0196 
     46 CB         24.7548  -26.5166  -40.8038 C.3       7 UNK        -0.2007 
     47 C          24.9476  -27.7420  -43.0023 C.2       7 UNK         0.5020 
     48 O          25.1855  -27.0499  -43.9923 O.2       7 UNK        -0.5147 
     49 N          24.1234  -28.7974  -43.0079 N.am      8 UNK        -0.4734 
     50 CA         23.5010  -29.3500  -44.2094 C.3       8 UNK         0.0238 
     51 CB         22.2147  -28.5807  -44.5571 C.3       8 UNK        -0.1912 
     52 C          23.2217  -30.8484  -44.0611 C.2       8 UNK         0.5038 
     53 O          23.5144  -31.6056  -44.9872 O.2       8 UNK        -0.5046 
     54 N          22.6403  -31.2463  -42.9233 N.am      9 UNK        -0.4200 
     55 CA         22.1847  -32.6206  -42.6719 C.3       9 UNK         0.0839 
     56 C          23.3512  -33.5581  -42.2636 C.2       9 UNK         0.5513 
     57 N          23.2560  -34.8404  -42.5841 N.am      9 UNK        -0.7519 
     58 O          24.3163  -33.1450  -41.6219 O.2       9 UNK        -0.4960 
     59 C59        21.0305  -32.6743  -41.6348 C.3       10 UNK        -0.0876 
     60 S60        19.7231  -31.4439  -41.9568 S.3       10 UNK        -0.2414 
     61 C61        18.5439  -32.3849  -42.9679 C.3       10 UNK         0.0169 
     62 H62        18.7778  -22.8860  -49.1341 H         1 UNK         0.0903 
     63 H63        19.6508  -23.9058  -50.2813 H         1 UNK         0.0903 
     64 H64        18.0371  -24.3694  -49.7380 H         1 UNK         0.0903 
     65 H65        18.0653  -25.9975  -48.1897 H         1 UNK         0.3096 
     66 H66        20.4541  -26.7220  -46.7583 H         1 UNK         0.1121 
     67 H67        19.1042  -28.5505  -47.4340 H         1 UNK         0.0849 
     68 H68        18.9255  -28.4766  -45.7069 H         1 UNK         0.0849 
     69 H69        15.4368  -29.7913  -47.0743 H         1 UNK         0.0865 
     70 H70        17.1052  -30.2446  -47.3045 H         1 UNK         0.0865 
     71 H71        18.1962  -31.3738  -45.4866 H         1 UNK         0.1346 
     72 H72        16.4914  -31.3204  -41.5536 H         1 UNK         0.1412 
     73 H73        14.8110  -28.8778  -44.6534 H         1 UNK         0.1426 
     74 H74        13.8553  -30.2123  -41.6887 H         1 UNK         0.0716 
     75 H75        13.9647  -28.6458  -42.4560 H         1 UNK         0.0716 
     76 H76        16.4129  -26.5824  -40.5670 H         1 UNK         0.0695 
     77 H77        16.1088  -27.1861  -42.1701 H         1 UNK         0.0695 
     78 H78        17.9559  -28.9435  -41.7454 H         1 UNK         0.0983 
     79 H79        19.0961  -27.6259  -43.0629 H         1 UNK         0.3095 
     80 H80        19.8973  -24.2339  -43.2336 H         1 UNK         0.0454 
     81 H81        21.8584  -26.4101  -42.3110 H         1 UNK         0.0851 
     82 H82        21.6227  -24.8464  -41.5493 H         1 UNK         0.0851 
     83 H83        22.2953  -24.9314  -43.1673 H         1 UNK         0.0851 
     84 H84        20.9121  -26.5408  -44.6027 H         1 UNK         0.2976 
     85 H85        20.3942  -28.7117  -40.9537 H         1 UNK         0.3116 
     86 H86        20.3583  -29.1705  -38.1192 H         1 UNK         0.0646 
     87 H87        21.9171  -26.7755  -39.2582 H         1 UNK         0.0847 
     88 H88        22.2410  -27.4925  -37.6840 H         1 UNK         0.0847 
     89 H89        20.6914  -26.7286  -37.9989 H         1 UNK         0.0847 
     90 H90        22.1478  -30.3748  -37.5028 H         1 UNK         0.3040 
     91 H91        23.3197  -32.0591  -39.4775 H         1 UNK         0.1015 
     92 H92        22.7982  -32.8309  -37.1734 H         1 UNK         0.0786 
     93 H93        23.9809  -31.7048  -36.5045 H         1 UNK         0.0786 
     94 H94        24.5070  -33.0448  -37.5138 H         1 UNK         0.0786 
     95 H95        25.2748  -32.0936  -40.4037 H         1 UNK         0.3172 
     96 H96        27.2744  -31.6334  -41.1429 H         1 UNK         0.0595 
     97 H97        27.8372  -29.9291  -38.6592 H         1 UNK         0.0839 
     98 H98        29.0214  -30.5205  -39.8102 H         1 UNK         0.0839 
     99 H99        28.1411  -31.6601  -38.8050 H         1 UNK         0.0839 
    100 H100       25.4963  -28.7883  -40.0478 H         1 UNK         0.2998 
    101 H101       26.5698  -26.8810  -41.8981 H         1 UNK         0.0822 
    102 H102       25.2549  -26.2345  -39.8771 H         1 UNK         0.0787 
    103 H103       24.4996  -25.5955  -41.3296 H         1 UNK         0.0787 
    104 H104       23.8219  -27.0159  -40.5442 H         1 UNK         0.0787 
    105 H105       23.9683  -29.2949  -42.1393 H         1 UNK         0.3055 
    106 H106       24.1995  -29.2457  -45.0435 H         1 UNK         0.1106 
    107 H107       21.7221  -29.0174  -45.4273 H         1 UNK         0.0828 
    108 H108       21.5033  -28.5988  -43.7308 H         1 UNK         0.0828 
    109 H109       22.4429  -27.5433  -44.7985 H         1 UNK         0.0828 
    110 H110       22.4472  -30.5784  -42.1835 H         1 UNK         0.2931 
    111 H111       21.7768  -32.9998  -43.6115 H         1 UNK         0.0412 
    112 H112       22.4669  -35.1936  -43.1031 H         1 UNK         0.3472 
    113 H113       23.9973  -35.4677  -42.3130 H         1 UNK         0.3472 
    114 H114       20.5875  -33.6715  -41.6054 H         1 UNK         0.0970 
    115 H115       21.4048  -32.4863  -40.6289 H         1 UNK         0.0970 
    116 H116       18.1075  -33.1891  -42.3738 H         1 UNK         0.0612 
    117 H117       19.0696  -32.8521  -43.8021 H         1 UNK         0.0612 
@<TRIPOS>BOND
     1    1    2 1    
     2    1   62 1    
     3    1   63 1    
     4    1   64 1    
     5    2    3 2    
     6    2    4 am   BACKBONE|DICT|INTERRES
     7    4    5 1    
     8    4   65 1    
     9    5    6 1    
    10    5   25 1    
    11    5   66 1    
    12    6    7 1    
    13    6   67 1    
    14    6   68 1    
    15    7    8 1    
    16    8    9 1    
    17    8   69 1    
    18    8   70 1    
    19    9   10 ar   
    20    9   14 ar   
    21   10   11 ar   
    22   10   71 1    
    23   11   12 ar   
    24   11   61 1    
    25   12   13 ar   
    26   12   72 1    
    27   13   14 ar   
    28   13   15 1    
    29   14   73 1    
    30   15   16 1    
    31   15   74 1    
    32   15   75 1    
    33   16   17 1    
    34   17   18 1    
    35   17   76 1    
    36   17   77 1    
    37   18   19 1    
    38   18   27 1    
    39   18   78 1    
    40   19   20 am   BACKBONE|DICT|INTERRES
    41   19   79 1    
    42   20   21 2    
    43   20   22 1    
    44   22   23 1    
    45   22   24 1    
    46   22   80 1    
    47   23   81 1    
    48   23   82 1    
    49   23   83 1    
    50   24   25 am   BACKBONE|DICT|INTERRES
    51   24   84 1    
    52   25   26 2    
    53   27   28 2    
    54   27   29 am   BACKBONE|DICT|INTERRES
    55   29   30 1    
    56   29   85 1    
    57   30   31 1    
    58   30   32 1    
    59   30   86 1    
    60   31   87 1    
    61   31   88 1    
    62   31   89 1    
    63   32   33 2    
    64   32   34 am   BACKBONE|DICT|INTERRES
    65   34   35 1    
    66   34   90 1    
    67   35   36 1    
    68   35   37 1    
    69   35   91 1    
    70   36   92 1    
    71   36   93 1    
    72   36   94 1    
    73   37   38 2    
    74   37   39 am   BACKBONE|DICT|INTERRES
    75   39   40 1    
    76   39   95 1    
    77   40   41 1    
    78   40   42 1    
    79   40   96 1    
    80   41   97 1    
    81   41   98 1    
    82   41   99 1    
    83   42   43 2    
    84   42   44 am   BACKBONE|DICT|INTERRES
    85   44   45 1    
    86   44  100 1    
    87   45   46 1    
    88   45   47 1    
    89   45  101 1    
    90   46  102 1    
    91   46  103 1    
    92   46  104 1    
    93   47   48 2    
    94   47   49 am   BACKBONE|DICT|INTERRES
    95   49   50 1    
    96   49  105 1    
    97   50   51 1    
    98   50   52 1    
    99   50  106 1    
   100   51  107 1    
   101   51  108 1    
   102   51  109 1    
   103   52   53 2    
   104   52   54 am   BACKBONE|DICT|INTERRES
   105   54   55 1    
   106   54  110 1    
   107   55   56 1    
   108   55   59 1    
   109   55  111 1    
   110   56   57 am   BACKBONE|DICT|INTERRES
   111   56   58 2    
   112   57  112 1    
   113   57  113 1    
   114   59   60 1    
   115   59  114 1    
   116   59  115 1    
   117   60   61 1    
   118   61  116 1    
   119   61  117 1    
@<TRIPOS>SUBSTRUCTURE
     1 UNK         1 GROUP             0       ****    0 ROOT    
