@<TRIPOS>MOLECULE
3R8
117   119    1
SMALL
USER_CHARGES


@<TRIPOS>ATOM
      1 CA         17.0620  -26.8294  -38.9656 C.3       0 UNK        -0.2013 
      2 C          16.7757  -26.3834  -40.3914 C.2       0 UNK         0.4866 
      3 O          16.3524  -25.2464  -40.6053 O.2       0 UNK        -0.5176 
      4 N          16.9919  -27.2751  -41.3655 N.am      1 UNK        -0.4884 
      5 CA         16.8460  -27.0039  -42.7989 C.3       1 UNK         0.0853 
      6 C6         16.6716  -28.3250  -43.5904 C.3       10 UNK        -0.0849 
      7 S7         15.7121  -28.0921  -45.1258 S.3       10 UNK        -0.2776 
      8 C8         15.4872  -29.8145  -45.6750 C.3       10 UNK         0.0316 
      9 C9         16.8200  -30.4878  -45.9649 C.ar      10 UNK        -0.0863 
     10 C10        17.3192  -31.4675  -45.1004 C.ar      10 UNK        -0.1009 
     11 C11        18.5641  -32.0566  -45.3416 C.ar      10 UNK        -0.0712 
     12 C12        19.2973  -31.6763  -46.4680 C.ar      10 UNK        -0.0894 
     13 C13        18.8222  -30.6759  -47.3204 C.ar      10 UNK        -0.0745 
     14 C14        17.5725  -30.1005  -47.0777 C.ar      10 UNK        -0.0972 
     15 C15        19.6954  -30.1682  -48.4580 C.3       10 UNK         0.0209 
     16 S16        20.4137  -28.5309  -48.0856 S.3       10 UNK        -0.2568 
     17 C17        21.3004  -28.8360  -46.5139 C.3       10 UNK        -0.0983 
     18 CA         21.5563  -27.5527  -45.6821 C.3       3 UNK         0.0876 
     19 N          20.3298  -26.7717  -45.4933 N.am      3 UNK        -0.4424 
     20 C          20.2678  -25.4361  -45.4351 C.2       2 UNK         0.4918 
     21 O          21.2534  -24.7016  -45.5013 O.2       2 UNK        -0.4875 
     22 CA         18.8705  -24.8077  -45.2599 C.3       2 UNK         0.0481 
     23 CB         18.3042  -24.3908  -46.6264 C.3       2 UNK        -0.1831 
     24 N          17.8903  -25.6610  -44.5747 N.am      2 UNK        -0.4498 
     25 C          18.0228  -26.1555  -43.3362 C.2       1 UNK         0.5027 
     26 O          19.0353  -25.9850  -42.6540 O.2       1 UNK        -0.4969 
     27 C          22.2489  -27.9077  -44.3438 C.2       3 UNK         0.5005 
     28 O          23.2028  -28.6877  -44.3661 O.2       3 UNK        -0.5279 
     29 N          21.7728  -27.3782  -43.2029 N.am      4 UNK        -0.4463 
     30 CA         22.2745  -27.6524  -41.8479 C.3       4 UNK         0.0283 
     31 CB         21.2149  -27.2176  -40.8183 C.3       4 UNK        -0.1875 
     32 C          23.6626  -27.0421  -41.5526 C.2       4 UNK         0.4949 
     33 O          23.8152  -26.2676  -40.6069 O.2       4 UNK        -0.5039 
     34 N          24.6590  -27.4377  -42.3456 N.am      5 UNK        -0.4663 
     35 CA         26.0818  -27.2036  -42.1367 C.3       5 UNK         0.0242 
     36 CB         26.4909  -25.8731  -42.7972 C.3       5 UNK        -0.1982 
     37 C          26.8226  -28.4128  -42.7389 C.2       5 UNK         0.5017 
     38 O          27.0256  -28.4251  -43.9526 O.2       5 UNK        -0.5012 
     39 N          27.2091  -29.4426  -41.9673 N.am      6 UNK        -0.4439 
     40 CA         27.0161  -29.6523  -40.5272 C.3       6 UNK         0.0297 
     41 CB         27.8062  -30.9015  -40.1036 C.3       6 UNK        -0.2006 
     42 C          25.5387  -29.8110  -40.1307 C.2       6 UNK         0.4892 
     43 O          24.7221  -30.2458  -40.9440 O.2       6 UNK        -0.5089 
     44 N          25.2328  -29.4662  -38.8742 N.am      7 UNK        -0.4243 
     45 CA         23.8873  -29.3227  -38.3016 C.3       7 UNK         0.0196 
     46 CB         24.0053  -28.5707  -36.9632 C.3       7 UNK        -0.2007 
     47 C          23.0446  -30.6100  -38.1572 C.2       7 UNK         0.5020 
     48 O          22.0449  -30.5908  -37.4385 O.2       7 UNK        -0.5147 
     49 N          23.4111  -31.6953  -38.8507 N.am      8 UNK        -0.4734 
     50 CA         22.6677  -32.9607  -38.8962 C.3       8 UNK         0.0238 
     51 CB         23.4941  -34.0065  -39.6617 C.3       8 UNK        -0.1912 
     52 C          21.2644  -32.8201  -39.5161 C.2       8 UNK         0.5038 
     53 O          20.3507  -33.5390  -39.1102 O.2       8 UNK        -0.5046 
     54 N          21.1219  -31.8794  -40.4580 N.am      9 UNK        -0.4200 
     55 CA         19.8458  -31.4657  -41.0618 C.3       9 UNK         0.0839 
     56 C          19.1077  -30.3539  -40.2578 C.2       9 UNK         0.5513 
     57 N          19.5702  -29.9493  -39.0800 N.am      9 UNK        -0.7519 
     58 O          18.0895  -29.8398  -40.7137 O.2       9 UNK        -0.4960 
     59 C59        20.0216  -31.0746  -42.5524 C.3       10 UNK        -0.0876 
     60 S60        20.6597  -32.4563  -43.5621 S.3       10 UNK        -0.2414 
     61 C61        19.1423  -33.0722  -44.3662 C.3       10 UNK         0.0169 
     62 H62        16.2623  -26.5054  -38.3001 H         1 UNK         0.0903 
     63 H63        17.9967  -26.3913  -38.6168 H         1 UNK         0.0903 
     64 H64        17.1405  -27.9136  -38.8912 H         1 UNK         0.0903 
     65 H65        17.3690  -28.1910  -41.1267 H         1 UNK         0.3096 
     66 H66        15.9393  -26.4055  -42.9166 H         1 UNK         0.1121 
     67 H67        17.6358  -28.7850  -43.8163 H         1 UNK         0.0849 
     68 H68        16.1297  -29.0551  -42.9861 H         1 UNK         0.0849 
     69 H69        14.9260  -30.3657  -44.9187 H         1 UNK         0.0865 
     70 H70        14.8738  -29.8237  -46.5772 H         1 UNK         0.0865 
     71 H71        16.7509  -31.7526  -44.2254 H         1 UNK         0.1346 
     72 H72        20.2700  -32.1161  -46.6423 H         1 UNK         0.1412 
     73 H73        17.2060  -29.3184  -47.7290 H         1 UNK         0.1426 
     74 H74        19.1012  -30.0975  -49.3701 H         1 UNK         0.0716 
     75 H75        20.5025  -30.8711  -48.6705 H         1 UNK         0.0716 
     76 H76        20.7370  -29.5397  -45.9033 H         1 UNK         0.0695 
     77 H77        22.2417  -29.3323  -46.7577 H         1 UNK         0.0695 
     78 H78        22.2718  -26.9450  -46.2405 H         1 UNK         0.0983 
     79 H79        19.4689  -27.2966  -45.4521 H         1 UNK         0.3095 
     80 H80        18.9950  -23.9078  -44.6544 H         1 UNK         0.0454 
     81 H81        18.9961  -23.7307  -47.1516 H         1 UNK         0.0851 
     82 H82        18.1268  -25.2538  -47.2698 H         1 UNK         0.0851 
     83 H83        17.3636  -23.8503  -46.5203 H         1 UNK         0.0851 
     84 H84        17.0474  -25.8844  -45.0874 H         1 UNK         0.2976 
     85 H85        20.9832  -26.7445  -43.2588 H         1 UNK         0.3116 
     86 H86        22.3912  -28.7335  -41.7500 H         1 UNK         0.0646 
     87 H87        21.5122  -27.4772  -39.8026 H         1 UNK         0.0847 
     88 H88        20.2573  -27.7028  -41.0032 H         1 UNK         0.0847 
     89 H89        21.0517  -26.1396  -40.8418 H         1 UNK         0.0847 
     90 H90        24.4209  -28.0748  -43.1057 H         1 UNK         0.3040 
     91 H91        26.2964  -27.1256  -41.0707 H         1 UNK         0.1015 
     92 H92        25.9871  -25.0283  -42.3272 H         1 UNK         0.0786 
     93 H93        26.2477  -25.8548  -43.8604 H         1 UNK         0.0786 
     94 H94        27.5643  -25.7053  -42.7022 H         1 UNK         0.0786 
     95 H95        27.6473  -30.2154  -42.4458 H         1 UNK         0.3172 
     96 H96        27.4331  -28.7922  -40.0001 H         1 UNK         0.0595 
     97 H97        27.4432  -31.7992  -40.6065 H         1 UNK         0.0839 
     98 H98        27.7243  -31.0765  -39.0298 H         1 UNK         0.0839 
     99 H99        28.8678  -30.7969  -40.3292 H         1 UNK         0.0839 
    100 H100       25.9896  -29.1817  -38.2685 H         1 UNK         0.2998 
    101 H101       23.3260  -28.6836  -38.9831 H         1 UNK         0.0822 
    102 H102       24.5198  -27.6174  -37.0872 H         1 UNK         0.0787 
    103 H103       23.0232  -28.3458  -36.5446 H         1 UNK         0.0787 
    104 H104       24.5505  -29.1553  -36.2212 H         1 UNK         0.0787 
    105 H105       24.1882  -31.5919  -39.4928 H         1 UNK         0.3055 
    106 H106       22.5353  -33.3076  -37.8689 H         1 UNK         0.1106 
    107 H107       23.6786  -33.7000  -40.6923 H         1 UNK         0.0828 
    108 H108       24.4588  -34.1780  -39.1839 H         1 UNK         0.0828 
    109 H109       22.9754  -34.9657  -39.6947 H         1 UNK         0.0828 
    110 H110       21.9368  -31.3475  -40.7259 H         1 UNK         0.2931 
    111 H111       19.1678  -32.3209  -41.0412 H         1 UNK         0.0412 
    112 H112       19.0680  -29.2382  -38.5757 H         1 UNK         0.3472 
    113 H113       20.3911  -30.3674  -38.6600 H         1 UNK         0.3472 
    114 H114       20.7109  -30.2352  -42.6489 H         1 UNK         0.0970 
    115 H115       19.0779  -30.7301  -42.9762 H         1 UNK         0.0970 
    116 H116       18.4145  -33.3396  -43.5985 H         1 UNK         0.0612 
    117 H117       19.3764  -33.9912  -44.9051 H         1 UNK         0.0612 
@<TRIPOS>BOND
     1    1    2 1    
     2    1   62 1    
     3    1   63 1    
     4    1   64 1    
     5    2    3 2    
     6    2    4 am   BACKBONE|DICT|INTERRES
     7    4    5 1    
     8    4   65 1    
     9    5    6 1    
    10    5   25 1    
    11    5   66 1    
    12    6    7 1    
    13    6   67 1    
    14    6   68 1    
    15    7    8 1    
    16    8    9 1    
    17    8   69 1    
    18    8   70 1    
    19    9   10 ar   
    20    9   14 ar   
    21   10   11 ar   
    22   10   71 1    
    23   11   12 ar   
    24   11   61 1    
    25   12   13 ar   
    26   12   72 1    
    27   13   14 ar   
    28   13   15 1    
    29   14   73 1    
    30   15   16 1    
    31   15   74 1    
    32   15   75 1    
    33   16   17 1    
    34   17   18 1    
    35   17   76 1    
    36   17   77 1    
    37   18   19 1    
    38   18   27 1    
    39   18   78 1    
    40   19   20 am   BACKBONE|DICT|INTERRES
    41   19   79 1    
    42   20   21 2    
    43   20   22 1    
    44   22   23 1    
    45   22   24 1    
    46   22   80 1    
    47   23   81 1    
    48   23   82 1    
    49   23   83 1    
    50   24   25 am   BACKBONE|DICT|INTERRES
    51   24   84 1    
    52   25   26 2    
    53   27   28 2    
    54   27   29 am   BACKBONE|DICT|INTERRES
    55   29   30 1    
    56   29   85 1    
    57   30   31 1    
    58   30   32 1    
    59   30   86 1    
    60   31   87 1    
    61   31   88 1    
    62   31   89 1    
    63   32   33 2    
    64   32   34 am   BACKBONE|DICT|INTERRES
    65   34   35 1    
    66   34   90 1    
    67   35   36 1    
    68   35   37 1    
    69   35   91 1    
    70   36   92 1    
    71   36   93 1    
    72   36   94 1    
    73   37   38 2    
    74   37   39 am   BACKBONE|DICT|INTERRES
    75   39   40 1    
    76   39   95 1    
    77   40   41 1    
    78   40   42 1    
    79   40   96 1    
    80   41   97 1    
    81   41   98 1    
    82   41   99 1    
    83   42   43 2    
    84   42   44 am   BACKBONE|DICT|INTERRES
    85   44   45 1    
    86   44  100 1    
    87   45   46 1    
    88   45   47 1    
    89   45  101 1    
    90   46  102 1    
    91   46  103 1    
    92   46  104 1    
    93   47   48 2    
    94   47   49 am   BACKBONE|DICT|INTERRES
    95   49   50 1    
    96   49  105 1    
    97   50   51 1    
    98   50   52 1    
    99   50  106 1    
   100   51  107 1    
   101   51  108 1    
   102   51  109 1    
   103   52   53 2    
   104   52   54 am   BACKBONE|DICT|INTERRES
   105   54   55 1    
   106   54  110 1    
   107   55   56 1    
   108   55   59 1    
   109   55  111 1    
   110   56   57 am   BACKBONE|DICT|INTERRES
   111   56   58 2    
   112   57  112 1    
   113   57  113 1    
   114   59   60 1    
   115   59  114 1    
   116   59  115 1    
   117   60   61 1    
   118   61  116 1    
   119   61  117 1    
@<TRIPOS>SUBSTRUCTURE
     1 UNK         1 GROUP             0       ****    0 ROOT    
