@<TRIPOS>MOLECULE
3R8
117   119    1
SMALL
USER_CHARGES


@<TRIPOS>ATOM
      1 CA         12.6743  -24.8362  -44.1249 C.3       0 UNK        -0.2013 
      2 C          13.6618  -25.7240  -43.3811 C.2       0 UNK         0.4866 
      3 O          13.3026  -26.2914  -42.3489 O.2       0 UNK        -0.5176 
      4 N          14.8892  -25.8403  -43.9112 N.am      1 UNK        -0.4884 
      5 CA         16.0384  -26.6013  -43.3867 C.3       1 UNK         0.0853 
      6 C6         15.7241  -28.1024  -43.1074 C.3       10 UNK        -0.0849 
      7 S7         14.9965  -29.0270  -44.5073 S.3       10 UNK        -0.2776 
      8 C8         16.0976  -28.6387  -45.9161 C.3       10 UNK         0.0316 
      9 C9         17.5580  -29.0697  -45.7622 C.ar      10 UNK        -0.0863 
     10 C10        17.9405  -30.1467  -44.9525 C.ar      10 UNK        -0.1009 
     11 C11        19.2768  -30.5531  -44.8812 C.ar      10 UNK        -0.0712 
     12 C12        20.2406  -29.8805  -45.6405 C.ar      10 UNK        -0.0894 
     13 C13        19.8700  -28.8282  -46.4843 C.ar      10 UNK        -0.0745 
     14 C14        18.5337  -28.4184  -46.5241 C.ar      10 UNK        -0.0972 
     15 C15        20.8825  -28.2028  -47.4369 C.3       10 UNK         0.0209 
     16 S16        21.3492  -26.5060  -46.9744 S.3       10 UNK        -0.2568 
     17 C17        22.5775  -26.8007  -45.6605 C.3       10 UNK        -0.0983 
     18 CA         22.1367  -26.1885  -44.3121 C.3       3 UNK         0.0876 
     19 N          20.8812  -26.7717  -43.8374 N.am      3 UNK        -0.4424 
     20 C          20.1491  -26.2846  -42.8316 C.2       2 UNK         0.4918 
     21 O          20.4231  -25.2535  -42.2120 O.2       2 UNK        -0.4875 
     22 CA         18.9120  -27.1026  -42.4468 C.3       2 UNK         0.0481 
     23 CB         19.3133  -28.2138  -41.4654 C.3       2 UNK        -0.1831 
     24 N          17.9400  -26.2251  -41.7915 N.am      2 UNK        -0.4498 
     25 C          16.6899  -25.9098  -42.1590 C.2       1 UNK         0.5027 
     26 O          16.0627  -25.0574  -41.5284 O.2       1 UNK        -0.4969 
     27 C          23.2380  -26.3786  -43.2540 C.2       3 UNK         0.5005 
     28 O          23.4139  -27.4976  -42.7717 O.2       3 UNK        -0.5279 
     29 N          23.9765  -25.3055  -42.9347 N.am      4 UNK        -0.4463 
     30 CA         24.9847  -25.2511  -41.8648 C.3       4 UNK         0.0283 
     31 CB         25.5666  -23.8303  -41.7901 C.3       4 UNK        -0.1875 
     32 C          26.1210  -26.2862  -41.9722 C.2       4 UNK         0.4949 
     33 O          26.6945  -26.6589  -40.9488 O.2       4 UNK        -0.5039 
     34 N          26.4107  -26.7464  -43.1964 N.am      5 UNK        -0.4663 
     35 CA         27.3897  -27.7952  -43.4913 C.3       5 UNK         0.0242 
     36 CB         27.6586  -27.8098  -45.0053 C.3       5 UNK        -0.1982 
     37 C          26.9753  -29.1995  -43.0082 C.2       5 UNK         0.5017 
     38 O          27.8487  -30.0572  -42.8718 O.2       5 UNK        -0.5012 
     39 N          25.6760  -29.4233  -42.7683 N.am      6 UNK        -0.4439 
     40 CA         25.1138  -30.6983  -42.3250 C.3       6 UNK         0.0297 
     41 CB         24.8869  -31.6276  -43.5355 C.3       6 UNK        -0.2006 
     42 C          23.8323  -30.4311  -41.5260 C.2       6 UNK         0.4892 
     43 O          22.7829  -30.9887  -41.8453 O.2       6 UNK        -0.5089 
     44 N          23.9384  -29.5600  -40.5115 N.am      7 UNK        -0.4243 
     45 CA         22.8129  -29.0006  -39.7511 C.3       7 UNK         0.0196 
     46 CB         23.3456  -27.9444  -38.7701 C.3       7 UNK        -0.2007 
     47 C          21.9408  -30.0310  -39.0104 C.2       7 UNK         0.5020 
     48 O          20.7653  -29.7605  -38.7667 O.2       7 UNK        -0.5147 
     49 N          22.5208  -31.1878  -38.6663 N.am      8 UNK        -0.4734 
     50 CA         21.8101  -32.3170  -38.0610 C.3       8 UNK         0.0238 
     51 CB         22.8209  -33.1870  -37.2948 C.3       8 UNK        -0.1912 
     52 C          21.0361  -33.1702  -39.0847 C.2       8 UNK         0.5038 
     53 O          20.1727  -33.9460  -38.6726 O.2       8 UNK        -0.5046 
     54 N          21.3697  -33.0408  -40.3780 N.am      9 UNK        -0.4200 
     55 CA         20.8277  -33.8145  -41.5085 C.3       9 UNK         0.0839 
     56 C          21.0792  -35.3527  -41.4327 C.2       9 UNK         0.5513 
     57 N          22.0814  -35.8185  -40.6964 N.am      9 UNK        -0.7519 
     58 O          20.3834  -36.1375  -42.0727 O.2       9 UNK        -0.4960 
     59 C59        19.3533  -33.4471  -41.8413 C.3       10 UNK        -0.0876 
     60 S60        19.1517  -31.6987  -42.3274 S.3       10 UNK        -0.2414 
     61 C61        19.6582  -31.7896  -44.0756 C.3       10 UNK         0.0169 
     62 H62        12.3460  -24.0203  -43.4815 H         1 UNK         0.0903 
     63 H63        13.1091  -24.4034  -45.0256 H         1 UNK         0.0903 
     64 H64        11.7976  -25.4139  -44.4167 H         1 UNK         0.0903 
     65 H65        15.0916  -25.3092  -44.7467 H         1 UNK         0.3096 
     66 H66        16.7783  -26.5421  -44.1835 H         1 UNK         0.1121 
     67 H67        16.6192  -28.6428  -42.8025 H         1 UNK         0.0849 
     68 H68        15.0422  -28.1962  -42.2612 H         1 UNK         0.0849 
     69 H69        15.6962  -29.1396  -46.7979 H         1 UNK         0.0865 
     70 H70        16.0357  -27.5715  -46.1314 H         1 UNK         0.0865 
     71 H71        17.1975  -30.6963  -44.3919 H         1 UNK         0.1346 
     72 H72        21.2688  -30.2162  -45.6210 H         1 UNK         0.1412 
     73 H73        18.2481  -27.6141  -47.1891 H         1 UNK         0.1426 
     74 H74        21.7777  -28.8211  -47.5204 H         1 UNK         0.0716 
     75 H75        20.4486  -28.1762  -48.4376 H         1 UNK         0.0716 
     76 H76        22.7629  -27.8718  -45.5558 H         1 UNK         0.0695 
     77 H77        23.5205  -26.3604  -45.9904 H         1 UNK         0.0695 
     78 H78        21.9727  -25.1181  -44.4563 H         1 UNK         0.0983 
     79 H79        20.5985  -27.6308  -44.2869 H         1 UNK         0.3095 
     80 H80        18.5201  -27.5595  -43.3536 H         1 UNK         0.0454 
     81 H81        20.0701  -28.8689  -41.9000 H         1 UNK         0.0851 
     82 H82        19.7284  -27.8076  -40.5424 H         1 UNK         0.0851 
     83 H83        18.4624  -28.8392  -41.1970 H         1 UNK         0.0851 
     84 H84        18.3362  -25.6917  -41.0299 H         1 UNK         0.2976 
     85 H85        23.7759  -24.4298  -43.3971 H         1 UNK         0.3116 
     86 H86        24.4623  -25.4504  -40.9274 H         1 UNK         0.0646 
     87 H87        26.2991  -23.7496  -40.9854 H         1 UNK         0.0847 
     88 H88        24.7906  -23.0910  -41.5909 H         1 UNK         0.0847 
     89 H89        26.0699  -23.5507  -42.7165 H         1 UNK         0.0847 
     90 H90        25.8860  -26.3792  -43.9766 H         1 UNK         0.3040 
     91 H91        28.3207  -27.5416  -42.9790 H         1 UNK         0.1015 
     92 H92        28.0331  -26.8465  -45.3522 H         1 UNK         0.0786 
     93 H93        26.7576  -28.0463  -45.5731 H         1 UNK         0.0786 
     94 H94        28.4104  -28.5579  -45.2615 H         1 UNK         0.0786 
     95 H95        25.0076  -28.6598  -42.8613 H         1 UNK         0.3172 
     96 H96        25.8119  -31.1847  -41.6405 H         1 UNK         0.0595 
     97 H97        24.1924  -31.1876  -44.2523 H         1 UNK         0.0839 
     98 H98        24.4701  -32.5854  -43.2214 H         1 UNK         0.0839 
     99 H99        25.8199  -31.8382  -44.0580 H         1 UNK         0.0839 
    100 H100       24.8452  -29.1529  -40.3319 H         1 UNK         0.2998 
    101 H101       22.1665  -28.4967  -40.4721 H         1 UNK         0.0822 
    102 H102       23.8808  -27.1519  -39.2927 H         1 UNK         0.0787 
    103 H103       22.5288  -27.4738  -38.2209 H         1 UNK         0.0787 
    104 H104       24.0240  -28.3817  -38.0365 H         1 UNK         0.0787 
    105 H105       23.4959  -31.3206  -38.8926 H         1 UNK         0.3055 
    106 H106       21.0795  -31.9330  -37.3450 H         1 UNK         0.1106 
    107 H107       22.3233  -34.0269  -36.8074 H         1 UNK         0.0828 
    108 H108       23.5842  -33.5999  -37.9553 H         1 UNK         0.0828 
    109 H109       23.3243  -32.6160  -36.5145 H         1 UNK         0.0828 
    110 H110       22.0337  -32.3208  -40.6443 H         1 UNK         0.2931 
    111 H111       21.4289  -33.5054  -42.3638 H         1 UNK         0.0412 
    112 H112       22.2464  -36.8123  -40.6589 H         1 UNK         0.3472 
    113 H113       22.6712  -35.1880  -40.1780 H         1 UNK         0.3472 
    114 H114       18.9645  -34.0677  -42.6502 H         1 UNK         0.0970 
    115 H115       18.7099  -33.6462  -40.9832 H         1 UNK         0.0970 
    116 H116       20.7358  -31.9564  -44.1140 H         1 UNK         0.0612 
    117 H117       19.1912  -32.6562  -44.5451 H         1 UNK         0.0612 
@<TRIPOS>BOND
     1    1    2 1    
     2    1   62 1    
     3    1   63 1    
     4    1   64 1    
     5    2    3 2    
     6    2    4 am   BACKBONE|DICT|INTERRES
     7    4    5 1    
     8    4   65 1    
     9    5    6 1    
    10    5   25 1    
    11    5   66 1    
    12    6    7 1    
    13    6   67 1    
    14    6   68 1    
    15    7    8 1    
    16    8    9 1    
    17    8   69 1    
    18    8   70 1    
    19    9   10 ar   
    20    9   14 ar   
    21   10   11 ar   
    22   10   71 1    
    23   11   12 ar   
    24   11   61 1    
    25   12   13 ar   
    26   12   72 1    
    27   13   14 ar   
    28   13   15 1    
    29   14   73 1    
    30   15   16 1    
    31   15   74 1    
    32   15   75 1    
    33   16   17 1    
    34   17   18 1    
    35   17   76 1    
    36   17   77 1    
    37   18   19 1    
    38   18   27 1    
    39   18   78 1    
    40   19   20 am   BACKBONE|DICT|INTERRES
    41   19   79 1    
    42   20   21 2    
    43   20   22 1    
    44   22   23 1    
    45   22   24 1    
    46   22   80 1    
    47   23   81 1    
    48   23   82 1    
    49   23   83 1    
    50   24   25 am   BACKBONE|DICT|INTERRES
    51   24   84 1    
    52   25   26 2    
    53   27   28 2    
    54   27   29 am   BACKBONE|DICT|INTERRES
    55   29   30 1    
    56   29   85 1    
    57   30   31 1    
    58   30   32 1    
    59   30   86 1    
    60   31   87 1    
    61   31   88 1    
    62   31   89 1    
    63   32   33 2    
    64   32   34 am   BACKBONE|DICT|INTERRES
    65   34   35 1    
    66   34   90 1    
    67   35   36 1    
    68   35   37 1    
    69   35   91 1    
    70   36   92 1    
    71   36   93 1    
    72   36   94 1    
    73   37   38 2    
    74   37   39 am   BACKBONE|DICT|INTERRES
    75   39   40 1    
    76   39   95 1    
    77   40   41 1    
    78   40   42 1    
    79   40   96 1    
    80   41   97 1    
    81   41   98 1    
    82   41   99 1    
    83   42   43 2    
    84   42   44 am   BACKBONE|DICT|INTERRES
    85   44   45 1    
    86   44  100 1    
    87   45   46 1    
    88   45   47 1    
    89   45  101 1    
    90   46  102 1    
    91   46  103 1    
    92   46  104 1    
    93   47   48 2    
    94   47   49 am   BACKBONE|DICT|INTERRES
    95   49   50 1    
    96   49  105 1    
    97   50   51 1    
    98   50   52 1    
    99   50  106 1    
   100   51  107 1    
   101   51  108 1    
   102   51  109 1    
   103   52   53 2    
   104   52   54 am   BACKBONE|DICT|INTERRES
   105   54   55 1    
   106   54  110 1    
   107   55   56 1    
   108   55   59 1    
   109   55  111 1    
   110   56   57 am   BACKBONE|DICT|INTERRES
   111   56   58 2    
   112   57  112 1    
   113   57  113 1    
   114   59   60 1    
   115   59  114 1    
   116   59  115 1    
   117   60   61 1    
   118   61  116 1    
   119   61  117 1    
@<TRIPOS>SUBSTRUCTURE
     1 UNK         1 GROUP             0       ****    0 ROOT    
