@<TRIPOS>MOLECULE
3R8
117   119    1
SMALL
USER_CHARGES


@<TRIPOS>ATOM
      1 CA         20.2163  -25.0740  -39.9654 C.3       0 UNK        -0.2013 
      2 C          19.6603  -25.5999  -41.2791 C.2       0 UNK         0.4866 
      3 O          20.3075  -26.4253  -41.9276 O.2       0 UNK        -0.5176 
      4 N          18.4717  -25.1126  -41.6648 N.am      1 UNK        -0.4884 
      5 CA         17.7919  -25.3410  -42.9480 C.3       1 UNK         0.0853 
      6 C6         17.6080  -26.8499  -43.2730 C.3       10 UNK        -0.0849 
      7 S7         16.2062  -27.1917  -44.3938 S.3       10 UNK        -0.2776 
      8 C8         16.0690  -29.0051  -44.2664 C.3       10 UNK         0.0316 
      9 C9         17.4054  -29.7003  -44.4888 C.ar      10 UNK        -0.0863 
     10 C10        18.0352  -30.3618  -43.4310 C.ar      10 UNK        -0.1009 
     11 C11        19.2713  -30.9856  -43.6181 C.ar      10 UNK        -0.0712 
     12 C12        19.8849  -30.9327  -44.8741 C.ar      10 UNK        -0.0894 
     13 C13        19.2667  -30.2712  -45.9412 C.ar      10 UNK        -0.0745 
     14 C14        18.0190  -29.6700  -45.7444 C.ar      10 UNK        -0.0972 
     15 C15        19.9375  -30.2294  -47.3101 C.3       10 UNK         0.0209 
     16 S16        20.1256  -28.5374  -47.9658 S.3       10 UNK        -0.2568 
     17 C17        21.3155  -27.8176  -46.7868 C.3       10 UNK        -0.0983 
     18 CA         21.3854  -26.2720  -46.8841 C.3       3 UNK         0.0876 
     19 N          20.0772  -25.6617  -46.6394 N.am      3 UNK        -0.4424 
     20 C          19.7293  -24.4145  -46.9781 C.2       2 UNK         0.4918 
     21 O          20.4575  -23.6417  -47.6010 O.2       2 UNK        -0.4875 
     22 CA         18.3386  -23.9413  -46.5151 C.3       2 UNK         0.0481 
     23 CB         17.3054  -24.1464  -47.6340 C.3       2 UNK        -0.1831 
     24 N          17.8648  -24.6026  -45.2922 N.am      2 UNK        -0.4498 
     25 C          18.4660  -24.5501  -44.0951 C.2       1 UNK         0.5027 
     26 O          19.5050  -23.9150  -43.8964 O.2       1 UNK        -0.4969 
     27 C          22.4783  -25.7375  -45.9314 C.2       3 UNK         0.5005 
     28 O          23.6592  -25.9159  -46.2340 O.2       3 UNK        -0.5279 
     29 N          22.0815  -25.1414  -44.7905 N.am      4 UNK        -0.4463 
     30 CA         22.9257  -24.7613  -43.6465 C.3       4 UNK         0.0283 
     31 CB         23.8625  -23.5916  -44.0132 C.3       4 UNK        -0.1875 
     32 C          23.6734  -25.9715  -43.0463 C.2       4 UNK         0.4949 
     33 O          24.8266  -25.8513  -42.6299 O.2       4 UNK        -0.5039 
     34 N          23.0005  -27.1278  -43.0559 N.am      5 UNK        -0.4663 
     35 CA         23.5498  -28.4310  -42.6917 C.3       5 UNK         0.0242 
     36 CB         22.8831  -29.4932  -43.5764 C.3       5 UNK        -0.1982 
     37 C          23.3498  -28.7546  -41.2053 C.2       5 UNK         0.5017 
     38 O          24.2033  -29.4253  -40.6227 O.2       5 UNK        -0.5012 
     39 N          22.2435  -28.2670  -40.6205 N.am      6 UNK        -0.4439 
     40 CA         21.8648  -28.3890  -39.2088 C.3       6 UNK         0.0297 
     41 CB         22.6932  -27.3917  -38.3641 C.3       6 UNK        -0.2006 
     42 C          21.9222  -29.8429  -38.6913 C.2       6 UNK         0.4892 
     43 O          21.1528  -30.6857  -39.1566 O.2       6 UNK        -0.5089 
     44 N          22.8386  -30.1061  -37.7497 N.am      7 UNK        -0.4243 
     45 CA         23.0530  -31.3878  -37.0770 C.3       7 UNK         0.0196 
     46 CB         23.9973  -31.1656  -35.8835 C.3       7 UNK        -0.2007 
     47 C          23.5810  -32.5202  -37.9766 C.2       7 UNK         0.5020 
     48 O          23.5740  -33.6685  -37.5328 O.2       7 UNK        -0.5147 
     49 N          24.0111  -32.2190  -39.2125 N.am      8 UNK        -0.4734 
     50 CA         24.4909  -33.2115  -40.1861 C.3       8 UNK         0.0238 
     51 CB         25.0546  -32.4927  -41.4200 C.3       8 UNK        -0.1912 
     52 C          23.4323  -34.2522  -40.6043 C.2       8 UNK         0.5038 
     53 O          23.8068  -35.3482  -41.0235 O.2       8 UNK        -0.5046 
     54 N          22.1455  -33.9090  -40.4560 N.am      9 UNK        -0.4200 
     55 CA         21.0132  -34.8403  -40.5766 C.3       9 UNK         0.0839 
     56 C          20.8407  -35.8029  -39.3622 C.2       9 UNK         0.5513 
     57 N          21.5734  -35.6578  -38.2644 N.am      9 UNK        -0.7519 
     58 O          20.0233  -36.7178  -39.4235 O.2       9 UNK        -0.4960 
     59 C59        19.6937  -34.0864  -40.8867 C.3       10 UNK        -0.0876 
     60 S60        19.6136  -33.5159  -42.6164 S.3       10 UNK        -0.2414 
     61 C61        19.9253  -31.7321  -42.4645 C.3       10 UNK         0.0169 
     62 H62        21.2765  -24.8475  -40.0735 H         1 UNK         0.0903 
     63 H63        19.7120  -24.1612  -39.6492 H         1 UNK         0.0903 
     64 H64        20.0970  -25.8169  -39.1786 H         1 UNK         0.0903 
     65 H65        18.0229  -24.4268  -41.0731 H         1 UNK         0.3096 
     66 H66        16.8016  -24.8998  -42.8212 H         1 UNK         0.1121 
     67 H67        17.4238  -27.4037  -42.3509 H         1 UNK         0.0849 
     68 H68        18.5218  -27.2726  -43.6954 H         1 UNK         0.0849 
     69 H69        15.6566  -29.2605  -43.2889 H         1 UNK         0.0865 
     70 H70        15.3484  -29.3615  -45.0038 H         1 UNK         0.0865 
     71 H71        17.5617  -30.3957  -42.4593 H         1 UNK         0.1346 
     72 H72        20.8402  -31.4183  -45.0194 H         1 UNK         0.1412 
     73 H73        17.5335  -29.1591  -46.5649 H         1 UNK         0.1426 
     74 H74        19.3368  -30.8111  -48.0104 H         1 UNK         0.0716 
     75 H75        20.9195  -30.7042  -47.2787 H         1 UNK         0.0716 
     76 H76        22.2920  -28.2628  -46.9877 H         1 UNK         0.0695 
     77 H77        21.0404  -28.1205  -45.7747 H         1 UNK         0.0695 
     78 H78        21.6957  -26.0090  -47.8980 H         1 UNK         0.0983 
     79 H79        19.3969  -26.2397  -46.1693 H         1 UNK         0.3095 
     80 H80        18.4091  -22.8720  -46.3057 H         1 UNK         0.0454 
     81 H81        16.3338  -23.7359  -47.3587 H         1 UNK         0.0851 
     82 H82        17.1699  -25.2026  -47.8706 H         1 UNK         0.0851 
     83 H83        17.6180  -23.6449  -48.5510 H         1 UNK         0.0851 
     84 H84        17.0291  -25.1684  -45.3752 H         1 UNK         0.2976 
     85 H85        21.0894  -24.9813  -44.6495 H         1 UNK         0.3116 
     86 H86        22.2451  -24.4082  -42.8703 H         1 UNK         0.0646 
     87 H87        24.6155  -23.8879  -44.7439 H         1 UNK         0.0847 
     88 H88        24.3919  -23.2253  -43.1329 H         1 UNK         0.0847 
     89 H89        23.3042  -22.7522  -44.4273 H         1 UNK         0.0847 
     90 H90        22.0273  -27.0993  -43.3300 H         1 UNK         0.3040 
     91 H91        24.6240  -28.4427  -42.8912 H         1 UNK         0.1015 
     92 H92        21.8008  -29.4814  -43.4532 H         1 UNK         0.0786 
     93 H93        23.2333  -30.4953  -43.3343 H         1 UNK         0.0786 
     94 H94        23.1019  -29.3229  -44.6306 H         1 UNK         0.0786 
     95 H95        21.6002  -27.7313  -41.1976 H         1 UNK         0.3172 
     96 H96        20.8175  -28.0927  -39.1454 H         1 UNK         0.0595 
     97 H97        23.7621  -27.6056  -38.4030 H         1 UNK         0.0839 
     98 H98        22.3838  -27.4028  -37.3180 H         1 UNK         0.0839 
     99 H99        22.5619  -26.3708  -38.7194 H         1 UNK         0.0839 
    100 H100       23.4453  -29.3499  -37.4681 H         1 UNK         0.2998 
    101 H101       22.0871  -31.7199  -36.6904 H         1 UNK         0.0822 
    102 H102       24.1486  -32.0906  -35.3250 H         1 UNK         0.0787 
    103 H103       24.9789  -30.8162  -36.2062 H         1 UNK         0.0787 
    104 H104       23.5912  -30.4334  -35.1853 H         1 UNK         0.0787 
    105 H105       23.9963  -31.2501  -39.5151 H         1 UNK         0.3055 
    106 H106       25.3062  -33.7634  -39.7131 H         1 UNK         0.1106 
    107 H107       24.2794  -31.9326  -41.9396 H         1 UNK         0.0828 
    108 H108       25.8488  -31.7966  -41.1493 H         1 UNK         0.0828 
    109 H109       25.4752  -33.2051  -42.1310 H         1 UNK         0.0828 
    110 H110       21.9340  -32.9885  -40.0965 H         1 UNK         0.2931 
    111 H111       21.2201  -35.4974  -41.4238 H         1 UNK         0.0412 
    112 H112       22.2683  -34.9228  -38.1764 H         1 UNK         0.3472 
    113 H113       21.4385  -36.3027  -37.5020 H         1 UNK         0.3472 
    114 H114       19.5466  -33.2564  -40.1935 H         1 UNK         0.0970 
    115 H115       18.8296  -34.7394  -40.7484 H         1 UNK         0.0970 
    116 H116       19.5390  -31.3597  -41.5145 H         1 UNK         0.0612 
    117 H117       21.0012  -31.5557  -42.4500 H         1 UNK         0.0612 
@<TRIPOS>BOND
     1    1    2 1    
     2    1   62 1    
     3    1   63 1    
     4    1   64 1    
     5    2    3 2    
     6    2    4 am   BACKBONE|DICT|INTERRES
     7    4    5 1    
     8    4   65 1    
     9    5    6 1    
    10    5   25 1    
    11    5   66 1    
    12    6    7 1    
    13    6   67 1    
    14    6   68 1    
    15    7    8 1    
    16    8    9 1    
    17    8   69 1    
    18    8   70 1    
    19    9   10 ar   
    20    9   14 ar   
    21   10   11 ar   
    22   10   71 1    
    23   11   12 ar   
    24   11   61 1    
    25   12   13 ar   
    26   12   72 1    
    27   13   14 ar   
    28   13   15 1    
    29   14   73 1    
    30   15   16 1    
    31   15   74 1    
    32   15   75 1    
    33   16   17 1    
    34   17   18 1    
    35   17   76 1    
    36   17   77 1    
    37   18   19 1    
    38   18   27 1    
    39   18   78 1    
    40   19   20 am   BACKBONE|DICT|INTERRES
    41   19   79 1    
    42   20   21 2    
    43   20   22 1    
    44   22   23 1    
    45   22   24 1    
    46   22   80 1    
    47   23   81 1    
    48   23   82 1    
    49   23   83 1    
    50   24   25 am   BACKBONE|DICT|INTERRES
    51   24   84 1    
    52   25   26 2    
    53   27   28 2    
    54   27   29 am   BACKBONE|DICT|INTERRES
    55   29   30 1    
    56   29   85 1    
    57   30   31 1    
    58   30   32 1    
    59   30   86 1    
    60   31   87 1    
    61   31   88 1    
    62   31   89 1    
    63   32   33 2    
    64   32   34 am   BACKBONE|DICT|INTERRES
    65   34   35 1    
    66   34   90 1    
    67   35   36 1    
    68   35   37 1    
    69   35   91 1    
    70   36   92 1    
    71   36   93 1    
    72   36   94 1    
    73   37   38 2    
    74   37   39 am   BACKBONE|DICT|INTERRES
    75   39   40 1    
    76   39   95 1    
    77   40   41 1    
    78   40   42 1    
    79   40   96 1    
    80   41   97 1    
    81   41   98 1    
    82   41   99 1    
    83   42   43 2    
    84   42   44 am   BACKBONE|DICT|INTERRES
    85   44   45 1    
    86   44  100 1    
    87   45   46 1    
    88   45   47 1    
    89   45  101 1    
    90   46  102 1    
    91   46  103 1    
    92   46  104 1    
    93   47   48 2    
    94   47   49 am   BACKBONE|DICT|INTERRES
    95   49   50 1    
    96   49  105 1    
    97   50   51 1    
    98   50   52 1    
    99   50  106 1    
   100   51  107 1    
   101   51  108 1    
   102   51  109 1    
   103   52   53 2    
   104   52   54 am   BACKBONE|DICT|INTERRES
   105   54   55 1    
   106   54  110 1    
   107   55   56 1    
   108   55   59 1    
   109   55  111 1    
   110   56   57 am   BACKBONE|DICT|INTERRES
   111   56   58 2    
   112   57  112 1    
   113   57  113 1    
   114   59   60 1    
   115   59  114 1    
   116   59  115 1    
   117   60   61 1    
   118   61  116 1    
   119   61  117 1    
@<TRIPOS>SUBSTRUCTURE
     1 UNK         1 GROUP             0       ****    0 ROOT    
