@<TRIPOS>MOLECULE
3R8
117   119    1
SMALL
USER_CHARGES


@<TRIPOS>ATOM
      1 CA         19.8005  -28.3874  -41.1841 C.3       0 UNK        -0.2013 
      2 C          19.0837  -27.6842  -42.3265 C.2       0 UNK         0.4866 
      3 O          19.7227  -27.3366  -43.3181 O.2       0 UNK        -0.5176 
      4 N          17.7704  -27.4540  -42.1866 N.am      1 UNK        -0.4884 
      5 CA         16.8806  -26.8185  -43.1739 C.3       1 UNK         0.0853 
      6 C6         16.5646  -27.7395  -44.3896 C.3       10 UNK        -0.0849 
      7 S7         15.8986  -29.3687  -43.9076 S.3       10 UNK        -0.2776 
      8 C8         16.5986  -30.4464  -45.2030 C.3       10 UNK         0.0316 
      9 C9         18.1188  -30.5212  -45.1394 C.ar      10 UNK        -0.0863 
     10 C10        18.7429  -31.1303  -44.0474 C.ar      10 UNK        -0.1009 
     11 C11        20.1362  -31.2034  -43.9773 C.ar      10 UNK        -0.0712 
     12 C12        20.9064  -30.6616  -45.0103 C.ar      10 UNK        -0.0894 
     13 C13        20.2972  -30.0437  -46.1058 C.ar      10 UNK        -0.0745 
     14 C14        18.9010  -29.9848  -46.1690 C.ar      10 UNK        -0.0972 
     15 C15        21.1501  -29.4698  -47.2315 C.3       10 UNK         0.0209 
     16 S16        20.9949  -27.6609  -47.3952 S.3       10 UNK        -0.2568 
     17 C17        21.8497  -27.0540  -45.8999 C.3       10 UNK        -0.0983 
     18 CA         21.5464  -25.5567  -45.6287 C.3       3 UNK         0.0876 
     19 N          20.1087  -25.2733  -45.5405 N.am      3 UNK        -0.4424 
     20 C          19.5599  -24.0525  -45.6416 C.2       2 UNK         0.4918 
     21 O          20.2100  -23.0316  -45.8684 O.2       2 UNK        -0.4875 
     22 CA         18.0312  -23.9340  -45.4821 C.3       2 UNK         0.0481 
     23 CB         17.3730  -23.6594  -46.8443 C.3       2 UNK        -0.1831 
     24 N          17.4225  -25.1285  -44.8943 N.am      2 UNK        -0.4498 
     25 C          17.4017  -25.4173  -43.5847 C.2       1 UNK         0.5027 
     26 O          17.7933  -24.6376  -42.7127 O.2       1 UNK        -0.4969 
     27 C          22.2724  -25.0408  -44.3697 C.2       3 UNK         0.5005 
     28 O          23.3335  -24.4259  -44.4877 O.2       3 UNK        -0.5279 
     29 N          21.6469  -25.2529  -43.2007 N.am      4 UNK        -0.4463 
     30 CA         21.9033  -24.6783  -41.8708 C.3       4 UNK         0.0283 
     31 CB         21.7169  -23.1496  -41.8908 C.3       4 UNK        -0.1875 
     32 C          23.2425  -25.0575  -41.2141 C.2       4 UNK         0.4949 
     33 O          23.2560  -25.3828  -40.0277 O.2       4 UNK        -0.5039 
     34 N          24.3373  -25.0196  -41.9806 N.am      5 UNK        -0.4663 
     35 CA         25.6881  -25.4034  -41.5550 C.3       5 UNK         0.0242 
     36 CB         26.7078  -24.7122  -42.4756 C.3       5 UNK        -0.1982 
     37 C          25.9083  -26.9285  -41.5500 C.2       5 UNK         0.5017 
     38 O          26.9332  -27.3905  -41.0462 O.2       5 UNK        -0.5012 
     39 N          24.9597  -27.6735  -42.1301 N.am      6 UNK        -0.4439 
     40 CA         24.9299  -29.1321  -42.2005 C.3       6 UNK         0.0297 
     41 CB         23.8912  -29.5330  -43.2604 C.3       6 UNK        -0.2006 
     42 C          24.6230  -29.7908  -40.8399 C.2       6 UNK         0.4892 
     43 O          24.2225  -29.1146  -39.8889 O.2       6 UNK        -0.5089 
     44 N          24.8198  -31.1142  -40.7878 N.am      7 UNK        -0.4243 
     45 CA         24.5655  -31.9763  -39.6294 C.3       7 UNK         0.0196 
     46 CB         25.2254  -33.3423  -39.8974 C.3       7 UNK        -0.2007 
     47 C          23.0659  -32.1451  -39.3095 C.2       7 UNK         0.5020 
     48 O          22.2041  -31.6460  -40.0334 O.2       7 UNK        -0.5147 
     49 N          22.7697  -32.8774  -38.2295 N.am      8 UNK        -0.4734 
     50 CA         21.4120  -33.2537  -37.8308 C.3       8 UNK         0.0238 
     51 CB         21.4150  -33.6251  -36.3360 C.3       8 UNK        -0.1912 
     52 C          20.8791  -34.3984  -38.7148 C.2       8 UNK         0.5038 
     53 O          20.9659  -35.5637  -38.3224 O.2       8 UNK        -0.5046 
     54 N          20.3664  -34.0464  -39.9013 N.am      9 UNK        -0.4200 
     55 CA         19.7874  -34.9797  -40.8869 C.3       9 UNK         0.0839 
     56 C          18.4781  -35.6899  -40.4314 C.2       9 UNK         0.5513 
     57 N          17.7773  -35.2082  -39.4115 N.am      9 UNK        -0.7519 
     58 O          18.0929  -36.6980  -41.0180 O.2       9 UNK        -0.4960 
     59 C59        19.5765  -34.3159  -42.2754 C.3       10 UNK        -0.0876 
     60 S60        21.1071  -33.6127  -42.9780 S.3       10 UNK        -0.2414 
     61 C61        20.8152  -31.8292  -42.7706 C.3       10 UNK         0.0169 
     62 H62        20.3927  -27.6715  -40.6147 H         1 UNK         0.0903 
     63 H63        19.1021  -28.8760  -40.5053 H         1 UNK         0.0903 
     64 H64        20.4766  -29.1462  -41.5762 H         1 UNK         0.0903 
     65 H65        17.3152  -27.7386  -41.3309 H         1 UNK         0.3096 
     66 H66        15.9397  -26.6318  -42.6537 H         1 UNK         0.1121 
     67 H67        17.4640  -27.8828  -44.9894 H         1 UNK         0.0849 
     68 H68        15.8213  -27.2790  -45.0431 H         1 UNK         0.0849 
     69 H69        16.1884  -31.4505  -45.0862 H         1 UNK         0.0865 
     70 H70        16.2655  -30.0938  -46.1804 H         1 UNK         0.0865 
     71 H71        18.1391  -31.5324  -43.2462 H         1 UNK         0.1346 
     72 H72        21.9838  -30.7215  -44.9612 H         1 UNK         0.1412 
     73 H73        18.4279  -29.5116  -47.0186 H         1 UNK         0.1426 
     74 H74        20.8451  -29.9315  -48.1715 H         1 UNK         0.0716 
     75 H75        22.2025  -29.7240  -47.0951 H         1 UNK         0.0716 
     76 H76        22.9219  -27.2055  -46.0364 H         1 UNK         0.0695 
     77 H77        21.5600  -27.6741  -45.0513 H         1 UNK         0.0695 
     78 H78        21.9390  -24.9864  -46.4738 H         1 UNK         0.0983 
     79 H79        19.5223  -26.0627  -45.3084 H         1 UNK         0.3095 
     80 H80        17.8330  -23.0790  -44.8322 H         1 UNK         0.0454 
     81 H81        17.7752  -22.7516  -47.2962 H         1 UNK         0.0851 
     82 H82        16.2967  -23.5182  -46.7447 H         1 UNK         0.0851 
     83 H83        17.5427  -24.4749  -47.5484 H         1 UNK         0.0851 
     84 H84        17.0687  -25.8137  -45.5459 H         1 UNK         0.2976 
     85 H85        20.8336  -25.8668  -43.2443 H         1 UNK         0.3116 
     86 H86        21.1206  -25.0888  -41.2305 H         1 UNK         0.0646 
     87 H87        22.4528  -22.6574  -42.5275 H         1 UNK         0.0847 
     88 H88        20.7253  -22.8783  -42.2538 H         1 UNK         0.0847 
     89 H89        21.8215  -22.7301  -40.8893 H         1 UNK         0.0847 
     90 H90        24.2124  -24.7343  -42.9519 H         1 UNK         0.3040 
     91 H91        25.8495  -25.0504  -40.5340 H         1 UNK         0.1015 
     92 H92        27.7301  -24.9469  -42.1756 H         1 UNK         0.0786 
     93 H93        26.6023  -23.6277  -42.4398 H         1 UNK         0.0786 
     94 H94        26.5909  -25.0266  -43.5136 H         1 UNK         0.0786 
     95 H95        24.1457  -27.1866  -42.4726 H         1 UNK         0.3172 
     96 H96        25.9137  -29.4750  -42.5280 H         1 UNK         0.0595 
     97 H97        23.8838  -30.6124  -43.4135 H         1 UNK         0.0839 
     98 H98        22.8838  -29.2303  -42.9701 H         1 UNK         0.0839 
     99 H99        24.1113  -29.0778  -44.2265 H         1 UNK         0.0839 
    100 H100       25.1205  -31.5842  -41.6288 H         1 UNK         0.2998 
    101 H101       25.0404  -31.5192  -38.7587 H         1 UNK         0.0822 
    102 H102       25.1562  -34.0001  -39.0304 H         1 UNK         0.0787 
    103 H103       26.2860  -33.2329  -40.1254 H         1 UNK         0.0787 
    104 H104       24.7539  -33.8581  -40.7353 H         1 UNK         0.0787 
    105 H105       23.5242  -33.2808  -37.6927 H         1 UNK         0.3055 
    106 H106       20.7498  -32.3935  -37.9561 H         1 UNK         0.1106 
    107 H107       21.7201  -32.7801  -35.7185 H         1 UNK         0.0828 
    108 H108       20.4183  -33.9218  -36.0066 H         1 UNK         0.0828 
    109 H109       22.0888  -34.4560  -36.1227 H         1 UNK         0.0828 
    110 H110       20.4320  -33.0769  -40.1807 H         1 UNK         0.2931 
    111 H111       20.5228  -35.7755  -41.0215 H         1 UNK         0.0412 
    112 H112       16.9332  -35.6799  -39.1261 H         1 UNK         0.3472 
    113 H113       18.0813  -34.3803  -38.9253 H         1 UNK         0.3472 
    114 H114       19.2070  -35.0515  -42.9927 H         1 UNK         0.0970 
    115 H115       18.8038  -33.5487  -42.2166 H         1 UNK         0.0970 
    116 H116       20.2285  -31.6449  -41.8700 H         1 UNK         0.0612 
    117 H117       21.7762  -31.3463  -42.6029 H         1 UNK         0.0612 
@<TRIPOS>BOND
     1    1    2 1    
     2    1   62 1    
     3    1   63 1    
     4    1   64 1    
     5    2    3 2    
     6    2    4 am   BACKBONE|DICT|INTERRES
     7    4    5 1    
     8    4   65 1    
     9    5    6 1    
    10    5   25 1    
    11    5   66 1    
    12    6    7 1    
    13    6   67 1    
    14    6   68 1    
    15    7    8 1    
    16    8    9 1    
    17    8   69 1    
    18    8   70 1    
    19    9   10 ar   
    20    9   14 ar   
    21   10   11 ar   
    22   10   71 1    
    23   11   12 ar   
    24   11   61 1    
    25   12   13 ar   
    26   12   72 1    
    27   13   14 ar   
    28   13   15 1    
    29   14   73 1    
    30   15   16 1    
    31   15   74 1    
    32   15   75 1    
    33   16   17 1    
    34   17   18 1    
    35   17   76 1    
    36   17   77 1    
    37   18   19 1    
    38   18   27 1    
    39   18   78 1    
    40   19   20 am   BACKBONE|DICT|INTERRES
    41   19   79 1    
    42   20   21 2    
    43   20   22 1    
    44   22   23 1    
    45   22   24 1    
    46   22   80 1    
    47   23   81 1    
    48   23   82 1    
    49   23   83 1    
    50   24   25 am   BACKBONE|DICT|INTERRES
    51   24   84 1    
    52   25   26 2    
    53   27   28 2    
    54   27   29 am   BACKBONE|DICT|INTERRES
    55   29   30 1    
    56   29   85 1    
    57   30   31 1    
    58   30   32 1    
    59   30   86 1    
    60   31   87 1    
    61   31   88 1    
    62   31   89 1    
    63   32   33 2    
    64   32   34 am   BACKBONE|DICT|INTERRES
    65   34   35 1    
    66   34   90 1    
    67   35   36 1    
    68   35   37 1    
    69   35   91 1    
    70   36   92 1    
    71   36   93 1    
    72   36   94 1    
    73   37   38 2    
    74   37   39 am   BACKBONE|DICT|INTERRES
    75   39   40 1    
    76   39   95 1    
    77   40   41 1    
    78   40   42 1    
    79   40   96 1    
    80   41   97 1    
    81   41   98 1    
    82   41   99 1    
    83   42   43 2    
    84   42   44 am   BACKBONE|DICT|INTERRES
    85   44   45 1    
    86   44  100 1    
    87   45   46 1    
    88   45   47 1    
    89   45  101 1    
    90   46  102 1    
    91   46  103 1    
    92   46  104 1    
    93   47   48 2    
    94   47   49 am   BACKBONE|DICT|INTERRES
    95   49   50 1    
    96   49  105 1    
    97   50   51 1    
    98   50   52 1    
    99   50  106 1    
   100   51  107 1    
   101   51  108 1    
   102   51  109 1    
   103   52   53 2    
   104   52   54 am   BACKBONE|DICT|INTERRES
   105   54   55 1    
   106   54  110 1    
   107   55   56 1    
   108   55   59 1    
   109   55  111 1    
   110   56   57 am   BACKBONE|DICT|INTERRES
   111   56   58 2    
   112   57  112 1    
   113   57  113 1    
   114   59   60 1    
   115   59  114 1    
   116   59  115 1    
   117   60   61 1    
   118   61  116 1    
   119   61  117 1    
@<TRIPOS>SUBSTRUCTURE
     1 UNK         1 GROUP             0       ****    0 ROOT    
