@<TRIPOS>MOLECULE
3R8
117   119    1
SMALL
USER_CHARGES


@<TRIPOS>ATOM
      1 CA         18.0953  -28.0141  -41.2509 C.3       0 UNK        -0.2013 
      2 C          17.3279  -26.9618  -42.0275 C.2       0 UNK         0.4866 
      3 O          16.7747  -26.0420  -41.4236 O.2       0 UNK        -0.5176 
      4 N          17.2857  -27.0986  -43.3578 N.am      1 UNK        -0.4884 
      5 CA         16.6613  -26.1453  -44.2751 C.3       1 UNK         0.0853 
      6 C6         15.8105  -26.8616  -45.3615 C.3       10 UNK        -0.0849 
      7 S7         16.7167  -27.9673  -46.5021 S.3       10 UNK        -0.2776 
      8 C8         16.6627  -29.5883  -45.6567 C.3       10 UNK         0.0316 
      9 C9         18.0286  -30.0614  -45.1593 C.ar      10 UNK        -0.0863 
     10 C10        18.1237  -30.7989  -43.9743 C.ar      10 UNK        -0.1009 
     11 C11        19.3573  -31.2946  -43.5347 C.ar      10 UNK        -0.0712 
     12 C12        20.5105  -31.0236  -44.2797 C.ar      10 UNK        -0.0894 
     13 C13        20.4311  -30.3048  -45.4777 C.ar      10 UNK        -0.0745 
     14 C14        19.1867  -29.8403  -45.9129 C.ar      10 UNK        -0.0972 
     15 C15        21.6771  -30.0920  -46.3346 C.3       10 UNK         0.0209 
     16 S16        21.8567  -28.3837  -46.9551 S.3       10 UNK        -0.2568 
     17 C17        22.1877  -27.5042  -45.3985 C.3       10 UNK        -0.0983 
     18 CA         22.0083  -25.9694  -45.4909 C.3       3 UNK         0.0876 
     19 N          20.6761  -25.5945  -45.9736 N.am      3 UNK        -0.4424 
     20 C          20.3348  -24.3718  -46.4012 C.2       2 UNK         0.4918 
     21 O          21.1266  -23.4332  -46.4903 O.2       2 UNK        -0.4875 
     22 CA         18.8573  -24.1454  -46.7783 C.3       2 UNK         0.0481 
     23 CB         18.6720  -24.2690  -48.2989 C.3       2 UNK        -0.1831 
     24 N          17.9064  -25.0396  -46.1055 N.am      2 UNK        -0.4498 
     25 C          17.7353  -25.1565  -44.7810 C.2       1 UNK         0.5027 
     26 O          18.4065  -24.5263  -43.9608 O.2       1 UNK        -0.4969 
     27 C          22.3422  -25.3645  -44.1111 C.2       3 UNK         0.5005 
     28 O          23.5255  -25.2553  -43.7869 O.2       3 UNK        -0.5279 
     29 N          21.3115  -25.0488  -43.3075 N.am      4 UNK        -0.4463 
     30 CA         21.3698  -24.8497  -41.8551 C.3       4 UNK         0.0283 
     31 CB         22.1798  -23.5871  -41.4806 C.3       4 UNK        -0.1875 
     32 C          21.8366  -26.1514  -41.1694 C.2       4 UNK         0.4949 
     33 O          21.2710  -27.2067  -41.4601 O.2       4 UNK        -0.5039 
     34 N          22.8437  -26.0800  -40.2896 N.am      5 UNK        -0.4663 
     35 CA         23.4802  -27.2565  -39.6954 C.3       5 UNK         0.0242 
     36 CB         24.2854  -26.8368  -38.4548 C.3       5 UNK        -0.1982 
     37 C          24.3756  -27.9585  -40.7320 C.2       5 UNK         0.5017 
     38 O          25.2862  -27.3229  -41.2679 O.2       5 UNK        -0.5012 
     39 N          24.1077  -29.2428  -40.9847 N.am      6 UNK        -0.4439 
     40 CA         24.7861  -30.1013  -41.9516 C.3       6 UNK         0.0297 
     41 CB         24.5301  -29.6223  -43.3930 C.3       6 UNK        -0.2006 
     42 C          24.2463  -31.5233  -41.7826 C.2       6 UNK         0.4892 
     43 O          23.0354  -31.6915  -41.6199 O.2       6 UNK        -0.5089 
     44 N          25.1411  -32.5177  -41.8627 N.am      7 UNK        -0.4243 
     45 CA         24.8591  -33.9522  -41.7329 C.3       7 UNK         0.0196 
     46 CB         24.0926  -34.4645  -42.9759 C.3       7 UNK        -0.2007 
     47 C          24.1742  -34.2713  -40.3882 C.2       7 UNK         0.5020 
     48 O          24.7872  -34.0632  -39.3404 O.2       7 UNK        -0.5147 
     49 N          22.9271  -34.7557  -40.4344 N.am      8 UNK        -0.4734 
     50 CA         22.1015  -35.0429  -39.2592 C.3       8 UNK         0.0238 
     51 CB         21.0025  -36.0422  -39.6581 C.3       8 UNK        -0.1912 
     52 C          21.4739  -33.7881  -38.6228 C.2       8 UNK         0.5038 
     53 O          21.0581  -33.8598  -37.4652 O.2       8 UNK        -0.5046 
     54 N          21.3872  -32.6841  -39.3754 N.am      9 UNK        -0.4200 
     55 CA         20.8106  -31.4121  -38.9245 C.3       9 UNK         0.0839 
     56 C          21.8625  -30.5640  -38.1697 C.2       9 UNK         0.5513 
     57 N          21.4644  -29.8803  -37.1064 N.am      9 UNK        -0.7519 
     58 O          23.0201  -30.4757  -38.5696 O.2       9 UNK        -0.4960 
     59 C59        20.1937  -30.6153  -40.1027 C.3       10 UNK        -0.0876 
     60 S60        18.7440  -31.4733  -40.8032 S.3       10 UNK        -0.2414 
     61 C61        19.4293  -32.2136  -42.3190 C.3       10 UNK         0.0169 
     62 H62        17.4041  -28.7041  -40.7684 H         1 UNK         0.0903 
     63 H63        18.7614  -28.5843  -41.8988 H         1 UNK         0.0903 
     64 H64        18.7029  -27.5416  -40.4798 H         1 UNK         0.0903 
     65 H65        17.7700  -27.8698  -43.7973 H         1 UNK         0.3096 
     66 H66        15.9599  -25.5220  -43.7155 H         1 UNK         0.1121 
     67 H67        15.2860  -26.1184  -45.9652 H         1 UNK         0.0849 
     68 H68        15.0149  -27.4309  -44.8785 H         1 UNK         0.0849 
     69 H69        15.9475  -29.5570  -44.8336 H         1 UNK         0.0865 
     70 H70        16.2820  -30.3298  -46.3602 H         1 UNK         0.0865 
     71 H71        17.2307  -31.0215  -43.4058 H         1 UNK         0.1346 
     72 H72        21.4640  -31.4134  -43.9485 H         1 UNK         0.1412 
     73 H73        19.1230  -29.3153  -46.8559 H         1 UNK         0.1426 
     74 H74        21.6258  -30.7673  -47.1895 H         1 UNK         0.0716 
     75 H75        22.5789  -30.3630  -45.7838 H         1 UNK         0.0716 
     76 H76        21.5445  -27.9150  -44.6168 H         1 UNK         0.0695 
     77 H77        23.2128  -27.7408  -45.1107 H         1 UNK         0.0695 
     78 H78        22.7427  -25.5814  -46.2004 H         1 UNK         0.0983 
     79 H79        19.9758  -26.3208  -45.9687 H         1 UNK         0.3095 
     80 H80        18.6030  -23.1246  -46.4863 H         1 UNK         0.0454 
     81 H81        18.8787  -25.2810  -48.6496 H         1 UNK         0.0851 
     82 H82        19.3458  -23.5960  -48.8312 H         1 UNK         0.0851 
     83 H83        17.6566  -24.0095  -48.5988 H         1 UNK         0.0851 
     84 H84        17.3501  -25.6396  -46.7012 H         1 UNK         0.2976 
     85 H85        20.3725  -25.1271  -43.6836 H         1 UNK         0.3116 
     86 H86        20.3402  -24.6887  -41.5317 H         1 UNK         0.0646 
     87 H87        23.2395  -23.6840  -41.7183 H         1 UNK         0.0847 
     88 H88        22.0976  -23.3696  -40.4151 H         1 UNK         0.0847 
     89 H89        21.8038  -22.7126  -42.0117 H         1 UNK         0.0847 
     90 H90        23.2963  -25.1905  -40.1380 H         1 UNK         0.3040 
     91 H91        22.6946  -27.9422  -39.3727 H         1 UNK         0.1015 
     92 H92        24.7487  -27.7052  -37.9842 H         1 UNK         0.0786 
     93 H93        23.6465  -26.3662  -37.7074 H         1 UNK         0.0786 
     94 H94        25.0831  -26.1365  -38.7062 H         1 UNK         0.0786 
     95 H95        23.4038  -29.7222  -40.4295 H         1 UNK         0.3172 
     96 H96        25.8572  -30.0881  -41.7406 H         1 UNK         0.0595 
     97 H97        24.9752  -30.3030  -44.1197 H         1 UNK         0.0839 
     98 H98        24.9560  -28.6359  -43.5750 H         1 UNK         0.0839 
     99 H99        23.4612  -29.5721  -43.6024 H         1 UNK         0.0839 
    100 H100       26.1155  -32.2751  -41.9773 H         1 UNK         0.2998 
    101 H101       25.8246  -34.4601  -41.7088 H         1 UNK         0.0822 
    102 H102       23.9266  -35.5414  -42.9224 H         1 UNK         0.0787 
    103 H103       23.1224  -33.9809  -43.0971 H         1 UNK         0.0787 
    104 H104       24.6629  -34.2783  -43.8861 H         1 UNK         0.0787 
    105 H105       22.4973  -34.8836  -41.3393 H         1 UNK         0.3055 
    106 H106       22.7293  -35.5110  -38.4972 H         1 UNK         0.1106 
    107 H107       20.3870  -36.3097  -38.7979 H         1 UNK         0.0828 
    108 H108       20.3371  -35.6295  -40.4177 H         1 UNK         0.0828 
    109 H109       21.4280  -36.9669  -40.0484 H         1 UNK         0.0828 
    110 H110       21.8536  -32.6571  -40.2755 H         1 UNK         0.2931 
    111 H111       20.0013  -31.6332  -38.2248 H         1 UNK         0.0412 
    112 H112       22.1335  -29.3138  -36.6093 H         1 UNK         0.3472 
    113 H113       20.5137  -29.9375  -36.7751 H         1 UNK         0.3472 
    114 H114       20.9260  -30.4109  -40.8852 H         1 UNK         0.0970 
    115 H115       19.8555  -29.6391  -39.7531 H         1 UNK         0.0970 
    116 H116       20.4522  -32.5438  -42.1337 H         1 UNK         0.0612 
    117 H117       18.8592  -33.1160  -42.5426 H         1 UNK         0.0612 
@<TRIPOS>BOND
     1    1    2 1    
     2    1   62 1    
     3    1   63 1    
     4    1   64 1    
     5    2    3 2    
     6    2    4 am   BACKBONE|DICT|INTERRES
     7    4    5 1    
     8    4   65 1    
     9    5    6 1    
    10    5   25 1    
    11    5   66 1    
    12    6    7 1    
    13    6   67 1    
    14    6   68 1    
    15    7    8 1    
    16    8    9 1    
    17    8   69 1    
    18    8   70 1    
    19    9   10 ar   
    20    9   14 ar   
    21   10   11 ar   
    22   10   71 1    
    23   11   12 ar   
    24   11   61 1    
    25   12   13 ar   
    26   12   72 1    
    27   13   14 ar   
    28   13   15 1    
    29   14   73 1    
    30   15   16 1    
    31   15   74 1    
    32   15   75 1    
    33   16   17 1    
    34   17   18 1    
    35   17   76 1    
    36   17   77 1    
    37   18   19 1    
    38   18   27 1    
    39   18   78 1    
    40   19   20 am   BACKBONE|DICT|INTERRES
    41   19   79 1    
    42   20   21 2    
    43   20   22 1    
    44   22   23 1    
    45   22   24 1    
    46   22   80 1    
    47   23   81 1    
    48   23   82 1    
    49   23   83 1    
    50   24   25 am   BACKBONE|DICT|INTERRES
    51   24   84 1    
    52   25   26 2    
    53   27   28 2    
    54   27   29 am   BACKBONE|DICT|INTERRES
    55   29   30 1    
    56   29   85 1    
    57   30   31 1    
    58   30   32 1    
    59   30   86 1    
    60   31   87 1    
    61   31   88 1    
    62   31   89 1    
    63   32   33 2    
    64   32   34 am   BACKBONE|DICT|INTERRES
    65   34   35 1    
    66   34   90 1    
    67   35   36 1    
    68   35   37 1    
    69   35   91 1    
    70   36   92 1    
    71   36   93 1    
    72   36   94 1    
    73   37   38 2    
    74   37   39 am   BACKBONE|DICT|INTERRES
    75   39   40 1    
    76   39   95 1    
    77   40   41 1    
    78   40   42 1    
    79   40   96 1    
    80   41   97 1    
    81   41   98 1    
    82   41   99 1    
    83   42   43 2    
    84   42   44 am   BACKBONE|DICT|INTERRES
    85   44   45 1    
    86   44  100 1    
    87   45   46 1    
    88   45   47 1    
    89   45  101 1    
    90   46  102 1    
    91   46  103 1    
    92   46  104 1    
    93   47   48 2    
    94   47   49 am   BACKBONE|DICT|INTERRES
    95   49   50 1    
    96   49  105 1    
    97   50   51 1    
    98   50   52 1    
    99   50  106 1    
   100   51  107 1    
   101   51  108 1    
   102   51  109 1    
   103   52   53 2    
   104   52   54 am   BACKBONE|DICT|INTERRES
   105   54   55 1    
   106   54  110 1    
   107   55   56 1    
   108   55   59 1    
   109   55  111 1    
   110   56   57 am   BACKBONE|DICT|INTERRES
   111   56   58 2    
   112   57  112 1    
   113   57  113 1    
   114   59   60 1    
   115   59  114 1    
   116   59  115 1    
   117   60   61 1    
   118   61  116 1    
   119   61  117 1    
@<TRIPOS>SUBSTRUCTURE
     1 UNK         1 GROUP             0       ****    0 ROOT    
