@<TRIPOS>MOLECULE
3R8
117   119    1
SMALL
USER_CHARGES


@<TRIPOS>ATOM
      1 CA         14.8687  -22.6469  -45.7514 C.3       0 UNK        -0.2013 
      2 C          16.3478  -22.8883  -45.4913 C.2       0 UNK         0.4866 
      3 O          17.0850  -21.9367  -45.2341 O.2       0 UNK        -0.5176 
      4 N          16.7818  -24.1531  -45.5639 N.am      1 UNK        -0.4884 
      5 CA         18.1559  -24.6044  -45.3102 C.3       1 UNK         0.0853 
      6 C6         18.3682  -26.1028  -45.6369 C.3       10 UNK        -0.0849 
      7 S7         17.9920  -26.5446  -47.3618 S.3       10 UNK        -0.2776 
      8 C8         19.2303  -27.8542  -47.6719 C.3       10 UNK         0.0316 
      9 C9         19.2332  -28.9894  -46.6446 C.ar      10 UNK        -0.0863 
     10 C10        20.4531  -29.5346  -46.2296 C.ar      10 UNK        -0.1009 
     11 C11        20.4917  -30.6011  -45.3260 C.ar      10 UNK        -0.0712 
     12 C12        19.2955  -31.1167  -44.8198 C.ar      10 UNK        -0.0894 
     13 C13        18.0690  -30.5640  -45.1995 C.ar      10 UNK        -0.0745 
     14 C14        18.0431  -29.5187  -46.1293 C.ar      10 UNK        -0.0972 
     15 C15        16.7714  -31.0938  -44.6045 C.3       10 UNK         0.0209 
     16 S16        15.9817  -29.8783  -43.4978 S.3       10 UNK        -0.2568 
     17 C17        17.0909  -29.8675  -42.0430 C.3       10 UNK        -0.0983 
     18 CA         18.2470  -28.8347  -42.1561 C.3       3 UNK         0.0876 
     19 N          17.8196  -27.4908  -42.5590 N.am      3 UNK        -0.4424 
     20 C          17.0497  -26.6346  -41.8765 C.2       2 UNK         0.4918 
     21 O          16.6348  -26.8286  -40.7337 O.2       2 UNK        -0.4875 
     22 CA         16.7341  -25.3241  -42.6162 C.3       2 UNK         0.0481 
     23 CB         15.7076  -24.4526  -41.8700 C.3       2 UNK        -0.1831 
     24 N          17.9763  -24.5630  -42.7815 N.am      2 UNK        -0.4498 
     25 C          18.6814  -24.2701  -43.8893 C.2       1 UNK         0.5027 
     26 O          19.7773  -23.7201  -43.7978 O.2       1 UNK        -0.4969 
     27 C          19.1901  -28.8177  -40.9344 C.2       3 UNK         0.5005 
     28 O          19.1735  -29.7399  -40.1182 O.2       3 UNK        -0.5279 
     29 N          20.0271  -27.7760  -40.8607 N.am      4 UNK        -0.4463 
     30 CA         21.0919  -27.5997  -39.8741 C.3       4 UNK         0.0283 
     31 CB         20.5395  -26.8801  -38.6284 C.3       4 UNK        -0.1875 
     32 C          22.2869  -26.8683  -40.5104 C.2       4 UNK         0.4949 
     33 O          22.9910  -26.1293  -39.8221 O.2       4 UNK        -0.5039 
     34 N          22.4879  -27.0682  -41.8226 N.am      5 UNK        -0.4663 
     35 CA         23.5671  -26.4529  -42.6041 C.3       5 UNK         0.0242 
     36 CB         23.2233  -26.5565  -44.0998 C.3       5 UNK        -0.1982 
     37 C          24.9475  -27.0721  -42.3175 C.2       5 UNK         0.5017 
     38 O          25.9652  -26.4118  -42.5290 O.2       5 UNK        -0.5012 
     39 N          24.9517  -28.3174  -41.8347 N.am      6 UNK        -0.4439 
     40 CA         26.1052  -29.0939  -41.4049 C.3       6 UNK         0.0297 
     41 CB         26.7892  -29.7327  -42.6283 C.3       6 UNK        -0.2006 
     42 C          25.5960  -30.1675  -40.4373 C.2       6 UNK         0.4892 
     43 O          24.3925  -30.4416  -40.4094 O.2       6 UNK        -0.5089 
     44 N          26.5188  -30.7990  -39.6990 N.am      7 UNK        -0.4243 
     45 CA         26.2311  -31.9213  -38.7936 C.3       7 UNK         0.0196 
     46 CB         27.5087  -32.3010  -38.0281 C.3       7 UNK        -0.2007 
     47 C          25.6452  -33.1533  -39.5103 C.2       7 UNK         0.5020 
     48 O          24.8714  -33.8984  -38.9088 O.2       7 UNK        -0.5147 
     49 N          25.9850  -33.3138  -40.7975 N.am      8 UNK        -0.4734 
     50 CA         25.4453  -34.3310  -41.7030 C.3       8 UNK         0.0238 
     51 CB         26.2340  -34.2909  -43.0224 C.3       8 UNK        -0.1912 
     52 C          23.9353  -34.1945  -41.9793 C.2       8 UNK         0.5038 
     53 O          23.3212  -35.1800  -42.3905 O.2       8 UNK        -0.5046 
     54 N          23.3625  -33.0029  -41.7529 N.am      9 UNK        -0.4200 
     55 CA         21.9190  -32.7467  -41.8665 C.3       9 UNK         0.0839 
     56 C          21.0775  -33.3238  -40.6909 C.2       9 UNK         0.5513 
     57 N          21.6772  -33.7721  -39.5927 N.am      9 UNK        -0.7519 
     58 O          19.8548  -33.3812  -40.7878 O.2       9 UNK        -0.4960 
     59 C59        21.5962  -31.2444  -42.0895 C.3       10 UNK        -0.0876 
     60 S60        22.5376  -30.4524  -43.4399 S.3       10 UNK        -0.2414 
     61 C61        21.8260  -31.2176  -44.9313 C.3       10 UNK         0.0169 
     62 H62        14.7418  -21.9716  -46.5969 H         1 UNK         0.0903 
     63 H63        14.3363  -23.5716  -45.9731 H         1 UNK         0.0903 
     64 H64        14.4043  -22.1904  -44.8777 H         1 UNK         0.0903 
     65 H65        16.1308  -24.8809  -45.8216 H         1 UNK         0.3096 
     66 H66        18.7860  -24.0379  -46.0000 H         1 UNK         0.1121 
     67 H67        17.7238  -26.7302  -45.0276 H         1 UNK         0.0849 
     68 H68        19.3978  -26.3944  -45.4177 H         1 UNK         0.0849 
     69 H69        19.0474  -28.2804  -48.6591 H         1 UNK         0.0865 
     70 H70        20.2142  -27.3845  -47.7200 H         1 UNK         0.0865 
     71 H71        21.3800  -29.1416  -46.6252 H         1 UNK         0.1346 
     72 H72        19.3197  -31.9438  -44.1236 H         1 UNK         0.1412 
     73 H73        17.0914  -29.1084  -46.4385 H         1 UNK         0.1426 
     74 H74        16.9366  -32.0259  -44.0617 H         1 UNK         0.0716 
     75 H75        16.0806  -31.3307  -45.4149 H         1 UNK         0.0716 
     76 H76        16.4822  -29.6525  -41.1631 H         1 UNK         0.0695 
     77 H77        17.4882  -30.8739  -41.8977 H         1 UNK         0.0695 
     78 H78        18.8889  -29.1700  -42.9689 H         1 UNK         0.0983 
     79 H79        18.1032  -27.2255  -43.4882 H         1 UNK         0.3095 
     80 H80        16.2919  -25.6094  -43.5678 H         1 UNK         0.0454 
     81 H81        14.7721  -24.9930  -41.7197 H         1 UNK         0.0851 
     82 H82        16.0701  -24.1474  -40.8877 H         1 UNK         0.0851 
     83 H83        15.4723  -23.5498  -42.4335 H         1 UNK         0.0851 
     84 H84        18.3977  -24.2859  -41.9064 H         1 UNK         0.2976 
     85 H85        19.9474  -27.0455  -41.5544 H         1 UNK         0.3116 
     86 H86        21.4653  -28.5799  -39.5691 H         1 UNK         0.0646 
     87 H87        21.3055  -26.7810  -37.8583 H         1 UNK         0.0847 
     88 H88        19.7101  -27.4326  -38.1866 H         1 UNK         0.0847 
     89 H89        20.1836  -25.8778  -38.8691 H         1 UNK         0.0847 
     90 H90        21.9004  -27.7288  -42.3105 H         1 UNK         0.3040 
     91 H91        23.6248  -25.3946  -42.3385 H         1 UNK         0.1015 
     92 H92        22.2797  -26.0592  -44.3260 H         1 UNK         0.0786 
     93 H93        23.1450  -27.5936  -44.4281 H         1 UNK         0.0786 
     94 H94        23.9925  -26.0803  -44.7095 H         1 UNK         0.0786 
     95 H95        24.0682  -28.7814  -41.6580 H         1 UNK         0.3172 
     96 H96        26.8053  -28.4446  -40.8752 H         1 UNK         0.0595 
     97 H97        27.1353  -28.9741  -43.3305 H         1 UNK         0.0839 
     98 H98        26.1109  -30.3974  -43.1656 H         1 UNK         0.0839 
     99 H99        27.6611  -30.3185  -42.3355 H         1 UNK         0.0839 
    100 H100       27.4852  -30.5144  -39.7770 H         1 UNK         0.2998 
    101 H101       25.4851  -31.5816  -38.0718 H         1 UNK         0.0822 
    102 H102       27.8863  -31.4616  -37.4439 H         1 UNK         0.0787 
    103 H103       27.3169  -33.1179  -37.3308 H         1 UNK         0.0787 
    104 H104       28.3022  -32.6273  -38.7017 H         1 UNK         0.0787 
    105 H105       26.6319  -32.6507  -41.1981 H         1 UNK         0.3055 
    106 H106       25.5980  -35.3069  -41.2366 H         1 UNK         0.1106 
    107 H107       26.1294  -33.3291  -43.5264 H         1 UNK         0.0828 
    108 H108       27.2963  -34.4721  -42.8575 H         1 UNK         0.0828 
    109 H109       25.8809  -35.0592  -43.7120 H         1 UNK         0.0828 
    110 H110       23.9190  -32.2367  -41.3928 H         1 UNK         0.2931 
    111 H111       21.5698  -33.2805  -42.7512 H         1 UNK         0.0412 
    112 H112       21.1159  -34.1484  -38.8452 H         1 UNK         0.3472 
    113 H113       22.6840  -33.7438  -39.5013 H         1 UNK         0.3472 
    114 H114       21.8021  -30.6842  -41.1757 H         1 UNK         0.0970 
    115 H115       20.5321  -31.1119  -42.2814 H         1 UNK         0.0970 
    116 H116       21.7227  -32.2938  -44.7938 H         1 UNK         0.0612 
    117 H117       22.5391  -31.0937  -45.7476 H         1 UNK         0.0612 
@<TRIPOS>BOND
     1    1    2 1    
     2    1   62 1    
     3    1   63 1    
     4    1   64 1    
     5    2    3 2    
     6    2    4 am   BACKBONE|DICT|INTERRES
     7    4    5 1    
     8    4   65 1    
     9    5    6 1    
    10    5   25 1    
    11    5   66 1    
    12    6    7 1    
    13    6   67 1    
    14    6   68 1    
    15    7    8 1    
    16    8    9 1    
    17    8   69 1    
    18    8   70 1    
    19    9   10 ar   
    20    9   14 ar   
    21   10   11 ar   
    22   10   71 1    
    23   11   12 ar   
    24   11   61 1    
    25   12   13 ar   
    26   12   72 1    
    27   13   14 ar   
    28   13   15 1    
    29   14   73 1    
    30   15   16 1    
    31   15   74 1    
    32   15   75 1    
    33   16   17 1    
    34   17   18 1    
    35   17   76 1    
    36   17   77 1    
    37   18   19 1    
    38   18   27 1    
    39   18   78 1    
    40   19   20 am   BACKBONE|DICT|INTERRES
    41   19   79 1    
    42   20   21 2    
    43   20   22 1    
    44   22   23 1    
    45   22   24 1    
    46   22   80 1    
    47   23   81 1    
    48   23   82 1    
    49   23   83 1    
    50   24   25 am   BACKBONE|DICT|INTERRES
    51   24   84 1    
    52   25   26 2    
    53   27   28 2    
    54   27   29 am   BACKBONE|DICT|INTERRES
    55   29   30 1    
    56   29   85 1    
    57   30   31 1    
    58   30   32 1    
    59   30   86 1    
    60   31   87 1    
    61   31   88 1    
    62   31   89 1    
    63   32   33 2    
    64   32   34 am   BACKBONE|DICT|INTERRES
    65   34   35 1    
    66   34   90 1    
    67   35   36 1    
    68   35   37 1    
    69   35   91 1    
    70   36   92 1    
    71   36   93 1    
    72   36   94 1    
    73   37   38 2    
    74   37   39 am   BACKBONE|DICT|INTERRES
    75   39   40 1    
    76   39   95 1    
    77   40   41 1    
    78   40   42 1    
    79   40   96 1    
    80   41   97 1    
    81   41   98 1    
    82   41   99 1    
    83   42   43 2    
    84   42   44 am   BACKBONE|DICT|INTERRES
    85   44   45 1    
    86   44  100 1    
    87   45   46 1    
    88   45   47 1    
    89   45  101 1    
    90   46  102 1    
    91   46  103 1    
    92   46  104 1    
    93   47   48 2    
    94   47   49 am   BACKBONE|DICT|INTERRES
    95   49   50 1    
    96   49  105 1    
    97   50   51 1    
    98   50   52 1    
    99   50  106 1    
   100   51  107 1    
   101   51  108 1    
   102   51  109 1    
   103   52   53 2    
   104   52   54 am   BACKBONE|DICT|INTERRES
   105   54   55 1    
   106   54  110 1    
   107   55   56 1    
   108   55   59 1    
   109   55  111 1    
   110   56   57 am   BACKBONE|DICT|INTERRES
   111   56   58 2    
   112   57  112 1    
   113   57  113 1    
   114   59   60 1    
   115   59  114 1    
   116   59  115 1    
   117   60   61 1    
   118   61  116 1    
   119   61  117 1    
@<TRIPOS>SUBSTRUCTURE
     1 UNK         1 GROUP             0       ****    0 ROOT    
