@<TRIPOS>MOLECULE
3R8
117   119    1
SMALL
USER_CHARGES


@<TRIPOS>ATOM
      1 CA         13.8343  -25.2886  -42.0545 C.3       0 UNK        -0.2013 
      2 C          14.8938  -26.1928  -42.6677 C.2       0 UNK         0.4866 
      3 O          14.5672  -27.0440  -43.4960 O.2       0 UNK        -0.5176 
      4 N          16.1582  -26.0222  -42.2612 N.am      1 UNK        -0.4884 
      5 CA         17.3095  -26.7683  -42.7795 C.3       1 UNK         0.0853 
      6 C6         18.5561  -26.5917  -41.8777 C.3       10 UNK        -0.0849 
      7 S7         18.4386  -27.6479  -40.3989 S.3       10 UNK        -0.2776 
      8 C8         19.8391  -28.7958  -40.6466 C.3       10 UNK         0.0316 
      9 C9         19.8530  -29.5014  -42.0029 C.ar      10 UNK        -0.0863 
     10 C10        18.6950  -30.0854  -42.5224 C.ar      10 UNK        -0.1009 
     11 C11        18.7200  -30.7480  -43.7527 C.ar      10 UNK        -0.0712 
     12 C12        19.9190  -30.8298  -44.4674 C.ar      10 UNK        -0.0894 
     13 C13        21.0941  -30.2802  -43.9467 C.ar      10 UNK        -0.0745 
     14 C14        21.0501  -29.6109  -42.7187 C.ar      10 UNK        -0.0972 
     15 C15        22.4188  -30.4791  -44.6762 C.3       10 UNK         0.0209 
     16 S16        22.7054  -29.2550  -45.9946 S.3       10 UNK        -0.2568 
     17 C17        23.0532  -27.7515  -45.0203 C.3       10 UNK        -0.0983 
     18 CA         22.1341  -26.5453  -45.3532 C.3       3 UNK         0.0876 
     19 N          20.7269  -26.9298  -45.4637 N.am      3 UNK        -0.4424 
     20 C          19.9237  -26.6474  -46.4955 C.2       2 UNK         0.4918 
     21 O          20.2732  -26.0085  -47.4885 O.2       2 UNK        -0.4875 
     22 CA         18.4807  -27.1767  -46.4160 C.3       2 UNK         0.0481 
     23 CB         18.3616  -28.5097  -47.1719 C.3       2 UNK        -0.1831 
     24 N          18.0252  -27.3631  -45.0370 N.am      2 UNK        -0.4498 
     25 C          17.6339  -26.3674  -44.2299 C.2       1 UNK         0.5027 
     26 O          17.5610  -25.1847  -44.5739 O.2       1 UNK        -0.4969 
     27 C          22.2749  -25.4831  -44.2495 C.2       3 UNK         0.5005 
     28 O          21.4101  -25.3836  -43.3741 O.2       3 UNK        -0.5279 
     29 N          23.4079  -24.7688  -44.2409 N.am      4 UNK        -0.4463 
     30 CA         23.7975  -23.8198  -43.1909 C.3       4 UNK         0.0283 
     31 CB         24.8260  -22.8296  -43.7695 C.3       4 UNK        -0.1875 
     32 C          24.3139  -24.5398  -41.9254 C.2       4 UNK         0.4949 
     33 O          25.4595  -24.3340  -41.5232 O.2       4 UNK        -0.5039 
     34 N          23.4601  -25.3965  -41.3443 N.am      5 UNK        -0.4663 
     35 CA         23.6801  -26.2210  -40.1449 C.3       5 UNK         0.0242 
     36 CB         23.8055  -25.3301  -38.8910 C.3       5 UNK        -0.1982 
     37 C          24.8426  -27.2297  -40.2764 C.2       5 UNK         0.5017 
     38 O          25.4714  -27.5776  -39.2759 O.2       5 UNK        -0.5012 
     39 N          25.1034  -27.6894  -41.5087 N.am      6 UNK        -0.4439 
     40 CA         26.1838  -28.6219  -41.8534 C.3       6 UNK         0.0297 
     41 CB         26.4105  -28.5807  -43.3738 C.3       6 UNK        -0.2006 
     42 C          25.9421  -30.0735  -41.3941 C.2       6 UNK         0.4892 
     43 O          26.8913  -30.8575  -41.3624 O.2       6 UNK        -0.5089 
     44 N          24.6911  -30.4103  -41.0660 N.am      7 UNK        -0.4243 
     45 CA         24.2281  -31.7157  -40.6075 C.3       7 UNK         0.0196 
     46 CB         24.1008  -32.6835  -41.8040 C.3       7 UNK        -0.2007 
     47 C          22.8829  -31.5153  -39.8964 C.2       7 UNK         0.5020 
     48 O          22.4086  -30.3818  -39.7962 O.2       7 UNK        -0.5147 
     49 N          22.2743  -32.6204  -39.4541 N.am      8 UNK        -0.4734 
     50 CA         20.9142  -32.6753  -38.9049 C.3       8 UNK         0.0238 
     51 CB         20.9542  -33.3912  -37.5414 C.3       8 UNK        -0.1912 
     52 C          19.9572  -33.3631  -39.9001 C.2       8 UNK         0.5038 
     53 O          19.0408  -34.0730  -39.4821 O.2       8 UNK        -0.5046 
     54 N          20.2068  -33.1577  -41.2000 N.am      9 UNK        -0.4200 
     55 CA         19.5675  -33.8362  -42.3361 C.3       9 UNK         0.0839 
     56 C          19.9177  -35.3524  -42.4316 C.2       9 UNK         0.5513 
     57 N          19.2300  -36.1042  -43.2802 N.am      9 UNK        -0.7519 
     58 O          20.8364  -35.8487  -41.7818 O.2       9 UNK        -0.4960 
     59 C59        18.0424  -33.5222  -42.4522 C.3       10 UNK        -0.0876 
     60 S60        17.5426  -33.2357  -44.1876 S.3       10 UNK        -0.2414 
     61 C61        17.4575  -31.4152  -44.2810 C.3       10 UNK         0.0169 
     62 H62        13.0711  -25.8880  -41.5579 H         1 UNK         0.0903 
     63 H63        14.2575  -24.6028  -41.3201 H         1 UNK         0.0903 
     64 H64        13.3509  -24.6971  -42.8317 H         1 UNK         0.0903 
     65 H65        16.3717  -25.3004  -41.5876 H         1 UNK         0.3096 
     66 H66        17.0275  -27.8233  -42.7928 H         1 UNK         0.1121 
     67 H67        19.4739  -26.8455  -42.4098 H         1 UNK         0.0849 
     68 H68        18.6784  -25.5508  -41.5723 H         1 UNK         0.0849 
     69 H69        20.7649  -28.2389  -40.4978 H         1 UNK         0.0865 
     70 H70        19.8093  -29.5519  -39.8620 H         1 UNK         0.0865 
     71 H71        17.7748  -30.0386  -41.9562 H         1 UNK         0.1346 
     72 H72        19.9455  -31.3622  -45.4085 H         1 UNK         0.1412 
     73 H73        21.9569  -29.2001  -42.2993 H         1 UNK         0.1426 
     74 H74        22.4397  -31.4759  -45.1192 H         1 UNK         0.0716 
     75 H75        23.2524  -30.4485  -43.9730 H         1 UNK         0.0716 
     76 H76        23.0002  -28.0020  -43.9611 H         1 UNK         0.0695 
     77 H77        24.0938  -27.4796  -45.2043 H         1 UNK         0.0695 
     78 H78        22.4721  -26.1029  -46.2928 H         1 UNK         0.0983 
     79 H79        20.3473  -27.4230  -44.6706 H         1 UNK         0.3095 
     80 H80        17.8284  -26.4500  -46.9051 H         1 UNK         0.0454 
     81 H81        18.6384  -28.3873  -48.2198 H         1 UNK         0.0851 
     82 H82        19.0170  -29.2735  -46.7527 H         1 UNK         0.0851 
     83 H83        17.3407  -28.8914  -47.1505 H         1 UNK         0.0851 
     84 H84        18.0598  -28.3060  -44.6754 H         1 UNK         0.2976 
     85 H85        24.0893  -24.9278  -44.9700 H         1 UNK         0.3116 
     86 H86        22.9183  -23.2433  -42.8949 H         1 UNK         0.0646 
     87 H87        25.1105  -22.0836  -43.0261 H         1 UNK         0.0847 
     88 H88        24.4206  -22.2903  -44.6256 H         1 UNK         0.0847 
     89 H89        25.7386  -23.3335  -44.0904 H         1 UNK         0.0847 
     90 H90        22.5494  -25.4876  -41.7895 H         1 UNK         0.3040 
     91 H91        22.7806  -26.8262  -40.0230 H         1 UNK         0.1015 
     92 H92        22.9621  -24.6450  -38.8053 H         1 UNK         0.0786 
     93 H93        24.7201  -24.7365  -38.9066 H         1 UNK         0.0786 
     94 H94        23.8240  -25.9318  -37.9814 H         1 UNK         0.0786 
     95 H95        24.5564  -27.3206  -42.2708 H         1 UNK         0.3172 
     96 H96        27.0961  -28.2732  -41.3647 H         1 UNK         0.0595 
     97 H97        26.6013  -27.5662  -43.7246 H         1 UNK         0.0839 
     98 H98        25.5546  -28.9762  -43.9212 H         1 UNK         0.0839 
     99 H99        27.2754  -29.1843  -43.6527 H         1 UNK         0.0839 
    100 H100       23.9818  -29.6906  -41.0181 H         1 UNK         0.2998 
    101 H101       24.9418  -32.1116  -39.8820 H         1 UNK         0.0822 
    102 H102       25.0344  -32.7559  -42.3622 H         1 UNK         0.0787 
    103 H103       23.8526  -33.6935  -41.4761 H         1 UNK         0.0787 
    104 H104       23.3225  -32.3670  -42.4984 H         1 UNK         0.0787 
    105 H105       22.7289  -33.5129  -39.5937 H         1 UNK         0.3055 
    106 H106       20.5249  -31.6679  -38.7430 H         1 UNK         0.1106 
    107 H107       21.2765  -34.4285  -37.6394 H         1 UNK         0.0828 
    108 H108       21.6354  -32.8916  -36.8524 H         1 UNK         0.0828 
    109 H109       19.9699  -33.3973  -37.0712 H         1 UNK         0.0828 
    110 H110       20.9778  -32.5531  -41.4386 H         1 UNK         0.2931 
    111 H111       20.0757  -33.3939  -43.1931 H         1 UNK         0.0412 
    112 H112       18.4953  -35.6986  -43.8408 H         1 UNK         0.3472 
    113 H113       19.4537  -37.0833  -43.3692 H         1 UNK         0.3472 
    114 H114       17.7789  -32.6417  -41.8660 H         1 UNK         0.0970 
    115 H115       17.4378  -34.3261  -42.0284 H         1 UNK         0.0970 
    116 H116       16.5803  -31.0748  -43.7283 H         1 UNK         0.0612 
    117 H117       17.2988  -31.1212  -45.3193 H         1 UNK         0.0612 
@<TRIPOS>BOND
     1    1    2 1    
     2    1   62 1    
     3    1   63 1    
     4    1   64 1    
     5    2    3 2    
     6    2    4 am   BACKBONE|DICT|INTERRES
     7    4    5 1    
     8    4   65 1    
     9    5    6 1    
    10    5   25 1    
    11    5   66 1    
    12    6    7 1    
    13    6   67 1    
    14    6   68 1    
    15    7    8 1    
    16    8    9 1    
    17    8   69 1    
    18    8   70 1    
    19    9   10 ar   
    20    9   14 ar   
    21   10   11 ar   
    22   10   71 1    
    23   11   12 ar   
    24   11   61 1    
    25   12   13 ar   
    26   12   72 1    
    27   13   14 ar   
    28   13   15 1    
    29   14   73 1    
    30   15   16 1    
    31   15   74 1    
    32   15   75 1    
    33   16   17 1    
    34   17   18 1    
    35   17   76 1    
    36   17   77 1    
    37   18   19 1    
    38   18   27 1    
    39   18   78 1    
    40   19   20 am   BACKBONE|DICT|INTERRES
    41   19   79 1    
    42   20   21 2    
    43   20   22 1    
    44   22   23 1    
    45   22   24 1    
    46   22   80 1    
    47   23   81 1    
    48   23   82 1    
    49   23   83 1    
    50   24   25 am   BACKBONE|DICT|INTERRES
    51   24   84 1    
    52   25   26 2    
    53   27   28 2    
    54   27   29 am   BACKBONE|DICT|INTERRES
    55   29   30 1    
    56   29   85 1    
    57   30   31 1    
    58   30   32 1    
    59   30   86 1    
    60   31   87 1    
    61   31   88 1    
    62   31   89 1    
    63   32   33 2    
    64   32   34 am   BACKBONE|DICT|INTERRES
    65   34   35 1    
    66   34   90 1    
    67   35   36 1    
    68   35   37 1    
    69   35   91 1    
    70   36   92 1    
    71   36   93 1    
    72   36   94 1    
    73   37   38 2    
    74   37   39 am   BACKBONE|DICT|INTERRES
    75   39   40 1    
    76   39   95 1    
    77   40   41 1    
    78   40   42 1    
    79   40   96 1    
    80   41   97 1    
    81   41   98 1    
    82   41   99 1    
    83   42   43 2    
    84   42   44 am   BACKBONE|DICT|INTERRES
    85   44   45 1    
    86   44  100 1    
    87   45   46 1    
    88   45   47 1    
    89   45  101 1    
    90   46  102 1    
    91   46  103 1    
    92   46  104 1    
    93   47   48 2    
    94   47   49 am   BACKBONE|DICT|INTERRES
    95   49   50 1    
    96   49  105 1    
    97   50   51 1    
    98   50   52 1    
    99   50  106 1    
   100   51  107 1    
   101   51  108 1    
   102   51  109 1    
   103   52   53 2    
   104   52   54 am   BACKBONE|DICT|INTERRES
   105   54   55 1    
   106   54  110 1    
   107   55   56 1    
   108   55   59 1    
   109   55  111 1    
   110   56   57 am   BACKBONE|DICT|INTERRES
   111   56   58 2    
   112   57  112 1    
   113   57  113 1    
   114   59   60 1    
   115   59  114 1    
   116   59  115 1    
   117   60   61 1    
   118   61  116 1    
   119   61  117 1    
@<TRIPOS>SUBSTRUCTURE
     1 UNK         1 GROUP             0       ****    0 ROOT    
