@<TRIPOS>MOLECULE
3R8
117   119    1
SMALL
USER_CHARGES


@<TRIPOS>ATOM
      1 CA         19.4931  -22.4381  -41.1539 C.3       0 UNK        -0.2013 
      2 C          18.8136  -23.5231  -41.9737 C.2       0 UNK         0.4866 
      3 O          17.6849  -23.3337  -42.4279 O.2       0 UNK        -0.5176 
      4 N          19.4973  -24.6564  -42.1772 N.am      1 UNK        -0.4884 
      5 CA         19.0181  -25.7755  -42.9998 C.3       1 UNK         0.0853 
      6 C6         19.7543  -27.1019  -42.6626 C.3       10 UNK        -0.0849 
      7 S7         18.9631  -27.9900  -41.2865 S.3       10 UNK        -0.2776 
      8 C8         17.6302  -28.8843  -42.1595 C.3       10 UNK         0.0316 
      9 C9         18.1557  -30.0253  -43.0215 C.ar      10 UNK        -0.0863 
     10 C10        18.5050  -31.2401  -42.4264 C.ar      10 UNK        -0.1009 
     11 C11        18.9832  -32.3004  -43.2014 C.ar      10 UNK        -0.0712 
     12 C12        19.1206  -32.1343  -44.5820 C.ar      10 UNK        -0.0894 
     13 C13        18.7803  -30.9244  -45.1956 C.ar      10 UNK        -0.0745 
     14 C14        18.2803  -29.8782  -44.4085 C.ar      10 UNK        -0.0972 
     15 C15        18.9315  -30.7957  -46.7117 C.3       10 UNK         0.0209 
     16 S16        19.5175  -29.1681  -47.2939 S.3       10 UNK        -0.2568 
     17 C17        21.1606  -29.0418  -46.5074 C.3       10 UNK        -0.0983 
     18 CA         21.8932  -27.7197  -46.8617 C.3       3 UNK         0.0876 
     19 N          21.0374  -26.5509  -46.6211 N.am      3 UNK        -0.4424 
     20 C          21.3095  -25.2745  -46.9207 C.2       2 UNK         0.4918 
     21 O          22.2703  -24.9221  -47.6044 O.2       2 UNK        -0.4875 
     22 CA         20.4009  -24.2032  -46.2857 C.3       2 UNK         0.0481 
     23 CB         19.2124  -23.8524  -47.2016 C.3       2 UNK        -0.1831 
     24 N          19.9765  -24.5401  -44.9148 N.am      2 UNK        -0.4498 
     25 C          19.1166  -25.4890  -44.5112 C.2       1 UNK         0.5027 
     26 O          18.4675  -26.1904  -45.2868 O.2       1 UNK        -0.4969 
     27 C          23.2222  -27.6194  -46.0750 C.2       3 UNK         0.5005 
     28 O          24.2504  -28.1220  -46.5303 O.2       3 UNK        -0.5279 
     29 N          23.1621  -26.9452  -44.9210 N.am      4 UNK        -0.4463 
     30 CA         24.2401  -26.5386  -44.0297 C.3       4 UNK         0.0283 
     31 CB         24.7752  -27.7478  -43.2369 C.3       4 UNK        -0.1875 
     32 C          23.6441  -25.4659  -43.1020 C.2       4 UNK         0.4949 
     33 O          22.4696  -25.1118  -43.2539 O.2       4 UNK        -0.5039 
     34 N          24.4307  -24.9878  -42.1288 N.am      5 UNK        -0.4663 
     35 CA         23.9399  -24.1153  -41.0524 C.3       5 UNK         0.0242 
     36 CB         25.1235  -23.5942  -40.2214 C.3       5 UNK        -0.1982 
     37 C          22.9100  -24.8297  -40.1567 C.2       5 UNK         0.5017 
     38 O          21.8760  -24.2497  -39.8293 O.2       5 UNK        -0.5012 
     39 N          23.1930  -26.0967  -39.8399 N.am      6 UNK        -0.4439 
     40 CA         22.3088  -27.0342  -39.1612 C.3       6 UNK         0.0297 
     41 CB         22.3018  -26.7774  -37.6419 C.3       6 UNK        -0.2006 
     42 C          22.8242  -28.4304  -39.5162 C.2       6 UNK         0.4892 
     43 O          23.8308  -28.8633  -38.9521 O.2       6 UNK        -0.5089 
     44 N          22.1831  -29.0737  -40.4973 N.am      7 UNK        -0.4243 
     45 CA         22.5529  -30.4051  -40.9741 C.3       7 UNK         0.0196 
     46 CB         22.0935  -30.5700  -42.4330 C.3       7 UNK        -0.2007 
     47 C          21.9388  -31.4855  -40.0718 C.2       7 UNK         0.5020 
     48 O          20.7695  -31.3766  -39.6979 O.2       7 UNK        -0.5147 
     49 N          22.7285  -32.5185  -39.7594 N.am      8 UNK        -0.4734 
     50 CA         22.2851  -33.7052  -39.0291 C.3       8 UNK         0.0238 
     51 CB         23.4097  -34.1799  -38.0929 C.3       8 UNK        -0.1912 
     52 C          21.9255  -34.7891  -40.0515 C.2       8 UNK         0.5038 
     53 O          22.7842  -35.1643  -40.8535 O.2       8 UNK        -0.5046 
     54 N          20.6685  -35.2466  -40.0290 N.am      9 UNK        -0.4200 
     55 CA         20.1334  -36.2309  -40.9851 C.3       9 UNK         0.0839 
     56 C          20.5015  -37.7076  -40.6531 C.2       9 UNK         0.5513 
     57 N          21.1014  -38.0073  -39.5070 N.am      9 UNK        -0.7519 
     58 O          20.2434  -38.5989  -41.4578 O.2       9 UNK        -0.4960 
     59 C59        18.5998  -36.0700  -41.1807 C.3       10 UNK        -0.0876 
     60 S60        17.9733  -34.4435  -41.7549 S.3       10 UNK        -0.2414 
     61 C61        19.3912  -33.6081  -42.5410 C.3       10 UNK         0.0169 
     62 H62        19.0889  -21.4573  -41.4037 H         1 UNK         0.0903 
     63 H63        19.3342  -22.6138  -40.0902 H         1 UNK         0.0903 
     64 H64        20.5661  -22.4153  -41.3431 H         1 UNK         0.0903 
     65 H65        20.4223  -24.7574  -41.7776 H         1 UNK         0.3096 
     66 H66        17.9514  -25.9050  -42.8034 H         1 UNK         0.1121 
     67 H67        19.8029  -27.7830  -43.5133 H         1 UNK         0.0849 
     68 H68        20.7943  -26.9132  -42.3955 H         1 UNK         0.0849 
     69 H69        16.9375  -29.2855  -41.4182 H         1 UNK         0.0865 
     70 H70        17.0494  -28.1851  -42.7626 H         1 UNK         0.0865 
     71 H71        18.4184  -31.3588  -41.3544 H         1 UNK         0.1346 
     72 H72        19.4975  -32.9512  -45.1822 H         1 UNK         0.1412 
     73 H73        17.9988  -28.9436  -44.8748 H         1 UNK         0.1426 
     74 H74        17.9631  -30.9975  -47.1708 H         1 UNK         0.0716 
     75 H75        19.6159  -31.5556  -47.0923 H         1 UNK         0.0716 
     76 H76        21.7583  -29.9019  -46.8152 H         1 UNK         0.0695 
     77 H77        21.0271  -29.1298  -45.4272 H         1 UNK         0.0695 
     78 H78        22.1413  -27.7317  -47.9250 H         1 UNK         0.0983 
     79 H79        20.1602  -26.7343  -46.1453 H         1 UNK         0.3095 
     80 H80        21.0076  -23.3021  -46.1832 H         1 UNK         0.0454 
     81 H81        19.5651  -23.4613  -48.1567 H         1 UNK         0.0851 
     82 H82        18.5774  -23.0887  -46.7531 H         1 UNK         0.0851 
     83 H83        18.5904  -24.7200  -47.4227 H         1 UNK         0.0851 
     84 H84        20.5135  -24.0914  -44.1830 H         1 UNK         0.2976 
     85 H85        22.2825  -26.5124  -44.6643 H         1 UNK         0.3116 
     86 H86        25.0400  -26.0895  -44.6212 H         1 UNK         0.0646 
     87 H87        25.6636  -27.4827  -42.6634 H         1 UNK         0.0847 
     88 H88        25.0583  -28.5693  -43.8948 H         1 UNK         0.0847 
     89 H89        24.0345  -28.1242  -42.5323 H         1 UNK         0.0847 
     90 H90        25.3928  -25.2911  -42.0755 H         1 UNK         0.3040 
     91 H91        23.4395  -23.2588  -41.5104 H         1 UNK         0.1015 
     92 H92        24.7778  -22.9347  -39.4240 H         1 UNK         0.0786 
     93 H93        25.8165  -23.0197  -40.8365 H         1 UNK         0.0786 
     94 H94        25.6825  -24.4055  -39.7537 H         1 UNK         0.0786 
     95 H95        24.0671  -26.4897  -40.1621 H         1 UNK         0.3172 
     96 H96        21.2927  -26.9184  -39.5445 H         1 UNK         0.0595 
     97 H97        23.3049  -26.8297  -37.2169 H         1 UNK         0.0839 
     98 H98        21.6881  -27.5170  -37.1263 H         1 UNK         0.0839 
     99 H99        21.8911  -25.7954  -37.4071 H         1 UNK         0.0839 
    100 H100       21.3198  -28.6903  -40.8591 H         1 UNK         0.2998 
    101 H101       23.6406  -30.5057  -40.9523 H         1 UNK         0.0822 
    102 H102       22.6649  -29.9352  -43.1088 H         1 UNK         0.0787 
    103 H103       21.0436  -30.3100  -42.5539 H         1 UNK         0.0787 
    104 H104       22.2184  -31.5983  -42.7751 H         1 UNK         0.0787 
    105 H105       23.6594  -32.5615  -40.1507 H         1 UNK         0.3055 
    106 H106       21.4100  -33.4708  -38.4181 H         1 UNK         0.1106 
    107 H107       24.3159  -34.4400  -38.6417 H         1 UNK         0.0828 
    108 H108       23.6692  -33.4105  -37.3655 H         1 UNK         0.0828 
    109 H109       23.1031  -35.0642  -37.5328 H         1 UNK         0.0828 
    110 H110       20.0171  -34.8905  -39.3448 H         1 UNK         0.2931 
    111 H111       20.6013  -36.0439  -41.9528 H         1 UNK         0.0412 
    112 H112       21.3206  -37.2858  -38.8393 H         1 UNK         0.3472 
    113 H113       21.3370  -38.9674  -39.3089 H         1 UNK         0.3472 
    114 H114       18.2437  -36.8051  -41.9053 H         1 UNK         0.0970 
    115 H115       18.0826  -36.3090  -40.2497 H         1 UNK         0.0970 
    116 H116       19.8479  -34.2790  -43.2696 H         1 UNK         0.0612 
    117 H117       20.1507  -33.3760  -41.7979 H         1 UNK         0.0612 
@<TRIPOS>BOND
     1    1    2 1    
     2    1   62 1    
     3    1   63 1    
     4    1   64 1    
     5    2    3 2    
     6    2    4 am   BACKBONE|DICT|INTERRES
     7    4    5 1    
     8    4   65 1    
     9    5    6 1    
    10    5   25 1    
    11    5   66 1    
    12    6    7 1    
    13    6   67 1    
    14    6   68 1    
    15    7    8 1    
    16    8    9 1    
    17    8   69 1    
    18    8   70 1    
    19    9   10 ar   
    20    9   14 ar   
    21   10   11 ar   
    22   10   71 1    
    23   11   12 ar   
    24   11   61 1    
    25   12   13 ar   
    26   12   72 1    
    27   13   14 ar   
    28   13   15 1    
    29   14   73 1    
    30   15   16 1    
    31   15   74 1    
    32   15   75 1    
    33   16   17 1    
    34   17   18 1    
    35   17   76 1    
    36   17   77 1    
    37   18   19 1    
    38   18   27 1    
    39   18   78 1    
    40   19   20 am   BACKBONE|DICT|INTERRES
    41   19   79 1    
    42   20   21 2    
    43   20   22 1    
    44   22   23 1    
    45   22   24 1    
    46   22   80 1    
    47   23   81 1    
    48   23   82 1    
    49   23   83 1    
    50   24   25 am   BACKBONE|DICT|INTERRES
    51   24   84 1    
    52   25   26 2    
    53   27   28 2    
    54   27   29 am   BACKBONE|DICT|INTERRES
    55   29   30 1    
    56   29   85 1    
    57   30   31 1    
    58   30   32 1    
    59   30   86 1    
    60   31   87 1    
    61   31   88 1    
    62   31   89 1    
    63   32   33 2    
    64   32   34 am   BACKBONE|DICT|INTERRES
    65   34   35 1    
    66   34   90 1    
    67   35   36 1    
    68   35   37 1    
    69   35   91 1    
    70   36   92 1    
    71   36   93 1    
    72   36   94 1    
    73   37   38 2    
    74   37   39 am   BACKBONE|DICT|INTERRES
    75   39   40 1    
    76   39   95 1    
    77   40   41 1    
    78   40   42 1    
    79   40   96 1    
    80   41   97 1    
    81   41   98 1    
    82   41   99 1    
    83   42   43 2    
    84   42   44 am   BACKBONE|DICT|INTERRES
    85   44   45 1    
    86   44  100 1    
    87   45   46 1    
    88   45   47 1    
    89   45  101 1    
    90   46  102 1    
    91   46  103 1    
    92   46  104 1    
    93   47   48 2    
    94   47   49 am   BACKBONE|DICT|INTERRES
    95   49   50 1    
    96   49  105 1    
    97   50   51 1    
    98   50   52 1    
    99   50  106 1    
   100   51  107 1    
   101   51  108 1    
   102   51  109 1    
   103   52   53 2    
   104   52   54 am   BACKBONE|DICT|INTERRES
   105   54   55 1    
   106   54  110 1    
   107   55   56 1    
   108   55   59 1    
   109   55  111 1    
   110   56   57 am   BACKBONE|DICT|INTERRES
   111   56   58 2    
   112   57  112 1    
   113   57  113 1    
   114   59   60 1    
   115   59  114 1    
   116   59  115 1    
   117   60   61 1    
   118   61  116 1    
   119   61  117 1    
@<TRIPOS>SUBSTRUCTURE
     1 UNK         1 GROUP             0       ****    0 ROOT    
