@<TRIPOS>MOLECULE
3R8
117   119    1
SMALL
USER_CHARGES


@<TRIPOS>ATOM
      1 CA         16.2235  -23.9290  -39.5318 C.3       0 UNK        -0.2013 
      2 C          16.7764  -24.1983  -40.9235 C.2       0 UNK         0.4866 
      3 O          17.3739  -23.3069  -41.5277 O.2       0 UNK        -0.5176 
      4 N          16.5760  -25.4178  -41.4391 N.am      1 UNK        -0.4884 
      5 CA         17.1173  -25.8794  -42.7218 C.3       1 UNK         0.0853 
      6 C6         16.3489  -27.1244  -43.2278 C.3       10 UNK        -0.0849 
      7 S7         16.4333  -27.2821  -45.0413 S.3       10 UNK        -0.2776 
      8 C8         16.0554  -29.0527  -45.2644 C.3       10 UNK         0.0316 
      9 C9         17.1200  -29.9878  -44.6967 C.ar      10 UNK        -0.0863 
     10 C10        16.7345  -31.1244  -43.9767 C.ar      10 UNK        -0.1009 
     11 C11        17.6929  -32.0197  -43.4909 C.ar      10 UNK        -0.0712 
     12 C12        19.0466  -31.7686  -43.7298 C.ar      10 UNK        -0.0894 
     13 C13        19.4491  -30.6345  -44.4368 C.ar      10 UNK        -0.0745 
     14 C14        18.4811  -29.7481  -44.9182 C.ar      10 UNK        -0.0972 
     15 C15        20.9305  -30.3545  -44.6401 C.3       10 UNK         0.0209 
     16 S16        21.3587  -30.0756  -46.3907 S.3       10 UNK        -0.2568 
     17 C17        23.0648  -29.4613  -46.2078 C.3       10 UNK        -0.0983 
     18 CA         23.1578  -27.9105  -46.1840 C.3       3 UNK         0.0876 
     19 N          22.4264  -27.3337  -45.0594 N.am      3 UNK        -0.4424 
     20 C          21.2829  -26.6487  -45.0997 C.2       2 UNK         0.4918 
     21 O          20.6331  -26.4124  -46.1198 O.2       2 UNK        -0.4875 
     22 CA         20.8240  -26.1038  -43.7463 C.3       2 UNK         0.0481 
     23 CB         21.4914  -24.7485  -43.4481 C.3       2 UNK        -0.1831 
     24 N          19.3729  -25.9567  -43.7049 N.am      2 UNK        -0.4498 
     25 C          18.6347  -26.1426  -42.6047 C.2       1 UNK         0.5027 
     26 O          19.1080  -26.5126  -41.5255 O.2       1 UNK        -0.4969 
     27 C          24.6048  -27.4146  -46.0125 C.2       3 UNK         0.5005 
     28 O          25.5081  -28.2108  -45.7470 O.2       3 UNK        -0.5279 
     29 N          24.7709  -26.0820  -46.0296 N.am      4 UNK        -0.4463 
     30 CA         25.9217  -25.2988  -45.5510 C.3       4 UNK         0.0283 
     31 CB         27.2446  -25.6853  -46.2430 C.3       4 UNK        -0.1875 
     32 C          26.0363  -25.3300  -44.0150 C.2       4 UNK         0.4949 
     33 O          25.9956  -24.2732  -43.3854 O.2       4 UNK        -0.5039 
     34 N          26.1129  -26.5351  -43.4383 N.am      5 UNK        -0.4663 
     35 CA         25.9043  -26.7925  -42.0132 C.3       5 UNK         0.0242 
     36 CB         26.6219  -28.0961  -41.6295 C.3       5 UNK        -0.1982 
     37 C          24.3974  -26.9095  -41.7332 C.2       5 UNK         0.5017 
     38 O          23.6688  -27.4370  -42.5773 O.2       5 UNK        -0.5012 
     39 N          23.9541  -26.4262  -40.5666 N.am      6 UNK        -0.4439 
     40 CA         22.5545  -26.4757  -40.1364 C.3       6 UNK         0.0297 
     41 CB         22.3516  -25.5296  -38.9421 C.3       6 UNK        -0.2006 
     42 C          22.1194  -27.9052  -39.7748 C.2       6 UNK         0.4892 
     43 O          22.8440  -28.5815  -39.0413 O.2       6 UNK        -0.5089 
     44 N          20.9310  -28.2985  -40.2568 N.am      7 UNK        -0.4243 
     45 CA         20.2299  -29.5642  -40.0152 C.3       7 UNK         0.0196 
     46 CB         19.5417  -29.5201  -38.6326 C.3       7 UNK        -0.2007 
     47 C          21.1112  -30.8108  -40.2376 C.2       7 UNK         0.5020 
     48 O          21.4279  -31.1276  -41.3850 O.2       7 UNK        -0.5147 
     49 N          21.4638  -31.5040  -39.1444 N.am      8 UNK        -0.4734 
     50 CA         22.2248  -32.7574  -39.0437 C.3       8 UNK         0.0238 
     51 CB         23.6251  -32.6413  -39.6805 C.3       8 UNK        -0.1912 
     52 C          21.4504  -33.9756  -39.5719 C.2       8 UNK         0.5038 
     53 O          21.2287  -34.9191  -38.8121 O.2       8 UNK        -0.5046 
     54 N          21.0345  -33.9168  -40.8427 N.am      9 UNK        -0.4200 
     55 CA         20.1887  -34.9043  -41.5372 C.3       9 UNK         0.0839 
     56 C          20.8157  -36.3246  -41.6862 C.2       9 UNK         0.5513 
     57 N          22.1327  -36.4725  -41.6056 N.am      9 UNK        -0.7519 
     58 O          20.1077  -37.3031  -41.9114 O.2       9 UNK        -0.4960 
     59 C59        18.7319  -34.9344  -40.9867 C.3       10 UNK        -0.0876 
     60 S60        17.9184  -33.2974  -41.0339 S.3       10 UNK        -0.2414 
     61 C61        17.2706  -33.2743  -42.7381 C.3       10 UNK         0.0169 
     62 H62        15.5194  -23.0979  -39.5619 H         1 UNK         0.0903 
     63 H63        15.7064  -24.7968  -39.1227 H         1 UNK         0.0903 
     64 H64        17.0333  -23.6656  -38.8519 H         1 UNK         0.0903 
     65 H65        16.1119  -26.1200  -40.8807 H         1 UNK         0.3096 
     66 H66        16.9727  -25.0657  -43.4370 H         1 UNK         0.1121 
     67 H67        15.2908  -27.0465  -42.9716 H         1 UNK         0.0849 
     68 H68        16.7076  -28.0355  -42.7438 H         1 UNK         0.0849 
     69 H69        15.0809  -29.2587  -44.8185 H         1 UNK         0.0865 
     70 H70        15.9529  -29.2552  -46.3313 H         1 UNK         0.0865 
     71 H71        15.6847  -31.3220  -43.8066 H         1 UNK         0.1346 
     72 H72        19.7923  -32.4500  -43.3488 H         1 UNK         0.1412 
     73 H73        18.7919  -28.8718  -45.4713 H         1 UNK         0.1426 
     74 H74        21.5364  -31.1801  -44.2634 H         1 UNK         0.0716 
     75 H75        21.1966  -29.4863  -44.0382 H         1 UNK         0.0716 
     76 H76        23.6471  -29.8569  -47.0418 H         1 UNK         0.0695 
     77 H77        23.5002  -29.8929  -45.3039 H         1 UNK         0.0695 
     78 H78        22.7791  -27.5165  -47.1298 H         1 UNK         0.0983 
     79 H79        22.8941  -27.4296  -44.1557 H         1 UNK         0.3095 
     80 H80        21.1278  -26.8313  -42.9923 H         1 UNK         0.0454 
     81 H81        22.5783  -24.8392  -43.4318 H         1 UNK         0.0851 
     82 H82        21.1861  -24.3580  -42.4773 H         1 UNK         0.0851 
     83 H83        21.2363  -24.0017  -44.2009 H         1 UNK         0.0851 
     84 H84        18.9297  -25.7395  -44.5889 H         1 UNK         0.2976 
     85 H85        23.9494  -25.5289  -46.2341 H         1 UNK         0.3116 
     86 H86        25.7062  -24.2657  -45.8294 H         1 UNK         0.0646 
     87 H87        27.5824  -26.6850  -45.9701 H         1 UNK         0.0847 
     88 H88        27.1497  -25.6482  -47.3280 H         1 UNK         0.0847 
     89 H89        28.0401  -24.9935  -45.9635 H         1 UNK         0.0847 
     90 H90        26.0664  -27.3407  -44.0560 H         1 UNK         0.3040 
     91 H91        26.3217  -25.9699  -41.4278 H         1 UNK         0.1015 
     92 H92        26.4950  -28.3146  -40.5682 H         1 UNK         0.0786 
     93 H93        27.6930  -28.0302  -41.8218 H         1 UNK         0.0786 
     94 H94        26.2328  -28.9496  -42.1869 H         1 UNK         0.0786 
     95 H95        24.6182  -26.0526  -39.9040 H         1 UNK         0.3172 
     96 H96        21.9325  -26.1126  -40.9540 H         1 UNK         0.0595 
     97 H97        22.9551  -25.8263  -38.0833 H         1 UNK         0.0839 
     98 H98        21.3086  -25.5280  -38.6219 H         1 UNK         0.0839 
     99 H99        22.6111  -24.5024  -39.1991 H         1 UNK         0.0839 
    100 H100       20.4044  -27.6327  -40.8197 H         1 UNK         0.2998 
    101 H101       19.4426  -29.6221  -40.7692 H         1 UNK         0.0822 
    102 H102       18.9845  -30.4379  -38.4376 H         1 UNK         0.0787 
    103 H103       18.8254  -28.6996  -38.5840 H         1 UNK         0.0787 
    104 H104       20.2554  -29.3777  -37.8202 H         1 UNK         0.0787 
    105 H105       21.1354  -31.1395  -38.2608 H         1 UNK         0.3055 
    106 H106       22.3731  -32.9254  -37.9754 H         1 UNK         0.1106 
    107 H107       24.1802  -31.8030  -39.2591 H         1 UNK         0.0828 
    108 H108       24.2101  -33.5432  -39.4966 H         1 UNK         0.0828 
    109 H109       23.5811  -32.5002  -40.7605 H         1 UNK         0.0828 
    110 H110       21.2401  -33.0611  -41.3496 H         1 UNK         0.2931 
    111 H111       20.1275  -34.5493  -42.5652 H         1 UNK         0.0412 
    112 H112       22.7259  -35.6769  -41.4326 H         1 UNK         0.3472 
    113 H113       22.5351  -37.3906  -41.7131 H         1 UNK         0.3472 
    114 H114       18.1161  -35.6435  -41.5428 H         1 UNK         0.0970 
    115 H115       18.7275  -35.2888  -39.9548 H         1 UNK         0.0970 
    116 H116       16.1835  -33.3578  -42.6968 H         1 UNK         0.0612 
    117 H117       17.6228  -34.1437  -43.2945 H         1 UNK         0.0612 
@<TRIPOS>BOND
     1    1    2 1    
     2    1   62 1    
     3    1   63 1    
     4    1   64 1    
     5    2    3 2    
     6    2    4 am   BACKBONE|DICT|INTERRES
     7    4    5 1    
     8    4   65 1    
     9    5    6 1    
    10    5   25 1    
    11    5   66 1    
    12    6    7 1    
    13    6   67 1    
    14    6   68 1    
    15    7    8 1    
    16    8    9 1    
    17    8   69 1    
    18    8   70 1    
    19    9   10 ar   
    20    9   14 ar   
    21   10   11 ar   
    22   10   71 1    
    23   11   12 ar   
    24   11   61 1    
    25   12   13 ar   
    26   12   72 1    
    27   13   14 ar   
    28   13   15 1    
    29   14   73 1    
    30   15   16 1    
    31   15   74 1    
    32   15   75 1    
    33   16   17 1    
    34   17   18 1    
    35   17   76 1    
    36   17   77 1    
    37   18   19 1    
    38   18   27 1    
    39   18   78 1    
    40   19   20 am   BACKBONE|DICT|INTERRES
    41   19   79 1    
    42   20   21 2    
    43   20   22 1    
    44   22   23 1    
    45   22   24 1    
    46   22   80 1    
    47   23   81 1    
    48   23   82 1    
    49   23   83 1    
    50   24   25 am   BACKBONE|DICT|INTERRES
    51   24   84 1    
    52   25   26 2    
    53   27   28 2    
    54   27   29 am   BACKBONE|DICT|INTERRES
    55   29   30 1    
    56   29   85 1    
    57   30   31 1    
    58   30   32 1    
    59   30   86 1    
    60   31   87 1    
    61   31   88 1    
    62   31   89 1    
    63   32   33 2    
    64   32   34 am   BACKBONE|DICT|INTERRES
    65   34   35 1    
    66   34   90 1    
    67   35   36 1    
    68   35   37 1    
    69   35   91 1    
    70   36   92 1    
    71   36   93 1    
    72   36   94 1    
    73   37   38 2    
    74   37   39 am   BACKBONE|DICT|INTERRES
    75   39   40 1    
    76   39   95 1    
    77   40   41 1    
    78   40   42 1    
    79   40   96 1    
    80   41   97 1    
    81   41   98 1    
    82   41   99 1    
    83   42   43 2    
    84   42   44 am   BACKBONE|DICT|INTERRES
    85   44   45 1    
    86   44  100 1    
    87   45   46 1    
    88   45   47 1    
    89   45  101 1    
    90   46  102 1    
    91   46  103 1    
    92   46  104 1    
    93   47   48 2    
    94   47   49 am   BACKBONE|DICT|INTERRES
    95   49   50 1    
    96   49  105 1    
    97   50   51 1    
    98   50   52 1    
    99   50  106 1    
   100   51  107 1    
   101   51  108 1    
   102   51  109 1    
   103   52   53 2    
   104   52   54 am   BACKBONE|DICT|INTERRES
   105   54   55 1    
   106   54  110 1    
   107   55   56 1    
   108   55   59 1    
   109   55  111 1    
   110   56   57 am   BACKBONE|DICT|INTERRES
   111   56   58 2    
   112   57  112 1    
   113   57  113 1    
   114   59   60 1    
   115   59  114 1    
   116   59  115 1    
   117   60   61 1    
   118   61  116 1    
   119   61  117 1    
@<TRIPOS>SUBSTRUCTURE
     1 UNK         1 GROUP             0       ****    0 ROOT    
