@<TRIPOS>MOLECULE
3R8
117   119    1
SMALL
USER_CHARGES


@<TRIPOS>ATOM
      1 CA         13.6857  -27.4750  -43.1120 C.3       0 UNK        -0.2013 
      2 C          14.2327  -26.3685  -44.0014 C.2       0 UNK         0.4866 
      3 O          13.7055  -25.2561  -43.9876 O.2       0 UNK        -0.5176 
      4 N          15.2849  -26.6679  -44.7737 N.am      1 UNK        -0.4884 
      5 CA         15.9901  -25.7154  -45.6372 C.3       1 UNK         0.0853 
      6 C6         16.9000  -26.3916  -46.6950 C.3       10 UNK        -0.0849 
      7 S7         16.0101  -27.4561  -47.8842 S.3       10 UNK        -0.2776 
      8 C8         15.6987  -29.0220  -46.9882 C.3       10 UNK         0.0316 
      9 C9         16.8575  -29.5049  -46.1202 C.ar      10 UNK        -0.0863 
     10 C10        16.6334  -29.8471  -44.7830 C.ar      10 UNK        -0.1009 
     11 C11        17.6726  -30.3148  -43.9723 C.ar      10 UNK        -0.0712 
     12 C12        18.9562  -30.4377  -44.5219 C.ar      10 UNK        -0.0894 
     13 C13        19.1952  -30.1011  -45.8581 C.ar      10 UNK        -0.0745 
     14 C14        18.1415  -29.6440  -46.6533 C.ar      10 UNK        -0.0972 
     15 C15        20.5850  -30.2476  -46.4581 C.3       10 UNK         0.0209 
     16 S16        21.5507  -28.7125  -46.3004 S.3       10 UNK        -0.2568 
     17 C17        22.1325  -28.8197  -44.5755 C.3       10 UNK        -0.0983 
     18 CA         21.6834  -27.6266  -43.6929 C.3       3 UNK         0.0876 
     19 N          20.2252  -27.4438  -43.6919 N.am      3 UNK        -0.4424 
     20 C          19.5977  -26.2945  -43.4149 C.2       2 UNK         0.4918 
     21 O          20.1844  -25.2494  -43.1200 O.2       2 UNK        -0.4875 
     22 CA         18.0662  -26.3236  -43.4054 C.3       2 UNK         0.0481 
     23 CB         17.5648  -26.6227  -41.9828 C.3       2 UNK        -0.1831 
     24 N          17.5856  -25.0031  -43.8169 N.am      2 UNK        -0.4498 
     25 C          16.7716  -24.6533  -44.8267 C.2       1 UNK         0.5027 
     26 O          16.6140  -23.4693  -45.1219 O.2       1 UNK        -0.4969 
     27 C          22.2293  -27.7425  -42.2498 C.2       3 UNK         0.5005 
     28 O          22.8425  -28.7519  -41.8987 O.2       3 UNK        -0.5279 
     29 N          21.9769  -26.7127  -41.4301 N.am      4 UNK        -0.4463 
     30 CA         22.3173  -26.6404  -40.0052 C.3       4 UNK         0.0283 
     31 CB         21.6707  -25.3855  -39.3978 C.3       4 UNK        -0.1875 
     32 C          23.8281  -26.6619  -39.7139 C.2       4 UNK         0.4949 
     33 O          24.2304  -27.0897  -38.6322 O.2       4 UNK        -0.5039 
     34 N          24.6321  -26.1984  -40.6791 N.am      5 UNK        -0.4663 
     35 CA         26.0948  -26.1923  -40.6171 C.3       5 UNK         0.0242 
     36 CB         26.6180  -25.0538  -41.5097 C.3       5 UNK        -0.1982 
     37 C          26.7294  -27.5342  -41.0297 C.2       5 UNK         0.5017 
     38 O          27.9346  -27.7002  -40.8348 O.2       5 UNK        -0.5012 
     39 N          25.9396  -28.4495  -41.6073 N.am      6 UNK        -0.4439 
     40 CA         26.3815  -29.7675  -42.0592 C.3       6 UNK         0.0297 
     41 CB         25.7416  -30.0587  -43.4277 C.3       6 UNK        -0.2006 
     42 C          25.9605  -30.8398  -41.0478 C.2       6 UNK         0.4892 
     43 O          25.0655  -30.6112  -40.2328 O.2       6 UNK        -0.5089 
     44 N          26.5640  -32.0288  -41.1687 N.am      7 UNK        -0.4243 
     45 CA         26.2240  -33.2195  -40.3794 C.3       7 UNK         0.0196 
     46 CB         27.2804  -34.3072  -40.6364 C.3       7 UNK        -0.2007 
     47 C          24.8066  -33.7689  -40.6456 C.2       7 UNK         0.5020 
     48 O          24.3180  -34.5722  -39.8510 O.2       7 UNK        -0.5147 
     49 N          24.1812  -33.3412  -41.7525 N.am      8 UNK        -0.4734 
     50 CA         22.8204  -33.6955  -42.1533 C.3       8 UNK         0.0238 
     51 CB         22.5399  -33.1500  -43.5654 C.3       8 UNK        -0.1912 
     52 C          21.7502  -33.2132  -41.1603 C.2       8 UNK         0.5038 
     53 O          20.9414  -34.0315  -40.7197 O.2       8 UNK        -0.5046 
     54 N          21.7615  -31.9109  -40.8406 N.am      9 UNK        -0.4200 
     55 CA         20.7464  -31.2472  -40.0038 C.3       9 UNK         0.0839 
     56 C          21.3369  -30.2913  -38.9298 C.2       9 UNK         0.5513 
     57 N          22.6463  -30.1252  -38.8013 N.am      9 UNK        -0.7519 
     58 O          20.5817  -29.6970  -38.1648 O.2       9 UNK        -0.4960 
     59 C59        19.6457  -30.5575  -40.8637 C.3       10 UNK        -0.0876 
     60 S60        18.5522  -31.7654  -41.6878 S.3       10 UNK        -0.2414 
     61 C61        17.3448  -30.6826  -42.5228 C.3       10 UNK         0.0169 
     62 H62        14.4035  -28.2829  -42.9772 H         1 UNK         0.0903 
     63 H63        13.4434  -27.0790  -42.1260 H         1 UNK         0.0903 
     64 H64        12.7758  -27.8899  -43.5448 H         1 UNK         0.0903 
     65 H65        15.6767  -27.5967  -44.7499 H         1 UNK         0.3096 
     66 H66        15.2212  -25.1691  -46.1891 H         1 UNK         0.1121 
     67 H67        17.3886  -25.6200  -47.2935 H         1 UNK         0.0849 
     68 H68        17.7186  -26.9479  -46.2433 H         1 UNK         0.0849 
     69 H69        14.7914  -28.9041  -46.3943 H         1 UNK         0.0865 
     70 H70        15.4704  -29.7971  -47.7210 H         1 UNK         0.0865 
     71 H71        15.6361  -29.7759  -44.3718 H         1 UNK         0.1346 
     72 H72        19.7733  -30.8106  -43.9225 H         1 UNK         0.1412 
     73 H73        18.3212  -29.3894  -47.6892 H         1 UNK         0.1426 
     74 H74        20.5024  -30.4977  -47.5169 H         1 UNK         0.0716 
     75 H75        21.1206  -31.0787  -45.9963 H         1 UNK         0.0716 
     76 H76        23.2216  -28.8563  -44.6177 H         1 UNK         0.0695 
     77 H77        21.8188  -29.7662  -44.1350 H         1 UNK         0.0695 
     78 H78        22.1353  -26.7289  -44.1215 H         1 UNK         0.0983 
     79 H79        19.6803  -28.2580  -43.9379 H         1 UNK         0.3095 
     80 H80        17.7362  -27.1179  -44.0699 H         1 UNK         0.0454 
     81 H81        17.9666  -27.5659  -41.6124 H         1 UNK         0.0851 
     82 H82        16.4786  -26.6960  -41.9486 H         1 UNK         0.0851 
     83 H83        17.8662  -25.8470  -41.2776 H         1 UNK         0.0851 
     84 H84        18.0875  -24.2519  -43.3628 H         1 UNK         0.2976 
     85 H85        21.4446  -25.9373  -41.8157 H         1 UNK         0.3116 
     86 H86        21.8784  -27.5112  -39.5191 H         1 UNK         0.0646 
     87 H87        21.8788  -25.3180  -38.3290 H         1 UNK         0.0847 
     88 H88        22.0461  -24.4724  -39.8616 H         1 UNK         0.0847 
     89 H89        20.5868  -25.4011  -39.5140 H         1 UNK         0.0847 
     90 H90        24.2083  -25.8545  -41.5285 H         1 UNK         0.3040 
     91 H91        26.4070  -25.9912  -39.5896 H         1 UNK         0.1015 
     92 H92        27.7058  -24.9861  -41.4606 H         1 UNK         0.0786 
     93 H93        26.2221  -24.0882  -41.1944 H         1 UNK         0.0786 
     94 H94        26.3483  -25.2035  -42.5560 H         1 UNK         0.0786 
     95 H95        24.9366  -28.2989  -41.6130 H         1 UNK         0.3172 
     96 H96        27.4678  -29.7912  -42.1683 H         1 UNK         0.0595 
     97 H97        24.6617  -30.1840  -43.3471 H         1 UNK         0.0839 
     98 H98        26.1424  -30.9741  -43.8644 H         1 UNK         0.0839 
     99 H99        25.9346  -29.2541  -44.1375 H         1 UNK         0.0839 
    100 H100       27.2844  -32.1411  -41.8681 H         1 UNK         0.2998 
    101 H101       26.2659  -32.9428  -39.3236 H         1 UNK         0.0822 
    102 H102       27.0801  -35.1964  -40.0368 H         1 UNK         0.0787 
    103 H103       27.2950  -34.6166  -41.6823 H         1 UNK         0.0787 
    104 H104       28.2801  -33.9612  -40.3727 H         1 UNK         0.0787 
    105 H105       24.6759  -32.6928  -42.3458 H         1 UNK         0.3055 
    106 H106       22.7607  -34.7856  -42.1922 H         1 UNK         0.1106 
    107 H107       23.2141  -33.5889  -44.3010 H         1 UNK         0.0828 
    108 H108       21.5223  -33.3868  -43.8800 H         1 UNK         0.0828 
    109 H109       22.6508  -32.0664  -43.6143 H         1 UNK         0.0828 
    110 H110       22.4839  -31.3089  -41.2120 H         1 UNK         0.2931 
    111 H111       20.2518  -32.0094  -39.3986 H         1 UNK         0.0412 
    112 H112       23.3234  -30.5413  -39.4321 H         1 UNK         0.3472 
    113 H113       22.9816  -29.4908  -38.0943 H         1 UNK         0.3472 
    114 H114       19.0096  -29.9219  -40.2448 H         1 UNK         0.0970 
    115 H115       20.0974  -29.9020  -41.6090 H         1 UNK         0.0970 
    116 H116       17.2004  -29.7732  -41.9403 H         1 UNK         0.0612 
    117 H117       16.3876  -31.2061  -42.5060 H         1 UNK         0.0612 
@<TRIPOS>BOND
     1    1    2 1    
     2    1   62 1    
     3    1   63 1    
     4    1   64 1    
     5    2    3 2    
     6    2    4 am   BACKBONE|DICT|INTERRES
     7    4    5 1    
     8    4   65 1    
     9    5    6 1    
    10    5   25 1    
    11    5   66 1    
    12    6    7 1    
    13    6   67 1    
    14    6   68 1    
    15    7    8 1    
    16    8    9 1    
    17    8   69 1    
    18    8   70 1    
    19    9   10 ar   
    20    9   14 ar   
    21   10   11 ar   
    22   10   71 1    
    23   11   12 ar   
    24   11   61 1    
    25   12   13 ar   
    26   12   72 1    
    27   13   14 ar   
    28   13   15 1    
    29   14   73 1    
    30   15   16 1    
    31   15   74 1    
    32   15   75 1    
    33   16   17 1    
    34   17   18 1    
    35   17   76 1    
    36   17   77 1    
    37   18   19 1    
    38   18   27 1    
    39   18   78 1    
    40   19   20 am   BACKBONE|DICT|INTERRES
    41   19   79 1    
    42   20   21 2    
    43   20   22 1    
    44   22   23 1    
    45   22   24 1    
    46   22   80 1    
    47   23   81 1    
    48   23   82 1    
    49   23   83 1    
    50   24   25 am   BACKBONE|DICT|INTERRES
    51   24   84 1    
    52   25   26 2    
    53   27   28 2    
    54   27   29 am   BACKBONE|DICT|INTERRES
    55   29   30 1    
    56   29   85 1    
    57   30   31 1    
    58   30   32 1    
    59   30   86 1    
    60   31   87 1    
    61   31   88 1    
    62   31   89 1    
    63   32   33 2    
    64   32   34 am   BACKBONE|DICT|INTERRES
    65   34   35 1    
    66   34   90 1    
    67   35   36 1    
    68   35   37 1    
    69   35   91 1    
    70   36   92 1    
    71   36   93 1    
    72   36   94 1    
    73   37   38 2    
    74   37   39 am   BACKBONE|DICT|INTERRES
    75   39   40 1    
    76   39   95 1    
    77   40   41 1    
    78   40   42 1    
    79   40   96 1    
    80   41   97 1    
    81   41   98 1    
    82   41   99 1    
    83   42   43 2    
    84   42   44 am   BACKBONE|DICT|INTERRES
    85   44   45 1    
    86   44  100 1    
    87   45   46 1    
    88   45   47 1    
    89   45  101 1    
    90   46  102 1    
    91   46  103 1    
    92   46  104 1    
    93   47   48 2    
    94   47   49 am   BACKBONE|DICT|INTERRES
    95   49   50 1    
    96   49  105 1    
    97   50   51 1    
    98   50   52 1    
    99   50  106 1    
   100   51  107 1    
   101   51  108 1    
   102   51  109 1    
   103   52   53 2    
   104   52   54 am   BACKBONE|DICT|INTERRES
   105   54   55 1    
   106   54  110 1    
   107   55   56 1    
   108   55   59 1    
   109   55  111 1    
   110   56   57 am   BACKBONE|DICT|INTERRES
   111   56   58 2    
   112   57  112 1    
   113   57  113 1    
   114   59   60 1    
   115   59  114 1    
   116   59  115 1    
   117   60   61 1    
   118   61  116 1    
   119   61  117 1    
@<TRIPOS>SUBSTRUCTURE
     1 UNK         1 GROUP             0       ****    0 ROOT    
