@<TRIPOS>MOLECULE
3R8
117   119    1
SMALL
USER_CHARGES


@<TRIPOS>ATOM
      1 CA         15.9137  -29.5157  -47.9204 C.3       0 UNK        -0.2013 
      2 C          15.8689  -28.8727  -46.5425 C.2       0 UNK         0.4866 
      3 O          15.4023  -29.4989  -45.5917 O.2       0 UNK        -0.5176 
      4 N          16.3483  -27.6286  -46.4299 N.am      1 UNK        -0.4884 
      5 CA         16.4065  -26.8600  -45.1824 C.3       1 UNK         0.0853 
      6 C6         15.0488  -26.1743  -44.8625 C.3       10 UNK        -0.0849 
      7 S7         14.8578  -25.5680  -43.1488 S.3       10 UNK        -0.2776 
      8 C8         14.5555  -27.0954  -42.1968 C.3       10 UNK         0.0316 
      9 C9         15.8547  -27.7853  -41.8000 C.ar      10 UNK        -0.0863 
     10 C10        16.1386  -29.0792  -42.2482 C.ar      10 UNK        -0.1009 
     11 C11        17.3474  -29.6947  -41.9109 C.ar      10 UNK        -0.0712 
     12 C12        18.2595  -29.0258  -41.0907 C.ar      10 UNK        -0.0894 
     13 C13        18.0024  -27.7218  -40.6650 C.ar      10 UNK        -0.0745 
     14 C14        16.7892  -27.1157  -41.0031 C.ar      10 UNK        -0.0972 
     15 C15        19.0494  -26.9431  -39.8850 C.3       10 UNK         0.0209 
     16 S16        19.9350  -25.7881  -40.9827 S.3       10 UNK        -0.2568 
     17 C17        21.4270  -26.7298  -41.4550 C.3       10 UNK        -0.0983 
     18 CA         21.2429  -27.7307  -42.6334 C.3       3 UNK         0.0876 
     19 N          20.5576  -27.1760  -43.8100 N.am      3 UNK        -0.4424 
     20 C          20.9428  -26.1391  -44.5688 C.2       2 UNK         0.4918 
     21 O          21.9675  -25.4869  -44.3721 O.2       2 UNK        -0.4875 
     22 CA         20.0614  -25.7972  -45.7856 C.3       2 UNK         0.0481 
     23 CB         20.7757  -26.1980  -47.0876 C.3       2 UNK        -0.1831 
     24 N          18.7539  -26.4615  -45.7410 N.am      2 UNK        -0.4498 
     25 C          17.6430  -25.9360  -45.2020 C.2       1 UNK         0.5027 
     26 O          17.5823  -24.7873  -44.7625 O.2       1 UNK        -0.4969 
     27 C          22.5624  -28.4659  -42.9671 C.2       3 UNK         0.5005 
     28 O          23.2854  -28.8360  -42.0419 O.2       3 UNK        -0.5279 
     29 N          22.8618  -28.6806  -44.2593 N.am      4 UNK        -0.4463 
     30 CA         24.0542  -29.3449  -44.8021 C.3       4 UNK         0.0283 
     31 CB         23.9620  -30.8719  -44.5888 C.3       4 UNK        -0.1875 
     32 C          25.3629  -28.7204  -44.2759 C.2       4 UNK         0.4949 
     33 O          25.7289  -27.6312  -44.7162 O.2       4 UNK        -0.5039 
     34 N          26.0215  -29.3968  -43.3260 N.am      5 UNK        -0.4663 
     35 CA         27.2477  -28.9598  -42.6498 C.3       5 UNK         0.0242 
     36 CB         28.0915  -30.2063  -42.3229 C.3       5 UNK        -0.1982 
     37 C          26.9729  -28.1083  -41.3901 C.2       5 UNK         0.5017 
     38 O          27.8319  -28.0461  -40.5095 O.2       5 UNK        -0.5012 
     39 N          25.7866  -27.4863  -41.3201 N.am      6 UNK        -0.4439 
     40 CA         25.2164  -26.7410  -40.1912 C.3       6 UNK         0.0297 
     41 CB         26.0963  -25.5390  -39.7841 C.3       6 UNK        -0.2006 
     42 C          24.8664  -27.6791  -39.0217 C.2       6 UNK         0.4892 
     43 O          25.2308  -27.4109  -37.8750 O.2       6 UNK        -0.5089 
     44 N          24.1693  -28.7726  -39.3487 N.am      7 UNK        -0.4243 
     45 CA         23.7285  -29.8164  -38.4301 C.3       7 UNK         0.0196 
     46 CB         24.8980  -30.7820  -38.1294 C.3       7 UNK        -0.2007 
     47 C          22.4824  -30.4909  -39.0281 C.2       7 UNK         0.5020 
     48 O          21.5826  -29.7930  -39.4991 O.2       7 UNK        -0.5147 
     49 N          22.4355  -31.8278  -38.9993 N.am      8 UNK        -0.4734 
     50 CA         21.4087  -32.6305  -39.6640 C.3       8 UNK         0.0238 
     51 CB         21.3631  -34.0230  -39.0132 C.3       8 UNK        -0.1912 
     52 C          21.7011  -32.7484  -41.1691 C.2       8 UNK         0.5038 
     53 O          22.8675  -32.7303  -41.5698 O.2       8 UNK        -0.5046 
     54 N          20.6372  -32.9078  -41.9634 N.am      9 UNK        -0.4200 
     55 CA         20.6984  -33.0557  -43.4278 C.3       9 UNK         0.0839 
     56 C          21.1620  -34.4583  -43.9199 C.2       9 UNK         0.5513 
     57 N          21.2909  -35.4614  -43.0597 N.am      9 UNK        -0.7519 
     58 O          21.4149  -34.6368  -45.1083 O.2       9 UNK        -0.4960 
     59 C59        19.3634  -32.6409  -44.1018 C.3       10 UNK        -0.0876 
     60 S60        18.9421  -30.8937  -43.7931 S.3       10 UNK        -0.2414 
     61 C61        17.7020  -31.0599  -42.4704 C.3       10 UNK         0.0169 
     62 H62        16.5113  -30.4263  -47.8888 H         1 UNK         0.0903 
     63 H63        14.9070  -29.7799  -48.2431 H         1 UNK         0.0903 
     64 H64        16.3462  -28.8516  -48.6685 H         1 UNK         0.0903 
     65 H65        16.7018  -27.1507  -47.2490 H         1 UNK         0.3096 
     66 H66        16.6206  -27.5667  -44.3827 H         1 UNK         0.1121 
     67 H67        14.8842  -25.3373  -45.5431 H         1 UNK         0.0849 
     68 H68        14.2284  -26.8681  -45.0520 H         1 UNK         0.0849 
     69 H69        14.0070  -26.8394  -41.2893 H         1 UNK         0.0865 
     70 H70        13.9080  -27.7641  -42.7663 H         1 UNK         0.0865 
     71 H71        15.4354  -29.5946  -42.8888 H         1 UNK         0.1346 
     72 H72        19.1925  -29.5047  -40.8256 H         1 UNK         0.1412 
     73 H73        16.5883  -26.1036  -40.6781 H         1 UNK         0.1426 
     74 H74        19.7518  -27.6150  -39.3892 H         1 UNK         0.0716 
     75 H75        18.5610  -26.3729  -39.0935 H         1 UNK         0.0716 
     76 H76        21.7940  -27.2463  -40.5666 H         1 UNK         0.0695 
     77 H77        22.1946  -25.9979  -41.7101 H         1 UNK         0.0695 
     78 H78        20.5937  -28.5268  -42.2790 H         1 UNK         0.0983 
     79 H79        19.6930  -27.6363  -44.0517 H         1 UNK         0.3095 
     80 H80        19.9254  -24.7138  -45.7972 H         1 UNK         0.0454 
     81 H81        20.9489  -27.2732  -47.1445 H         1 UNK         0.0851 
     82 H82        21.7466  -25.7068  -47.1687 H         1 UNK         0.0851 
     83 H83        20.1955  -25.9054  -47.9629 H         1 UNK         0.0851 
     84 H84        18.7077  -27.4022  -46.1079 H         1 UNK         0.2976 
     85 H85        22.2232  -28.3069  -44.9454 H         1 UNK         0.3116 
     86 H86        24.0468  -29.1660  -45.8785 H         1 UNK         0.0646 
     87 H87        23.1138  -31.2868  -45.1325 H         1 UNK         0.0847 
     88 H88        24.8533  -31.3792  -44.9607 H         1 UNK         0.0847 
     89 H89        23.8405  -31.1381  -43.5385 H         1 UNK         0.0847 
     90 H90        25.6026  -30.2502  -42.9831 H         1 UNK         0.3040 
     91 H91        27.8270  -28.3321  -43.3308 H         1 UNK         0.1015 
     92 H92        27.5919  -30.8517  -41.5992 H         1 UNK         0.0786 
     93 H93        29.0586  -29.9293  -41.9010 H         1 UNK         0.0786 
     94 H94        28.2916  -30.7960  -43.2177 H         1 UNK         0.0786 
     95 H95        25.1332  -27.6905  -42.0667 H         1 UNK         0.3172 
     96 H96        24.2695  -26.3360  -40.5480 H         1 UNK         0.0595 
     97 H97        27.0402  -25.8527  -39.3379 H         1 UNK         0.0839 
     98 H98        25.5848  -24.9188  -39.0472 H         1 UNK         0.0839 
     99 H99        26.3230  -24.9043  -40.6405 H         1 UNK         0.0839 
    100 H100       23.8497  -28.8804  -40.3125 H         1 UNK         0.2998 
    101 H101       23.4100  -29.3500  -37.4956 H         1 UNK         0.0822 
    102 H102       24.6180  -31.5315  -37.3883 H         1 UNK         0.0787 
    103 H103       25.2339  -31.3012  -39.0283 H         1 UNK         0.0787 
    104 H104       25.7558  -30.2466  -37.7218 H         1 UNK         0.0787 
    105 H105       23.2354  -32.3269  -38.6384 H         1 UNK         0.3055 
    106 H106       20.4389  -32.1456  -39.5279 H         1 UNK         0.1106 
    107 H107       21.1559  -33.9547  -37.9450 H         1 UNK         0.0828 
    108 H108       20.5767  -34.6373  -39.4536 H         1 UNK         0.0828 
    109 H109       22.3047  -34.5596  -39.1384 H         1 UNK         0.0828 
    110 H110       19.7176  -32.9548  -41.5530 H         1 UNK         0.2931 
    111 H111       21.4600  -32.3606  -43.7843 H         1 UNK         0.0412 
    112 H112       21.0949  -35.3273  -42.0814 H         1 UNK         0.3472 
    113 H113       21.5959  -36.3621  -43.3947 H         1 UNK         0.3472 
    114 H114       19.4294  -32.7636  -45.1847 H         1 UNK         0.0970 
    115 H115       18.5458  -33.2874  -43.7779 H         1 UNK         0.0970 
    116 H116       16.8166  -31.5602  -42.8661 H         1 UNK         0.0612 
    117 H117       18.0884  -31.6893  -41.6686 H         1 UNK         0.0612 
@<TRIPOS>BOND
     1    1    2 1    
     2    1   62 1    
     3    1   63 1    
     4    1   64 1    
     5    2    3 2    
     6    2    4 am   BACKBONE|DICT|INTERRES
     7    4    5 1    
     8    4   65 1    
     9    5    6 1    
    10    5   25 1    
    11    5   66 1    
    12    6    7 1    
    13    6   67 1    
    14    6   68 1    
    15    7    8 1    
    16    8    9 1    
    17    8   69 1    
    18    8   70 1    
    19    9   10 ar   
    20    9   14 ar   
    21   10   11 ar   
    22   10   71 1    
    23   11   12 ar   
    24   11   61 1    
    25   12   13 ar   
    26   12   72 1    
    27   13   14 ar   
    28   13   15 1    
    29   14   73 1    
    30   15   16 1    
    31   15   74 1    
    32   15   75 1    
    33   16   17 1    
    34   17   18 1    
    35   17   76 1    
    36   17   77 1    
    37   18   19 1    
    38   18   27 1    
    39   18   78 1    
    40   19   20 am   BACKBONE|DICT|INTERRES
    41   19   79 1    
    42   20   21 2    
    43   20   22 1    
    44   22   23 1    
    45   22   24 1    
    46   22   80 1    
    47   23   81 1    
    48   23   82 1    
    49   23   83 1    
    50   24   25 am   BACKBONE|DICT|INTERRES
    51   24   84 1    
    52   25   26 2    
    53   27   28 2    
    54   27   29 am   BACKBONE|DICT|INTERRES
    55   29   30 1    
    56   29   85 1    
    57   30   31 1    
    58   30   32 1    
    59   30   86 1    
    60   31   87 1    
    61   31   88 1    
    62   31   89 1    
    63   32   33 2    
    64   32   34 am   BACKBONE|DICT|INTERRES
    65   34   35 1    
    66   34   90 1    
    67   35   36 1    
    68   35   37 1    
    69   35   91 1    
    70   36   92 1    
    71   36   93 1    
    72   36   94 1    
    73   37   38 2    
    74   37   39 am   BACKBONE|DICT|INTERRES
    75   39   40 1    
    76   39   95 1    
    77   40   41 1    
    78   40   42 1    
    79   40   96 1    
    80   41   97 1    
    81   41   98 1    
    82   41   99 1    
    83   42   43 2    
    84   42   44 am   BACKBONE|DICT|INTERRES
    85   44   45 1    
    86   44  100 1    
    87   45   46 1    
    88   45   47 1    
    89   45  101 1    
    90   46  102 1    
    91   46  103 1    
    92   46  104 1    
    93   47   48 2    
    94   47   49 am   BACKBONE|DICT|INTERRES
    95   49   50 1    
    96   49  105 1    
    97   50   51 1    
    98   50   52 1    
    99   50  106 1    
   100   51  107 1    
   101   51  108 1    
   102   51  109 1    
   103   52   53 2    
   104   52   54 am   BACKBONE|DICT|INTERRES
   105   54   55 1    
   106   54  110 1    
   107   55   56 1    
   108   55   59 1    
   109   55  111 1    
   110   56   57 am   BACKBONE|DICT|INTERRES
   111   56   58 2    
   112   57  112 1    
   113   57  113 1    
   114   59   60 1    
   115   59  114 1    
   116   59  115 1    
   117   60   61 1    
   118   61  116 1    
   119   61  117 1    
@<TRIPOS>SUBSTRUCTURE
     1 UNK         1 GROUP             0       ****    0 ROOT    
