@<TRIPOS>MOLECULE
3R8
117   119    1
SMALL
USER_CHARGES


@<TRIPOS>ATOM
      1 CA         14.5737  -24.5469  -41.0069 C.3       0 UNK        -0.2013 
      2 C          15.4653  -24.2927  -42.2133 C.2       0 UNK         0.4866 
      3 O          15.6271  -23.1427  -42.6238 O.2       0 UNK        -0.5176 
      4 N          16.0368  -25.3570  -42.7900 N.am      1 UNK        -0.4884 
      5 CA         16.9634  -25.2950  -43.9248 C.3       1 UNK         0.0853 
      6 C6         17.1757  -26.6851  -44.5633 C.3       10 UNK        -0.0849 
      7 S7         15.6849  -27.3081  -45.4146 S.3       10 UNK        -0.2776 
      8 C8         15.7154  -29.0967  -45.0193 C.3       10 UNK         0.0316 
      9 C9         17.0726  -29.7792  -45.2040 C.ar      10 UNK        -0.0863 
     10 C10        17.4201  -30.8422  -44.3665 C.ar      10 UNK        -0.1009 
     11 C11        18.6739  -31.4517  -44.4659 C.ar      10 UNK        -0.0712 
     12 C12        19.5946  -30.9828  -45.4096 C.ar      10 UNK        -0.0894 
     13 C13        19.2682  -29.9134  -46.2503 C.ar      10 UNK        -0.0745 
     14 C14        17.9881  -29.3556  -46.1736 C.ar      10 UNK        -0.0972 
     15 C15        20.2912  -29.3586  -47.2387 C.3       10 UNK         0.0209 
     16 S16        20.3664  -27.5288  -47.2037 S.3       10 UNK        -0.2568 
     17 C17        22.0976  -27.1412  -46.7531 C.3       10 UNK        -0.0983 
     18 CA         22.2752  -26.3949  -45.4002 C.3       3 UNK         0.0876 
     19 N          21.2918  -25.3277  -45.1915 N.am      3 UNK        -0.4424 
     20 C          21.4232  -24.3227  -44.3133 C.2       2 UNK         0.4918 
     21 O          22.4149  -24.1552  -43.6035 O.2       2 UNK        -0.4875 
     22 CA         20.2594  -23.3202  -44.2179 C.3       2 UNK         0.0481 
     23 CB         20.4485  -22.1831  -45.2348 C.3       2 UNK        -0.1831 
     24 N          18.9450  -23.9381  -44.4153 N.am      2 UNK        -0.4498 
     25 C          18.3251  -24.7036  -43.5057 C.2       1 UNK         0.5027 
     26 O          18.7990  -24.9788  -42.4006 O.2       1 UNK        -0.4969 
     27 C          22.3266  -27.3514  -44.1971 C.2       3 UNK         0.5005 
     28 O          23.3772  -27.4804  -43.5654 O.2       3 UNK        -0.5279 
     29 N          21.1947  -28.0134  -43.9122 N.am      4 UNK        -0.4463 
     30 CA         20.9662  -28.9381  -42.7911 C.3       4 UNK         0.0283 
     31 CB         20.8313  -28.1447  -41.4764 C.3       4 UNK        -0.1875 
     32 C          21.9957  -30.0878  -42.6887 C.2       4 UNK         0.4949 
     33 O          22.2809  -30.5632  -41.5880 O.2       4 UNK        -0.5039 
     34 N          22.5652  -30.4876  -43.8369 N.am      5 UNK        -0.4663 
     35 CA         23.6672  -31.4471  -43.9914 C.3       5 UNK         0.0242 
     36 CB         23.2011  -32.8744  -43.6292 C.3       5 UNK        -0.1982 
     37 C          24.9478  -31.0108  -43.2452 C.2       5 UNK         0.5017 
     38 O          25.6467  -31.8544  -42.6848 O.2       5 UNK        -0.5012 
     39 N          25.2130  -29.6937  -43.2473 N.am      6 UNK        -0.4439 
     40 CA         26.2450  -28.9839  -42.4819 C.3       6 UNK         0.0297 
     41 CB         27.6679  -29.4777  -42.8243 C.3       6 UNK        -0.2006 
     42 C          25.9313  -28.9912  -40.9737 C.2       6 UNK         0.4892 
     43 O          26.8196  -29.2460  -40.1585 O.2       6 UNK        -0.5089 
     44 N          24.6592  -28.7073  -40.6489 N.am      7 UNK        -0.4243 
     45 CA         24.0546  -28.6967  -39.3096 C.3       7 UNK         0.0196 
     46 CB         24.6073  -27.5237  -38.4723 C.3       7 UNK        -0.2007 
     47 C          24.1630  -30.0584  -38.5951 C.2       7 UNK         0.5020 
     48 O          24.5274  -30.1113  -37.4186 O.2       7 UNK        -0.5147 
     49 N          23.8576  -31.1348  -39.3292 N.am      8 UNK        -0.4734 
     50 CA         23.9545  -32.5172  -38.8609 C.3       8 UNK         0.0238 
     51 CB         24.8543  -33.3186  -39.8142 C.3       8 UNK        -0.1912 
     52 C          22.5832  -33.1927  -38.7315 C.2       8 UNK         0.5038 
     53 O          22.4188  -34.0000  -37.8149 O.2       8 UNK        -0.5046 
     54 N          21.6340  -32.8874  -39.6304 N.am      9 UNK        -0.4200 
     55 CA         20.2770  -33.4585  -39.5858 C.3       9 UNK         0.0839 
     56 C          19.3507  -32.7458  -38.5591 C.2       9 UNK         0.5513 
     57 N          18.2277  -33.3602  -38.2111 N.am      9 UNK        -0.7519 
     58 O          19.6277  -31.6468  -38.0814 O.2       9 UNK        -0.4960 
     59 C59        19.6478  -33.6086  -40.9977 C.3       10 UNK        -0.0876 
     60 S60        19.2109  -32.0428  -41.8187 S.3       10 UNK        -0.2414 
     61 C61        19.0294  -32.6053  -43.5394 C.3       10 UNK         0.0169 
     62 H62        13.5652  -24.1834  -41.2024 H         1 UNK         0.0903 
     63 H63        14.5103  -25.6071  -40.7622 H         1 UNK         0.0903 
     64 H64        14.9631  -24.0207  -40.1357 H         1 UNK         0.0903 
     65 H65        15.8789  -26.2770  -42.4051 H         1 UNK         0.3096 
     66 H66        16.5252  -24.6320  -44.6748 H         1 UNK         0.1121 
     67 H67        17.9710  -26.6445  -45.3098 H         1 UNK         0.0849 
     68 H68        17.5038  -27.4026  -43.8081 H         1 UNK         0.0849 
     69 H69        15.3797  -29.2154  -43.9878 H         1 UNK         0.0865 
     70 H70        14.9794  -29.6063  -45.6424 H         1 UNK         0.0865 
     71 H71        16.7201  -31.1910  -43.6191 H         1 UNK         0.1346 
     72 H72        20.5673  -31.4485  -45.4821 H         1 UNK         0.1412 
     73 H73        17.7235  -28.5508  -46.8450 H         1 UNK         0.1426 
     74 H74        20.0105  -29.6756  -48.2438 H         1 UNK         0.0716 
     75 H75        21.2778  -29.7823  -47.0497 H         1 UNK         0.0716 
     76 H76        22.4816  -26.5025  -47.5500 H         1 UNK         0.0695 
     77 H77        22.7172  -28.0387  -46.7932 H         1 UNK         0.0695 
     78 H78        23.2572  -25.9167  -45.4383 H         1 UNK         0.0983 
     79 H79        20.4532  -25.3851  -45.7499 H         1 UNK         0.3095 
     80 H80        20.2828  -22.8810  -43.2181 H         1 UNK         0.0454 
     81 H81        21.4107  -21.6890  -45.0919 H         1 UNK         0.0851 
     82 H82        19.6773  -21.4204  -45.1259 H         1 UNK         0.0851 
     83 H83        20.4198  -22.5466  -46.2627 H         1 UNK         0.0851 
     84 H84        18.4877  -23.7551  -45.2976 H         1 UNK         0.2976 
     85 H85        20.4060  -27.8713  -44.5287 H         1 UNK         0.3116 
     86 H86        20.0033  -29.4108  -42.9804 H         1 UNK         0.0646 
     87 H87        21.7439  -27.5990  -41.2389 H         1 UNK         0.0847 
     88 H88        20.0205  -27.4188  -41.5389 H         1 UNK         0.0847 
     89 H89        20.6064  -28.8029  -40.6359 H         1 UNK         0.0847 
     90 H90        22.2707  -30.0179  -44.6801 H         1 UNK         0.3040 
     91 H91        23.9328  -31.4508  -45.0498 H         1 UNK         0.1015 
     92 H92        23.9983  -33.6020  -43.7854 H         1 UNK         0.0786 
     93 H93        22.3622  -33.1826  -44.2520 H         1 UNK         0.0786 
     94 H94        22.8881  -32.9517  -42.5885 H         1 UNK         0.0786 
     95 H95        24.5318  -29.0795  -43.6848 H         1 UNK         0.3172 
     96 H96        26.1829  -27.9408  -42.7961 H         1 UNK         0.0595 
     97 H97        27.8500  -30.4892  -42.4607 H         1 UNK         0.0839 
     98 H98        28.4202  -28.8338  -42.3674 H         1 UNK         0.0839 
     99 H99        27.8441  -29.4692  -43.8997 H         1 UNK         0.0839 
    100 H100       24.0222  -28.5262  -41.4137 H         1 UNK         0.2998 
    101 H101       22.9878  -28.5228  -39.4504 H         1 UNK         0.0822 
    102 H102       24.0834  -27.4430  -37.5190 H         1 UNK         0.0787 
    103 H103       24.4822  -26.5732  -38.9909 H         1 UNK         0.0787 
    104 H104       25.6678  -27.6484  -38.2507 H         1 UNK         0.0787 
    105 H105       23.4943  -30.9849  -40.2687 H         1 UNK         0.3055 
    106 H106       24.4171  -32.5469  -37.8717 H         1 UNK         0.1106 
    107 H107       25.8405  -32.8626  -39.9052 H         1 UNK         0.0828 
    108 H108       24.9984  -34.3372  -39.4518 H         1 UNK         0.0828 
    109 H109       24.4265  -33.3867  -40.8139 H         1 UNK         0.0828 
    110 H110       21.7983  -32.1648  -40.3218 H         1 UNK         0.2931 
    111 H111       20.3803  -34.4806  -39.2150 H         1 UNK         0.0412 
    112 H112       17.6105  -32.9135  -37.5507 H         1 UNK         0.3472 
    113 H113       17.9853  -34.2624  -38.5901 H         1 UNK         0.3472 
    114 H114       20.3365  -34.1607  -41.6391 H         1 UNK         0.0970 
    115 H115       18.7464  -34.2212  -40.9430 H         1 UNK         0.0970 
    116 H116       19.9548  -33.0848  -43.8603 H         1 UNK         0.0612 
    117 H117       18.2485  -33.3654  -43.5907 H         1 UNK         0.0612 
@<TRIPOS>BOND
     1    1    2 1    
     2    1   62 1    
     3    1   63 1    
     4    1   64 1    
     5    2    3 2    
     6    2    4 am   BACKBONE|DICT|INTERRES
     7    4    5 1    
     8    4   65 1    
     9    5    6 1    
    10    5   25 1    
    11    5   66 1    
    12    6    7 1    
    13    6   67 1    
    14    6   68 1    
    15    7    8 1    
    16    8    9 1    
    17    8   69 1    
    18    8   70 1    
    19    9   10 ar   
    20    9   14 ar   
    21   10   11 ar   
    22   10   71 1    
    23   11   12 ar   
    24   11   61 1    
    25   12   13 ar   
    26   12   72 1    
    27   13   14 ar   
    28   13   15 1    
    29   14   73 1    
    30   15   16 1    
    31   15   74 1    
    32   15   75 1    
    33   16   17 1    
    34   17   18 1    
    35   17   76 1    
    36   17   77 1    
    37   18   19 1    
    38   18   27 1    
    39   18   78 1    
    40   19   20 am   BACKBONE|DICT|INTERRES
    41   19   79 1    
    42   20   21 2    
    43   20   22 1    
    44   22   23 1    
    45   22   24 1    
    46   22   80 1    
    47   23   81 1    
    48   23   82 1    
    49   23   83 1    
    50   24   25 am   BACKBONE|DICT|INTERRES
    51   24   84 1    
    52   25   26 2    
    53   27   28 2    
    54   27   29 am   BACKBONE|DICT|INTERRES
    55   29   30 1    
    56   29   85 1    
    57   30   31 1    
    58   30   32 1    
    59   30   86 1    
    60   31   87 1    
    61   31   88 1    
    62   31   89 1    
    63   32   33 2    
    64   32   34 am   BACKBONE|DICT|INTERRES
    65   34   35 1    
    66   34   90 1    
    67   35   36 1    
    68   35   37 1    
    69   35   91 1    
    70   36   92 1    
    71   36   93 1    
    72   36   94 1    
    73   37   38 2    
    74   37   39 am   BACKBONE|DICT|INTERRES
    75   39   40 1    
    76   39   95 1    
    77   40   41 1    
    78   40   42 1    
    79   40   96 1    
    80   41   97 1    
    81   41   98 1    
    82   41   99 1    
    83   42   43 2    
    84   42   44 am   BACKBONE|DICT|INTERRES
    85   44   45 1    
    86   44  100 1    
    87   45   46 1    
    88   45   47 1    
    89   45  101 1    
    90   46  102 1    
    91   46  103 1    
    92   46  104 1    
    93   47   48 2    
    94   47   49 am   BACKBONE|DICT|INTERRES
    95   49   50 1    
    96   49  105 1    
    97   50   51 1    
    98   50   52 1    
    99   50  106 1    
   100   51  107 1    
   101   51  108 1    
   102   51  109 1    
   103   52   53 2    
   104   52   54 am   BACKBONE|DICT|INTERRES
   105   54   55 1    
   106   54  110 1    
   107   55   56 1    
   108   55   59 1    
   109   55  111 1    
   110   56   57 am   BACKBONE|DICT|INTERRES
   111   56   58 2    
   112   57  112 1    
   113   57  113 1    
   114   59   60 1    
   115   59  114 1    
   116   59  115 1    
   117   60   61 1    
   118   61  116 1    
   119   61  117 1    
@<TRIPOS>SUBSTRUCTURE
     1 UNK         1 GROUP             0       ****    0 ROOT    
