@<TRIPOS>MOLECULE
3R8
117   119    1
SMALL
USER_CHARGES


@<TRIPOS>ATOM
      1 CA         13.0783  -24.6588  -43.5044 C.3       0 UNK        -0.2013 
      2 C          14.1915  -25.2283  -44.3710 C.2       0 UNK         0.4866 
      3 O          14.4885  -24.6718  -45.4283 O.2       0 UNK        -0.5176 
      4 N          14.8040  -26.3365  -43.9340 N.am      1 UNK        -0.4884 
      5 CA         15.9029  -27.0196  -44.6282 C.3       1 UNK         0.0853 
      6 C6         16.2160  -28.3950  -43.9883 C.3       10 UNK        -0.0849 
      7 S7         15.0275  -29.6859  -44.4783 S.3       10 UNK        -0.2776 
      8 C8         15.7566  -30.2905  -46.0404 C.3       10 UNK         0.0316 
      9 C9         17.1947  -30.7723  -45.8824 C.ar      10 UNK        -0.0863 
     10 C10        17.4725  -31.9499  -45.1818 C.ar      10 UNK        -0.1009 
     11 C11        18.7897  -32.3975  -45.0421 C.ar      10 UNK        -0.0712 
     12 C12        19.8337  -31.6546  -45.6029 C.ar      10 UNK        -0.0894 
     13 C13        19.5705  -30.4769  -46.3086 C.ar      10 UNK        -0.0745 
     14 C14        18.2478  -30.0437  -46.4479 C.ar      10 UNK        -0.0972 
     15 C15        20.7089  -29.7042  -46.9648 C.3       10 UNK         0.0209 
     16 S16        20.8875  -28.0114  -46.3174 S.3       10 UNK        -0.2568 
     17 C17        21.5619  -28.3189  -44.6519 C.3       10 UNK        -0.0983 
     18 CA         22.0552  -27.0089  -43.9684 C.3       3 UNK         0.0876 
     19 N          21.0033  -25.9805  -43.8540 N.am      3 UNK        -0.4424 
     20 C          19.8719  -26.0790  -43.1409 C.2       2 UNK         0.4918 
     21 O          19.6199  -27.0227  -42.3911 O.2       2 UNK        -0.4875 
     22 CA         18.8357  -24.9402  -43.2553 C.3       2 UNK         0.0481 
     23 CB         19.2226  -23.7972  -44.2224 C.3       2 UNK        -0.1831 
     24 N          17.5178  -25.5024  -43.5720 N.am      2 UNK        -0.4498 
     25 C          17.1950  -26.1841  -44.6831 C.2       1 UNK         0.5027 
     26 O          17.8799  -26.2133  -45.7056 O.2       1 UNK        -0.4969 
     27 C          22.7982  -27.2917  -42.6393 C.2       3 UNK         0.5005 
     28 O          23.4805  -28.3115  -42.5322 O.2       3 UNK        -0.5279 
     29 N          22.6731  -26.3838  -41.6584 N.am      4 UNK        -0.4463 
     30 CA         23.2665  -26.4766  -40.3232 C.3       4 UNK         0.0283 
     31 CB         22.7931  -25.2828  -39.4787 C.3       4 UNK        -0.1875 
     32 C          24.8015  -26.5320  -40.3623 C.2       4 UNK         0.4949 
     33 O          25.4157  -25.9351  -41.2496 O.2       4 UNK        -0.5039 
     34 N          25.3855  -27.2658  -39.4066 N.am      5 UNK        -0.4663 
     35 CA         26.8128  -27.5843  -39.2348 C.3       5 UNK         0.0242 
     36 CB         27.6782  -26.3159  -39.0953 C.3       5 UNK        -0.1982 
     37 C          27.3769  -28.5363  -40.3065 C.2       5 UNK         0.5017 
     38 O          28.1673  -29.4157  -39.9625 O.2       5 UNK        -0.5012 
     39 N          26.9464  -28.3786  -41.5654 N.am      6 UNK        -0.4439 
     40 CA         27.2087  -29.3060  -42.6678 C.3       6 UNK         0.0297 
     41 CB         26.8068  -28.6537  -44.0004 C.3       6 UNK        -0.2006 
     42 C          26.4835  -30.6495  -42.4733 C.2       6 UNK         0.4892 
     43 O          27.0630  -31.6961  -42.7668 O.2       6 UNK        -0.5089 
     44 N          25.2515  -30.5958  -41.9543 N.am      7 UNK        -0.4243 
     45 CA         24.4457  -31.7406  -41.5501 C.3       7 UNK         0.0196 
     46 CB         23.5173  -32.1411  -42.7094 C.3       7 UNK        -0.2007 
     47 C          23.6363  -31.3609  -40.3038 C.2       7 UNK         0.5020 
     48 O          23.4129  -30.1762  -40.0451 O.2       7 UNK        -0.5147 
     49 N          23.1770  -32.3753  -39.5607 N.am      8 UNK        -0.4734 
     50 CA         22.2973  -32.2002  -38.3970 C.3       8 UNK         0.0238 
     51 CB         22.2853  -33.4951  -37.5683 C.3       8 UNK        -0.1912 
     52 C          20.8629  -31.7952  -38.7858 C.2       8 UNK         0.5038 
     53 O          20.1808  -31.1436  -37.9943 O.2       8 UNK        -0.5046 
     54 N          20.4420  -32.1926  -39.9918 N.am      9 UNK        -0.4200 
     55 CA         19.1541  -31.8604  -40.6155 C.3       9 UNK         0.0839 
     56 C          19.0664  -30.4297  -41.2209 C.2       9 UNK         0.5513 
     57 N          20.1377  -29.6473  -41.2666 N.am      9 UNK        -0.7519 
     58 O          17.9861  -30.0114  -41.6249 O.2       9 UNK        -0.4960 
     59 C59        18.7090  -32.9622  -41.6177 C.3       10 UNK        -0.0876 
     60 S60        20.0185  -33.4672  -42.7890 S.3       10 UNK        -0.2414 
     61 C61        19.0869  -33.7095  -44.3312 C.3       10 UNK         0.0169 
     62 H62        12.9166  -25.2519  -42.6045 H         1 UNK         0.0903 
     63 H63        13.3230  -23.6414  -43.2003 H         1 UNK         0.0903 
     64 H64        12.1438  -24.6315  -44.0643 H         1 UNK         0.0903 
     65 H65        14.4960  -26.7658  -43.0726 H         1 UNK         0.3096 
     66 H66        15.5960  -27.1745  -45.6652 H         1 UNK         0.1121 
     67 H67        16.2074  -28.3181  -42.8996 H         1 UNK         0.0849 
     68 H68        17.2245  -28.7382  -44.2256 H         1 UNK         0.0849 
     69 H69        15.1449  -31.1104  -46.4195 H         1 UNK         0.0865 
     70 H70        15.6961  -29.4996  -46.7896 H         1 UNK         0.0865 
     71 H71        16.6595  -32.5184  -44.7511 H         1 UNK         0.1346 
     72 H72        20.8512  -32.0063  -45.4994 H         1 UNK         0.1412 
     73 H73        18.0438  -29.1325  -46.9943 H         1 UNK         0.1426 
     74 H74        20.5172  -29.6463  -48.0371 H         1 UNK         0.0716 
     75 H75        21.6577  -30.2315  -46.8541 H         1 UNK         0.0716 
     76 H76        22.3811  -29.0330  -44.7546 H         1 UNK         0.0695 
     77 H77        20.7987  -28.8140  -44.0489 H         1 UNK         0.0695 
     78 H78        22.8171  -26.5767  -44.6190 H         1 UNK         0.0983 
     79 H79        21.1219  -25.1728  -44.4480 H         1 UNK         0.3095 
     80 H80        18.7489  -24.5073  -42.2578 H         1 UNK         0.0454 
     81 H81        19.3920  -24.1474  -45.2410 H         1 UNK         0.0851 
     82 H82        20.1298  -23.2910  -43.8904 H         1 UNK         0.0851 
     83 H83        18.4379  -23.0419  -44.2641 H         1 UNK         0.0851 
     84 H84        16.8749  -25.5597  -42.7949 H         1 UNK         0.2976 
     85 H85        22.1206  -25.5626  -41.8508 H         1 UNK         0.3116 
     86 H86        22.8956  -27.3974  -39.8677 H         1 UNK         0.0646 
     87 H87        21.7063  -25.2606  -39.3947 H         1 UNK         0.0847 
     88 H88        23.1186  -24.3330  -39.9052 H         1 UNK         0.0847 
     89 H89        23.1927  -25.3374  -38.4652 H         1 UNK         0.0847 
     90 H90        24.7710  -27.7449  -38.7611 H         1 UNK         0.3040 
     91 H91        26.8762  -28.1227  -38.2873 H         1 UNK         0.1015 
     92 H92        27.7192  -25.7407  -40.0205 H         1 UNK         0.0786 
     93 H93        28.7050  -26.5763  -38.8349 H         1 UNK         0.0786 
     94 H94        27.3006  -25.6621  -38.3092 H         1 UNK         0.0786 
     95 H95        26.3157  -27.6023  -41.7445 H         1 UNK         0.3172 
     96 H96        28.2822  -29.5042  -42.6954 H         1 UNK         0.0595 
     97 H97        25.7428  -28.4172  -44.0319 H         1 UNK         0.0839 
     98 H98        27.0166  -29.3202  -44.8381 H         1 UNK         0.0839 
     99 H99        27.3607  -27.7310  -44.1739 H         1 UNK         0.0839 
    100 H100       24.8161  -29.6939  -41.7749 H         1 UNK         0.2998 
    101 H101       25.0989  -32.5777  -41.2942 H         1 UNK         0.0822 
    102 H102       24.0829  -32.3537  -43.6166 H         1 UNK         0.0787 
    103 H103       22.9538  -33.0412  -42.4647 H         1 UNK         0.0787 
    104 H104       22.7990  -31.3524  -42.9411 H         1 UNK         0.0787 
    105 H105       23.4076  -33.3237  -39.8232 H         1 UNK         0.3055 
    106 H106       22.7030  -31.3987  -37.7749 H         1 UNK         0.1106 
    107 H107       21.8959  -34.3389  -38.1394 H         1 UNK         0.0828 
    108 H108       21.6578  -33.3848  -36.6826 H         1 UNK         0.0828 
    109 H109       23.2860  -33.7550  -37.2227 H         1 UNK         0.0828 
    110 H110       21.0785  -32.7131  -40.5765 H         1 UNK         0.2931 
    111 H111       18.4108  -31.8627  -39.8158 H         1 UNK         0.0412 
    112 H112       21.0331  -29.9533  -40.9182 H         1 UNK         0.3472 
    113 H113       20.0264  -28.7139  -41.6519 H         1 UNK         0.3472 
    114 H114       17.8156  -32.6538  -42.1644 H         1 UNK         0.0970 
    115 H115       18.4129  -33.8525  -41.0612 H         1 UNK         0.0970 
    116 H116       19.6770  -34.3418  -44.9959 H         1 UNK         0.0612 
    117 H117       18.1704  -34.2625  -44.1196 H         1 UNK         0.0612 
@<TRIPOS>BOND
     1    1    2 1    
     2    1   62 1    
     3    1   63 1    
     4    1   64 1    
     5    2    3 2    
     6    2    4 am   BACKBONE|DICT|INTERRES
     7    4    5 1    
     8    4   65 1    
     9    5    6 1    
    10    5   25 1    
    11    5   66 1    
    12    6    7 1    
    13    6   67 1    
    14    6   68 1    
    15    7    8 1    
    16    8    9 1    
    17    8   69 1    
    18    8   70 1    
    19    9   10 ar   
    20    9   14 ar   
    21   10   11 ar   
    22   10   71 1    
    23   11   12 ar   
    24   11   61 1    
    25   12   13 ar   
    26   12   72 1    
    27   13   14 ar   
    28   13   15 1    
    29   14   73 1    
    30   15   16 1    
    31   15   74 1    
    32   15   75 1    
    33   16   17 1    
    34   17   18 1    
    35   17   76 1    
    36   17   77 1    
    37   18   19 1    
    38   18   27 1    
    39   18   78 1    
    40   19   20 am   BACKBONE|DICT|INTERRES
    41   19   79 1    
    42   20   21 2    
    43   20   22 1    
    44   22   23 1    
    45   22   24 1    
    46   22   80 1    
    47   23   81 1    
    48   23   82 1    
    49   23   83 1    
    50   24   25 am   BACKBONE|DICT|INTERRES
    51   24   84 1    
    52   25   26 2    
    53   27   28 2    
    54   27   29 am   BACKBONE|DICT|INTERRES
    55   29   30 1    
    56   29   85 1    
    57   30   31 1    
    58   30   32 1    
    59   30   86 1    
    60   31   87 1    
    61   31   88 1    
    62   31   89 1    
    63   32   33 2    
    64   32   34 am   BACKBONE|DICT|INTERRES
    65   34   35 1    
    66   34   90 1    
    67   35   36 1    
    68   35   37 1    
    69   35   91 1    
    70   36   92 1    
    71   36   93 1    
    72   36   94 1    
    73   37   38 2    
    74   37   39 am   BACKBONE|DICT|INTERRES
    75   39   40 1    
    76   39   95 1    
    77   40   41 1    
    78   40   42 1    
    79   40   96 1    
    80   41   97 1    
    81   41   98 1    
    82   41   99 1    
    83   42   43 2    
    84   42   44 am   BACKBONE|DICT|INTERRES
    85   44   45 1    
    86   44  100 1    
    87   45   46 1    
    88   45   47 1    
    89   45  101 1    
    90   46  102 1    
    91   46  103 1    
    92   46  104 1    
    93   47   48 2    
    94   47   49 am   BACKBONE|DICT|INTERRES
    95   49   50 1    
    96   49  105 1    
    97   50   51 1    
    98   50   52 1    
    99   50  106 1    
   100   51  107 1    
   101   51  108 1    
   102   51  109 1    
   103   52   53 2    
   104   52   54 am   BACKBONE|DICT|INTERRES
   105   54   55 1    
   106   54  110 1    
   107   55   56 1    
   108   55   59 1    
   109   55  111 1    
   110   56   57 am   BACKBONE|DICT|INTERRES
   111   56   58 2    
   112   57  112 1    
   113   57  113 1    
   114   59   60 1    
   115   59  114 1    
   116   59  115 1    
   117   60   61 1    
   118   61  116 1    
   119   61  117 1    
@<TRIPOS>SUBSTRUCTURE
     1 UNK         1 GROUP             0       ****    0 ROOT    
