@<TRIPOS>MOLECULE
3R8
117   119    1
SMALL
USER_CHARGES


@<TRIPOS>ATOM
      1 CA         15.4196  -21.8356  -43.4888 C.3       0 UNK        -0.2013 
      2 C          16.0020  -23.0466  -44.2021 C.2       0 UNK         0.4866 
      3 O          15.7716  -23.2217  -45.3992 O.2       0 UNK        -0.5176 
      4 N          16.7470  -23.8889  -43.4755 N.am      1 UNK        -0.4884 
      5 CA         17.4247  -25.0774  -44.0016 C.3       1 UNK         0.0853 
      6 C6         17.9280  -25.9957  -42.8602 C.3       10 UNK        -0.0849 
      7 S7         16.5589  -26.8290  -41.9865 S.3       10 UNK        -0.2776 
      8 C8         16.1160  -28.1814  -43.1318 C.3       10 UNK         0.0316 
      9 C9         17.2063  -29.2387  -43.2315 C.ar      10 UNK        -0.0863 
     10 C10        17.2211  -30.3196  -42.3448 C.ar      10 UNK        -0.1009 
     11 C11        18.2237  -31.2898  -42.4300 C.ar      10 UNK        -0.0712 
     12 C12        19.2266  -31.1636  -43.3962 C.ar      10 UNK        -0.0894 
     13 C13        19.2334  -30.0752  -44.2728 C.ar      10 UNK        -0.0745 
     14 C14        18.2018  -29.1359  -44.2082 C.ar      10 UNK        -0.0972 
     15 C15        20.3912  -29.8734  -45.2365 C.3       10 UNK         0.0209 
     16 S16        21.8012  -29.1838  -44.3218 S.3       10 UNK        -0.2568 
     17 C17        22.7395  -28.2660  -45.5921 C.3       10 UNK        -0.0983 
     18 CA         22.5734  -26.7198  -45.5340 C.3       3 UNK         0.0876 
     19 N          21.2667  -26.3103  -46.0614 N.am      3 UNK        -0.4424 
     20 C          21.0555  -25.2328  -46.8280 C.2       2 UNK         0.4918 
     21 O          21.9477  -24.4803  -47.2189 O.2       2 UNK        -0.4875 
     22 CA         19.5938  -24.9250  -47.1995 C.3       2 UNK         0.0481 
     23 CB         19.2066  -25.6612  -48.4919 C.3       2 UNK        -0.1831 
     24 N          18.6185  -25.2402  -46.1467 N.am      2 UNK        -0.4498 
     25 C          18.5874  -24.6753  -44.9298 C.2       1 UNK         0.5027 
     26 O          19.4450  -23.8927  -44.5163 O.2       1 UNK        -0.4969 
     27 C          22.8366  -26.1397  -44.1209 C.2       3 UNK         0.5005 
     28 O          23.8322  -26.5104  -43.4976 O.2       3 UNK        -0.5279 
     29 N          21.9100  -25.3132  -43.6021 N.am      4 UNK        -0.4463 
     30 CA         21.8354  -24.7902  -42.2289 C.3       4 UNK         0.0283 
     31 CB         23.0390  -23.8745  -41.9208 C.3       4 UNK        -0.1875 
     32 C          21.6395  -25.8774  -41.1490 C.2       4 UNK         0.4949 
     33 O          21.8319  -25.5887  -39.9677 O.2       4 UNK        -0.5039 
     34 N          21.2738  -27.1011  -41.5693 N.am      5 UNK        -0.4663 
     35 CA         21.1798  -28.3329  -40.7724 C.3       5 UNK         0.0242 
     36 CB         20.0042  -28.2556  -39.7769 C.3       5 UNK        -0.1982 
     37 C          22.5212  -28.7108  -40.1069 C.2       5 UNK         0.5017 
     38 O          22.5303  -29.2542  -39.0003 O.2       5 UNK        -0.5012 
     39 N          23.6376  -28.3981  -40.7843 N.am      6 UNK        -0.4439 
     40 CA         25.0114  -28.5319  -40.2926 C.3       6 UNK         0.0297 
     41 CB         25.9237  -27.6130  -41.1255 C.3       6 UNK        -0.2006 
     42 C          25.5043  -29.9917  -40.2750 C.2       6 UNK         0.4892 
     43 O          26.4080  -30.3481  -41.0326 O.2       6 UNK        -0.5089 
     44 N          24.8848  -30.8077  -39.4109 N.am      7 UNK        -0.4243 
     45 CA         25.1730  -32.2226  -39.1297 C.3       7 UNK         0.0196 
     46 CB         26.5920  -32.3893  -38.5450 C.3       7 UNK        -0.2007 
     47 C          24.9118  -33.1845  -40.3077 C.2       7 UNK         0.5020 
     48 O          25.3299  -34.3413  -40.2481 O.2       7 UNK        -0.5147 
     49 N          24.2038  -32.7151  -41.3435 N.am      8 UNK        -0.4734 
     50 CA         23.8026  -33.5092  -42.5091 C.3       8 UNK         0.0238 
     51 CB         23.4560  -32.5531  -43.6622 C.3       8 UNK        -0.1912 
     52 C          22.6143  -34.4446  -42.2207 C.2       8 UNK         0.5038 
     53 O          22.4078  -35.4031  -42.9661 O.2       8 UNK        -0.5046 
     54 N          21.8425  -34.1277  -41.1745 N.am      9 UNK        -0.4200 
     55 CA         20.6307  -34.8393  -40.7525 C.3       9 UNK         0.0839 
     56 C          20.9254  -36.2620  -40.2075 C.2       9 UNK         0.5513 
     57 N          20.0408  -37.2175  -40.4579 N.am      9 UNK        -0.7519 
     58 O          21.9194  -36.4943  -39.5226 O.2       9 UNK        -0.4960 
     59 C59        19.8108  -34.0123  -39.7234 C.3       10 UNK        -0.0876 
     60 S60        19.5482  -32.2769  -40.2292 S.3       10 UNK        -0.2414 
     61 C61        18.2395  -32.4715  -41.4757 C.3       10 UNK         0.0169 
     62 H62        14.3320  -21.8476  -43.5560 H         1 UNK         0.0903 
     63 H63        15.6937  -21.8121  -42.4342 H         1 UNK         0.0903 
     64 H64        15.7798  -20.9179  -43.9531 H         1 UNK         0.0903 
     65 H65        16.9069  -23.6930  -42.4976 H         1 UNK         0.3096 
     66 H66        16.6972  -25.6284  -44.6006 H         1 UNK         0.1121 
     67 H67        18.6333  -26.7442  -43.2167 H         1 UNK         0.0849 
     68 H68        18.4888  -25.4128  -42.1271 H         1 UNK         0.0849 
     69 H69        15.8856  -27.7785  -44.1185 H         1 UNK         0.0865 
     70 H70        15.1920  -28.6430  -42.7802 H         1 UNK         0.0865 
     71 H71        16.4541  -30.4032  -41.5869 H         1 UNK         0.1346 
     72 H72        20.0224  -31.8947  -43.4406 H         1 UNK         0.1412 
     73 H73        18.1953  -28.3018  -44.8950 H         1 UNK         0.1426 
     74 H74        20.1031  -29.2050  -46.0490 H         1 UNK         0.0716 
     75 H75        20.6785  -30.8213  -45.6938 H         1 UNK         0.0716 
     76 H76        22.4791  -28.6400  -46.5835 H         1 UNK         0.0695 
     77 H77        23.7922  -28.5207  -45.4566 H         1 UNK         0.0695 
     78 H78        23.3546  -26.2990  -46.1711 H         1 UNK         0.0983 
     79 H79        20.4778  -26.8787  -45.7951 H         1 UNK         0.3095 
     80 H80        19.5271  -23.8520  -47.3910 H         1 UNK         0.0454 
     81 H81        19.9024  -25.4260  -49.2986 H         1 UNK         0.0851 
     82 H82        18.2126  -25.3709  -48.8326 H         1 UNK         0.0851 
     83 H83        19.2150  -26.7441  -48.3613 H         1 UNK         0.0851 
     84 H84        17.8668  -25.8603  -46.4131 H         1 UNK         0.2976 
     85 H85        21.1454  -25.0188  -44.2000 H         1 UNK         0.3116 
     86 H86        20.9376  -24.1717  -42.1930 H         1 UNK         0.0646 
     87 H87        23.9704  -24.4368  -41.8504 H         1 UNK         0.0847 
     88 H88        23.1640  -23.1111  -42.6884 H         1 UNK         0.0847 
     89 H89        22.9035  -23.3560  -40.9709 H         1 UNK         0.0847 
     90 H90        21.1646  -27.2311  -42.5650 H         1 UNK         0.3040 
     91 H91        20.9536  -29.1416  -41.4693 H         1 UNK         0.1015 
     92 H92        19.8579  -29.2110  -39.2715 H         1 UNK         0.0786 
     93 H93        19.0709  -28.0178  -40.2879 H         1 UNK         0.0786 
     94 H94        20.1708  -27.5014  -39.0075 H         1 UNK         0.0786 
     95 H95        23.5353  -27.9541  -41.6897 H         1 UNK         0.3172 
     96 H96        25.0399  -28.1712  -39.2622 H         1 UNK         0.0595 
     97 H97        25.9314  -27.8988  -42.1784 H         1 UNK         0.0839 
     98 H98        26.9535  -27.6533  -40.7679 H         1 UNK         0.0839 
     99 H99        25.6008  -26.5733  -41.0662 H         1 UNK         0.0839 
    100 H100       24.0980  -30.4079  -38.9044 H         1 UNK         0.2998 
    101 H101       24.4657  -32.5166  -38.3527 H         1 UNK         0.0822 
    102 H102       26.7536  -33.4077  -38.1895 H         1 UNK         0.0787 
    103 H103       26.7526  -31.7242  -37.6965 H         1 UNK         0.0787 
    104 H104       27.3633  -32.1800  -39.2868 H         1 UNK         0.0787 
    105 H105       23.9242  -31.7453  -41.3279 H         1 UNK         0.3055 
    106 H106       24.6453  -34.1330  -42.8164 H         1 UNK         0.1106 
    107 H107       24.2962  -31.9041  -43.9104 H         1 UNK         0.0828 
    108 H108       23.1973  -33.1067  -44.5658 H         1 UNK         0.0828 
    109 H109       22.6040  -31.9195  -43.4149 H         1 UNK         0.0828 
    110 H110       22.0989  -33.3275  -40.6180 H         1 UNK         0.2931 
    111 H111       20.0197  -34.9576  -41.6490 H         1 UNK         0.0412 
    112 H112       20.2056  -38.1448  -40.0974 H         1 UNK         0.3472 
    113 H113       19.2167  -37.0352  -41.0099 H         1 UNK         0.3472 
    114 H114       18.8400  -34.4781  -39.5434 H         1 UNK         0.0970 
    115 H115       20.3204  -33.9973  -38.7578 H         1 UNK         0.0970 
    116 H116       18.3958  -33.3836  -42.0517 H         1 UNK         0.0612 
    117 H117       17.2780  -32.5838  -40.9724 H         1 UNK         0.0612 
@<TRIPOS>BOND
     1    1    2 1    
     2    1   62 1    
     3    1   63 1    
     4    1   64 1    
     5    2    3 2    
     6    2    4 am   BACKBONE|DICT|INTERRES
     7    4    5 1    
     8    4   65 1    
     9    5    6 1    
    10    5   25 1    
    11    5   66 1    
    12    6    7 1    
    13    6   67 1    
    14    6   68 1    
    15    7    8 1    
    16    8    9 1    
    17    8   69 1    
    18    8   70 1    
    19    9   10 ar   
    20    9   14 ar   
    21   10   11 ar   
    22   10   71 1    
    23   11   12 ar   
    24   11   61 1    
    25   12   13 ar   
    26   12   72 1    
    27   13   14 ar   
    28   13   15 1    
    29   14   73 1    
    30   15   16 1    
    31   15   74 1    
    32   15   75 1    
    33   16   17 1    
    34   17   18 1    
    35   17   76 1    
    36   17   77 1    
    37   18   19 1    
    38   18   27 1    
    39   18   78 1    
    40   19   20 am   BACKBONE|DICT|INTERRES
    41   19   79 1    
    42   20   21 2    
    43   20   22 1    
    44   22   23 1    
    45   22   24 1    
    46   22   80 1    
    47   23   81 1    
    48   23   82 1    
    49   23   83 1    
    50   24   25 am   BACKBONE|DICT|INTERRES
    51   24   84 1    
    52   25   26 2    
    53   27   28 2    
    54   27   29 am   BACKBONE|DICT|INTERRES
    55   29   30 1    
    56   29   85 1    
    57   30   31 1    
    58   30   32 1    
    59   30   86 1    
    60   31   87 1    
    61   31   88 1    
    62   31   89 1    
    63   32   33 2    
    64   32   34 am   BACKBONE|DICT|INTERRES
    65   34   35 1    
    66   34   90 1    
    67   35   36 1    
    68   35   37 1    
    69   35   91 1    
    70   36   92 1    
    71   36   93 1    
    72   36   94 1    
    73   37   38 2    
    74   37   39 am   BACKBONE|DICT|INTERRES
    75   39   40 1    
    76   39   95 1    
    77   40   41 1    
    78   40   42 1    
    79   40   96 1    
    80   41   97 1    
    81   41   98 1    
    82   41   99 1    
    83   42   43 2    
    84   42   44 am   BACKBONE|DICT|INTERRES
    85   44   45 1    
    86   44  100 1    
    87   45   46 1    
    88   45   47 1    
    89   45  101 1    
    90   46  102 1    
    91   46  103 1    
    92   46  104 1    
    93   47   48 2    
    94   47   49 am   BACKBONE|DICT|INTERRES
    95   49   50 1    
    96   49  105 1    
    97   50   51 1    
    98   50   52 1    
    99   50  106 1    
   100   51  107 1    
   101   51  108 1    
   102   51  109 1    
   103   52   53 2    
   104   52   54 am   BACKBONE|DICT|INTERRES
   105   54   55 1    
   106   54  110 1    
   107   55   56 1    
   108   55   59 1    
   109   55  111 1    
   110   56   57 am   BACKBONE|DICT|INTERRES
   111   56   58 2    
   112   57  112 1    
   113   57  113 1    
   114   59   60 1    
   115   59  114 1    
   116   59  115 1    
   117   60   61 1    
   118   61  116 1    
   119   61  117 1    
@<TRIPOS>SUBSTRUCTURE
     1 UNK         1 GROUP             0       ****    0 ROOT    
