@<TRIPOS>MOLECULE
3R8
117   119    1
SMALL
USER_CHARGES


@<TRIPOS>ATOM
      1 CA         18.9194  -23.9187  -48.2733 C.3       0 UNK        -0.2013 
      2 C          18.9116  -25.4390  -48.3173 C.2       0 UNK         0.4866 
      3 O          19.1967  -26.0244  -49.3623 O.2       0 UNK        -0.5176 
      4 N          18.5910  -26.0803  -47.1876 N.am      1 UNK        -0.4884 
      5 CA         18.5789  -27.5357  -47.0207 C.3       1 UNK         0.0853 
      6 C6         17.6777  -28.0203  -45.8513 C.3       10 UNK        -0.0849 
      7 S7         16.0606  -27.1704  -45.7786 S.3       10 UNK        -0.2776 
      8 C8         15.1048  -28.2448  -44.6599 C.3       10 UNK         0.0316 
      9 C9         15.8238  -28.5181  -43.3449 C.ar      10 UNK        -0.0863 
     10 C10        16.2456  -29.8149  -43.0425 C.ar      10 UNK        -0.1009 
     11 C11        16.9081  -30.0838  -41.8432 C.ar      10 UNK        -0.0712 
     12 C12        17.1167  -29.0521  -40.9243 C.ar      10 UNK        -0.0894 
     13 C13        16.7477  -27.7381  -41.2356 C.ar      10 UNK        -0.0745 
     14 C14        16.0844  -27.4818  -42.4412 C.ar      10 UNK        -0.0972 
     15 C15        17.0836  -26.5906  -40.2872 C.3       10 UNK         0.0209 
     16 S16        18.8317  -26.5904  -39.7485 S.3       10 UNK        -0.2568 
     17 C17        19.7473  -26.2468  -41.2974 C.3       10 UNK        -0.0983 
     18 CA         20.1066  -27.4917  -42.1720 C.3       3 UNK         0.0876 
     19 N          20.7842  -27.1566  -43.4231 N.am      3 UNK        -0.4424 
     20 C          20.3874  -26.3099  -44.3793 C.2       2 UNK         0.4918 
     21 O          19.3881  -25.5953  -44.3173 O.2       2 UNK        -0.4875 
     22 CA         21.2175  -26.3077  -45.6716 C.3       2 UNK         0.0481 
     23 CB         22.7082  -26.0461  -45.3926 C.3       2 UNK        -0.1831 
     24 N          21.0727  -27.5575  -46.4324 N.am      2 UNK        -0.4498 
     25 C          19.9918  -28.1779  -46.9542 C.2       1 UNK         0.5027 
     26 O          20.1155  -29.3026  -47.4357 O.2       1 UNK        -0.4969 
     27 C          21.0313  -28.4878  -41.4408 C.2       3 UNK         0.5005 
     28 O          22.2216  -28.5856  -41.7632 O.2       3 UNK        -0.5279 
     29 N          20.4872  -29.1768  -40.4303 N.am      4 UNK        -0.4463 
     30 CA         21.2153  -30.0130  -39.4712 C.3       4 UNK         0.0283 
     31 CB         20.2143  -30.7022  -38.5312 C.3       4 UNK        -0.1875 
     32 C          22.2473  -29.2204  -38.6497 C.2       4 UNK         0.4949 
     33 O          23.2707  -29.7831  -38.2664 O.2       4 UNK        -0.5039 
     34 N          21.9999  -27.9162  -38.4545 N.am      5 UNK        -0.4663 
     35 CA         22.9361  -26.9577  -37.8573 C.3       5 UNK         0.0242 
     36 CB         22.2128  -25.6168  -37.6533 C.3       5 UNK        -0.1982 
     37 C          24.2226  -26.7548  -38.6831 C.2       5 UNK         0.5017 
     38 O          25.2515  -26.3949  -38.1113 O.2       5 UNK        -0.5012 
     39 N          24.1468  -27.0121  -39.9965 N.am      6 UNK        -0.4439 
     40 CA         25.2747  -27.0244  -40.9301 C.3       6 UNK         0.0297 
     41 CB         24.8452  -26.3026  -42.2192 C.3       6 UNK        -0.2006 
     42 C          25.7554  -28.4590  -41.2330 C.2       6 UNK         0.4892 
     43 O          26.6026  -28.6295  -42.1101 O.2       6 UNK        -0.5089 
     44 N          25.2032  -29.4585  -40.5243 N.am      7 UNK        -0.4243 
     45 CA         25.4433  -30.9012  -40.6503 C.3       7 UNK         0.0196 
     46 CB         26.9030  -31.2517  -40.2901 C.3       7 UNK        -0.2007 
     47 C          25.0048  -31.5022  -42.0009 C.2       7 UNK         0.5020 
     48 O          25.4788  -32.5808  -42.3610 O.2       7 UNK        -0.5147 
     49 N          24.0952  -30.8292  -42.7227 N.am      8 UNK        -0.4734 
     50 CA         23.6161  -31.2697  -44.0391 C.3       8 UNK         0.0238 
     51 CB         22.9169  -30.0999  -44.7482 C.3       8 UNK        -0.1912 
     52 C          22.6791  -32.4868  -43.9698 C.2       8 UNK         0.5038 
     53 O          22.6349  -33.2703  -44.9188 O.2       8 UNK        -0.5046 
     54 N          21.9504  -32.6115  -42.8553 N.am      9 UNK        -0.4200 
     55 CA         20.9588  -33.6693  -42.6013 C.3       9 UNK         0.0839 
     56 C          21.5628  -34.9693  -41.9954 C.2       9 UNK         0.5513 
     57 N          22.8673  -35.0549  -41.7606 N.am      9 UNK        -0.7519 
     58 O          20.8336  -35.9244  -41.7412 O.2       9 UNK        -0.4960 
     59 C59        19.7654  -33.1409  -41.7595 C.3       10 UNK        -0.0876 
     60 S60        19.0357  -31.6409  -42.4957 S.3       10 UNK        -0.2414 
     61 C61        17.4730  -31.4697  -41.5856 C.3       10 UNK         0.0169 
     62 H62        18.6622  -23.5390  -47.2844 H         1 UNK         0.0903 
     63 H63        19.9075  -23.5409  -48.5346 H         1 UNK         0.0903 
     64 H64        18.2007  -23.5187  -48.9880 H         1 UNK         0.0903 
     65 H65        18.3867  -25.5568  -46.3450 H         1 UNK         0.3096 
     66 H66        18.1223  -27.9342  -47.9301 H         1 UNK         0.1121 
     67 H67        17.4998  -29.0935  -45.9450 H         1 UNK         0.0849 
     68 H68        18.1651  -27.8888  -44.8864 H         1 UNK         0.0849 
     69 H69        14.1444  -27.7718  -44.4502 H         1 UNK         0.0865 
     70 H70        14.8764  -29.1770  -45.1791 H         1 UNK         0.0865 
     71 H71        16.0863  -30.6153  -43.7524 H         1 UNK         0.1346 
     72 H72        17.6123  -29.2623  -39.9874 H         1 UNK         0.1412 
     73 H73        15.7854  -26.4725  -42.6906 H         1 UNK         0.1426 
     74 H74        16.4459  -26.6698  -39.4059 H         1 UNK         0.0716 
     75 H75        16.8579  -25.6265  -40.7457 H         1 UNK         0.0716 
     76 H76        19.1384  -25.5411  -41.8604 H         1 UNK         0.0695 
     77 H77        20.6568  -25.7027  -41.0362 H         1 UNK         0.0695 
     78 H78        19.1960  -28.0222  -42.4497 H         1 UNK         0.0983 
     79 H79        21.6406  -27.6820  -43.5433 H         1 UNK         0.3095 
     80 H80        20.8874  -25.4713  -46.2846 H         1 UNK         0.0454 
     81 H81        22.8418  -25.1722  -44.7529 H         1 UNK         0.0851 
     82 H82        23.2499  -25.8484  -46.3177 H         1 UNK         0.0851 
     83 H83        23.1946  -26.8882  -44.9033 H         1 UNK         0.0851 
     84 H84        21.9350  -28.0718  -46.5240 H         1 UNK         0.2976 
     85 H85        19.5125  -29.0086  -40.2286 H         1 UNK         0.3116 
     86 H86        21.7523  -30.7793  -40.0335 H         1 UNK         0.0646 
     87 H87        19.5003  -31.3126  -39.0808 H         1 UNK         0.0847 
     88 H88        20.7292  -31.3626  -37.8319 H         1 UNK         0.0847 
     89 H89        19.6505  -29.9796  -37.9397 H         1 UNK         0.0847 
     90 H90        21.1208  -27.5424  -38.7853 H         1 UNK         0.3040 
     91 H91        23.2346  -27.3442  -36.8802 H         1 UNK         0.1015 
     92 H92        22.8718  -24.8846  -37.1844 H         1 UNK         0.0786 
     93 H93        21.3432  -25.7290  -37.0053 H         1 UNK         0.0786 
     94 H94        21.8734  -25.1922  -38.5991 H         1 UNK         0.0786 
     95 H95        23.2658  -27.3373  -40.3769 H         1 UNK         0.3172 
     96 H96        26.1224  -26.4837  -40.5047 H         1 UNK         0.0595 
     97 H97        24.0209  -26.8200  -42.7078 H         1 UNK         0.0839 
     98 H98        25.6669  -26.2468  -42.9344 H         1 UNK         0.0839 
     99 H99        24.5259  -25.2807  -42.0148 H         1 UNK         0.0839 
    100 H100       24.5305  -29.2117  -39.8077 H         1 UNK         0.2998 
    101 H101       24.8049  -31.3733  -39.9024 H         1 UNK         0.0822 
    102 H102       27.0422  -32.3314  -40.2221 H         1 UNK         0.0787 
    103 H103       27.1854  -30.8303  -39.3254 H         1 UNK         0.0787 
    104 H104       27.6053  -30.8816  -41.0375 H         1 UNK         0.0787 
    105 H105       23.7142  -29.9630  -42.3560 H         1 UNK         0.3055 
    106 H106       24.4834  -31.5600  -44.6369 H         1 UNK         0.1106 
    107 H107       22.0126  -29.7929  -44.2229 H         1 UNK         0.0828 
    108 H108       23.5793  -29.2390  -44.8302 H         1 UNK         0.0828 
    109 H109       22.6217  -30.3818  -45.7601 H         1 UNK         0.0828 
    110 H110       22.0595  -31.9164  -42.1337 H         1 UNK         0.2931 
    111 H111       20.5457  -33.9718  -43.5656 H         1 UNK         0.0412 
    112 H112       23.2435  -35.9058  -41.3724 H         1 UNK         0.3472 
    113 H113       23.4833  -34.2900  -41.9913 H         1 UNK         0.3472 
    114 H114       18.9867  -33.9020  -41.6801 H         1 UNK         0.0970 
    115 H115       20.0848  -32.9162  -40.7413 H         1 UNK         0.0970 
    116 H116       16.7696  -32.2363  -41.9139 H         1 UNK         0.0612 
    117 H117       17.6394  -31.6273  -40.5196 H         1 UNK         0.0612 
@<TRIPOS>BOND
     1    1    2 1    
     2    1   62 1    
     3    1   63 1    
     4    1   64 1    
     5    2    3 2    
     6    2    4 am   BACKBONE|DICT|INTERRES
     7    4    5 1    
     8    4   65 1    
     9    5    6 1    
    10    5   25 1    
    11    5   66 1    
    12    6    7 1    
    13    6   67 1    
    14    6   68 1    
    15    7    8 1    
    16    8    9 1    
    17    8   69 1    
    18    8   70 1    
    19    9   10 ar   
    20    9   14 ar   
    21   10   11 ar   
    22   10   71 1    
    23   11   12 ar   
    24   11   61 1    
    25   12   13 ar   
    26   12   72 1    
    27   13   14 ar   
    28   13   15 1    
    29   14   73 1    
    30   15   16 1    
    31   15   74 1    
    32   15   75 1    
    33   16   17 1    
    34   17   18 1    
    35   17   76 1    
    36   17   77 1    
    37   18   19 1    
    38   18   27 1    
    39   18   78 1    
    40   19   20 am   BACKBONE|DICT|INTERRES
    41   19   79 1    
    42   20   21 2    
    43   20   22 1    
    44   22   23 1    
    45   22   24 1    
    46   22   80 1    
    47   23   81 1    
    48   23   82 1    
    49   23   83 1    
    50   24   25 am   BACKBONE|DICT|INTERRES
    51   24   84 1    
    52   25   26 2    
    53   27   28 2    
    54   27   29 am   BACKBONE|DICT|INTERRES
    55   29   30 1    
    56   29   85 1    
    57   30   31 1    
    58   30   32 1    
    59   30   86 1    
    60   31   87 1    
    61   31   88 1    
    62   31   89 1    
    63   32   33 2    
    64   32   34 am   BACKBONE|DICT|INTERRES
    65   34   35 1    
    66   34   90 1    
    67   35   36 1    
    68   35   37 1    
    69   35   91 1    
    70   36   92 1    
    71   36   93 1    
    72   36   94 1    
    73   37   38 2    
    74   37   39 am   BACKBONE|DICT|INTERRES
    75   39   40 1    
    76   39   95 1    
    77   40   41 1    
    78   40   42 1    
    79   40   96 1    
    80   41   97 1    
    81   41   98 1    
    82   41   99 1    
    83   42   43 2    
    84   42   44 am   BACKBONE|DICT|INTERRES
    85   44   45 1    
    86   44  100 1    
    87   45   46 1    
    88   45   47 1    
    89   45  101 1    
    90   46  102 1    
    91   46  103 1    
    92   46  104 1    
    93   47   48 2    
    94   47   49 am   BACKBONE|DICT|INTERRES
    95   49   50 1    
    96   49  105 1    
    97   50   51 1    
    98   50   52 1    
    99   50  106 1    
   100   51  107 1    
   101   51  108 1    
   102   51  109 1    
   103   52   53 2    
   104   52   54 am   BACKBONE|DICT|INTERRES
   105   54   55 1    
   106   54  110 1    
   107   55   56 1    
   108   55   59 1    
   109   55  111 1    
   110   56   57 am   BACKBONE|DICT|INTERRES
   111   56   58 2    
   112   57  112 1    
   113   57  113 1    
   114   59   60 1    
   115   59  114 1    
   116   59  115 1    
   117   60   61 1    
   118   61  116 1    
   119   61  117 1    
@<TRIPOS>SUBSTRUCTURE
     1 UNK         1 GROUP             0       ****    0 ROOT    
