@<TRIPOS>MOLECULE
3R8
117   119    1
SMALL
USER_CHARGES


@<TRIPOS>ATOM
      1 CA         14.7097  -22.5948  -43.1036 C.3       0 UNK        -0.2013 
      2 C          15.7794  -23.0732  -44.0742 C.2       0 UNK         0.4866 
      3 O          16.4321  -22.2531  -44.7207 O.2       0 UNK        -0.5176 
      4 N          15.9580  -24.3946  -44.1889 N.am      1 UNK        -0.4884 
      5 CA         16.9848  -25.0422  -45.0090 C.3       1 UNK         0.0853 
      6 C6         16.6753  -26.5424  -45.2689 C.3       10 UNK        -0.0849 
      7 S7         16.0600  -27.4780  -43.8181 S.3       10 UNK        -0.2776 
      8 C8         15.8530  -29.1550  -44.5044 C.3       10 UNK         0.0316 
      9 C9         17.1610  -29.9338  -44.4958 C.ar      10 UNK        -0.0863 
     10 C10        17.4505  -30.8300  -43.4617 C.ar      10 UNK        -0.1009 
     11 C11        18.6562  -31.5389  -43.4534 C.ar      10 UNK        -0.0712 
     12 C12        19.5917  -31.3182  -44.4717 C.ar      10 UNK        -0.0894 
     13 C13        19.3131  -30.4268  -45.5140 C.ar      10 UNK        -0.0745 
     14 C14        18.0810  -29.7667  -45.5322 C.ar      10 UNK        -0.0972 
     15 C15        20.3169  -30.2194  -46.6449 C.3       10 UNK         0.0209 
     16 S16        20.4896  -28.4650  -47.1376 S.3       10 UNK        -0.2568 
     17 C17        22.1833  -28.0464  -46.6001 C.3       10 UNK        -0.0983 
     18 CA         22.2637  -27.2106  -45.2991 C.3       3 UNK         0.0876 
     19 N          21.4417  -25.9955  -45.3480 N.am      3 UNK        -0.4424 
     20 C          21.5747  -24.9543  -44.5141 C.2       2 UNK         0.4918 
     21 O          22.3958  -24.9152  -43.5972 O.2       2 UNK        -0.4875 
     22 CA         20.6188  -23.7681  -44.7209 C.3       2 UNK         0.0481 
     23 CB         21.2183  -22.7669  -45.7208 C.3       2 UNK        -0.1831 
     24 N          19.2759  -24.1592  -45.1640 N.am      2 UNK        -0.4498 
     25 C          18.3881  -24.8193  -44.4033 C.2       1 UNK         0.5027 
     26 O          18.6384  -25.2323  -43.2677 O.2       1 UNK        -0.4969 
     27 C          22.0271  -28.0706  -44.0419 C.2       3 UNK         0.5005 
     28 O          22.8984  -28.8722  -43.7017 O.2       3 UNK        -0.5279 
     29 N          20.9050  -27.8621  -43.3363 N.am      4 UNK        -0.4463 
     30 CA         20.5876  -28.5334  -42.0749 C.3       4 UNK         0.0283 
     31 CB         19.1739  -28.1496  -41.6195 C.3       4 UNK        -0.1875 
     32 C          21.5997  -28.2446  -40.9564 C.2       4 UNK         0.4949 
     33 O          21.8590  -29.1251  -40.1394 O.2       4 UNK        -0.5039 
     34 N          22.1831  -27.0375  -40.9603 N.am      5 UNK        -0.4663 
     35 CA         23.2402  -26.6346  -40.0305 C.3       5 UNK         0.0242 
     36 CB         23.3914  -25.1057  -40.0737 C.3       5 UNK        -0.1982 
     37 C          24.5890  -27.3184  -40.3182 C.2       5 UNK         0.5017 
     38 O          25.3908  -27.4696  -39.3960 O.2       5 UNK        -0.5012 
     39 N          24.8185  -27.7074  -41.5802 N.am      6 UNK        -0.4439 
     40 CA         26.0184  -28.4149  -42.0243 C.3       6 UNK         0.0297 
     41 CB         26.3123  -28.0669  -43.4935 C.3       6 UNK        -0.2006 
     42 C          25.8730  -29.9322  -41.8382 C.2       6 UNK         0.4892 
     43 O          26.8072  -30.5690  -41.3504 O.2       6 UNK        -0.5089 
     44 N          24.7159  -30.4802  -42.2370 N.am      7 UNK        -0.4243 
     45 CA         24.3909  -31.9035  -42.1447 C.3       7 UNK         0.0196 
     46 CB         23.1447  -32.1993  -42.9992 C.3       7 UNK        -0.2007 
     47 C          24.1901  -32.3614  -40.6920 C.2       7 UNK         0.5020 
     48 O          24.8790  -33.2787  -40.2459 O.2       7 UNK        -0.5147 
     49 N          23.2388  -31.7120  -40.0059 N.am      8 UNK        -0.4734 
     50 CA         22.7911  -31.9206  -38.6246 C.3       8 UNK         0.0238 
     51 CB         23.6958  -31.0903  -37.6904 C.3       8 UNK        -0.1912 
     52 C          22.6529  -33.3940  -38.1601 C.2       8 UNK         0.5038 
     53 O          23.2802  -33.7617  -37.1662 O.2       8 UNK        -0.5046 
     54 N          21.8613  -34.2602  -38.8097 N.am      9 UNK        -0.4200 
     55 CA         21.0480  -34.0898  -40.0241 C.3       9 UNK         0.0839 
     56 C          20.8442  -35.4464  -40.7632 C.2       9 UNK         0.5513 
     57 N          21.7359  -36.4185  -40.6042 N.am      9 UNK        -0.7519 
     58 O          19.8751  -35.6324  -41.4932 O.2       9 UNK        -0.4960 
     59 C59        19.7303  -33.2942  -39.7677 C.3       10 UNK        -0.0876 
     60 S60        19.5761  -31.8314  -40.8465 S.3       10 UNK        -0.2414 
     61 C61        18.9240  -32.5758  -42.3710 C.3       10 UNK         0.0169 
     62 H62        13.9579  -22.0091  -43.6322 H         1 UNK         0.0903 
     63 H63        14.2063  -23.4259  -42.6098 H         1 UNK         0.0903 
     64 H64        15.1559  -21.9637  -42.3352 H         1 UNK         0.0903 
     65 H65        15.4206  -25.0289  -43.6133 H         1 UNK         0.3096 
     66 H66        16.9697  -24.5484  -45.9836 H         1 UNK         0.1121 
     67 H67        17.5566  -27.0367  -45.6767 H         1 UNK         0.0849 
     68 H68        15.9122  -26.6153  -46.0458 H         1 UNK         0.0849 
     69 H69        15.1036  -29.6829  -43.9126 H         1 UNK         0.0865 
     70 H70        15.4504  -29.0980  -45.5169 H         1 UNK         0.0865 
     71 H71        16.7351  -30.9838  -42.6653 H         1 UNK         0.1346 
     72 H72        20.5275  -31.8592  -44.4644 H         1 UNK         0.1412 
     73 H73        17.8420  -29.1112  -46.3567 H         1 UNK         0.1426 
     74 H74        21.2887  -30.6330  -46.3731 H         1 UNK         0.0716 
     75 H75        19.9767  -30.7875  -47.5115 H         1 UNK         0.0716 
     76 H76        22.7932  -28.9485  -46.5238 H         1 UNK         0.0695 
     77 H77        22.6351  -27.4724  -47.4106 H         1 UNK         0.0695 
     78 H78        23.3001  -26.8747  -45.2155 H         1 UNK         0.0983 
     79 H79        20.7377  -25.9623  -46.0710 H         1 UNK         0.3095 
     80 H80        20.5161  -23.2601  -43.7594 H         1 UNK         0.0454 
     81 H81        21.3249  -23.2002  -46.7161 H         1 UNK         0.0851 
     82 H82        20.5999  -21.8732  -45.8072 H         1 UNK         0.0851 
     83 H83        22.2090  -22.4415  -45.4000 H         1 UNK         0.0851 
     84 H84        18.9910  -23.8327  -46.0786 H         1 UNK         0.2976 
     85 H85        20.2404  -27.1766  -43.6673 H         1 UNK         0.3116 
     86 H86        20.6114  -29.6043  -42.2745 H         1 UNK         0.0646 
     87 H87        19.0968  -27.0887  -41.3795 H         1 UNK         0.0847 
     88 H88        18.4392  -28.3736  -42.3899 H         1 UNK         0.0847 
     89 H89        18.8874  -28.7092  -40.7281 H         1 UNK         0.0847 
     90 H90        21.9248  -26.3731  -41.6786 H         1 UNK         0.3040 
     91 H91        22.9374  -26.9225  -39.0210 H         1 UNK         0.1015 
     92 H92        23.6857  -24.7568  -41.0646 H         1 UNK         0.0786 
     93 H93        24.1533  -24.7686  -39.3693 H         1 UNK         0.0786 
     94 H94        22.4599  -24.6068  -39.8054 H         1 UNK         0.0786 
     95 H95        24.0753  -27.5988  -42.2571 H         1 UNK         0.3172 
     96 H96        26.8716  -28.0822  -41.4289 H         1 UNK         0.0595 
     97 H97        27.2248  -28.5591  -43.8326 H         1 UNK         0.0839 
     98 H98        26.4559  -26.9943  -43.6253 H         1 UNK         0.0839 
     99 H99        25.5086  -28.3816  -44.1597 H         1 UNK         0.0839 
    100 H100       24.0183  -29.8816  -42.6761 H         1 UNK         0.2998 
    101 H101       25.2276  -32.4689  -42.5609 H         1 UNK         0.0822 
    102 H102       22.8811  -33.2568  -42.9560 H         1 UNK         0.0787 
    103 H103       22.2771  -31.6294  -42.6638 H         1 UNK         0.0787 
    104 H104       23.3172  -31.9502  -44.0464 H         1 UNK         0.0787 
    105 H105       22.7589  -30.9485  -40.4715 H         1 UNK         0.3055 
    106 H106       21.7892  -31.4934  -38.5643 H         1 UNK         0.1106 
    107 H107       23.6995  -30.0384  -37.9777 H         1 UNK         0.0828 
    108 H108       23.3503  -31.1401  -36.6570 H         1 UNK         0.0828 
    109 H109       24.7267  -31.4456  -37.7117 H         1 UNK         0.0828 
    110 H110       21.8128  -35.1975  -38.4370 H         1 UNK         0.2931 
    111 H111       21.6473  -33.5399  -40.7432 H         1 UNK         0.0412 
    112 H112       21.5935  -37.2929  -41.0860 H         1 UNK         0.3472 
    113 H113       22.5767  -36.2757  -40.0668 H         1 UNK         0.3472 
    114 H114       18.8389  -33.9155  -39.8716 H         1 UNK         0.0970 
    115 H115       19.6913  -32.9326  -38.7394 H         1 UNK         0.0970 
    116 H116       19.6373  -33.3129  -42.7404 H         1 UNK         0.0612 
    117 H117       18.0055  -33.1194  -42.1449 H         1 UNK         0.0612 
@<TRIPOS>BOND
     1    1    2 1    
     2    1   62 1    
     3    1   63 1    
     4    1   64 1    
     5    2    3 2    
     6    2    4 am   BACKBONE|DICT|INTERRES
     7    4    5 1    
     8    4   65 1    
     9    5    6 1    
    10    5   25 1    
    11    5   66 1    
    12    6    7 1    
    13    6   67 1    
    14    6   68 1    
    15    7    8 1    
    16    8    9 1    
    17    8   69 1    
    18    8   70 1    
    19    9   10 ar   
    20    9   14 ar   
    21   10   11 ar   
    22   10   71 1    
    23   11   12 ar   
    24   11   61 1    
    25   12   13 ar   
    26   12   72 1    
    27   13   14 ar   
    28   13   15 1    
    29   14   73 1    
    30   15   16 1    
    31   15   74 1    
    32   15   75 1    
    33   16   17 1    
    34   17   18 1    
    35   17   76 1    
    36   17   77 1    
    37   18   19 1    
    38   18   27 1    
    39   18   78 1    
    40   19   20 am   BACKBONE|DICT|INTERRES
    41   19   79 1    
    42   20   21 2    
    43   20   22 1    
    44   22   23 1    
    45   22   24 1    
    46   22   80 1    
    47   23   81 1    
    48   23   82 1    
    49   23   83 1    
    50   24   25 am   BACKBONE|DICT|INTERRES
    51   24   84 1    
    52   25   26 2    
    53   27   28 2    
    54   27   29 am   BACKBONE|DICT|INTERRES
    55   29   30 1    
    56   29   85 1    
    57   30   31 1    
    58   30   32 1    
    59   30   86 1    
    60   31   87 1    
    61   31   88 1    
    62   31   89 1    
    63   32   33 2    
    64   32   34 am   BACKBONE|DICT|INTERRES
    65   34   35 1    
    66   34   90 1    
    67   35   36 1    
    68   35   37 1    
    69   35   91 1    
    70   36   92 1    
    71   36   93 1    
    72   36   94 1    
    73   37   38 2    
    74   37   39 am   BACKBONE|DICT|INTERRES
    75   39   40 1    
    76   39   95 1    
    77   40   41 1    
    78   40   42 1    
    79   40   96 1    
    80   41   97 1    
    81   41   98 1    
    82   41   99 1    
    83   42   43 2    
    84   42   44 am   BACKBONE|DICT|INTERRES
    85   44   45 1    
    86   44  100 1    
    87   45   46 1    
    88   45   47 1    
    89   45  101 1    
    90   46  102 1    
    91   46  103 1    
    92   46  104 1    
    93   47   48 2    
    94   47   49 am   BACKBONE|DICT|INTERRES
    95   49   50 1    
    96   49  105 1    
    97   50   51 1    
    98   50   52 1    
    99   50  106 1    
   100   51  107 1    
   101   51  108 1    
   102   51  109 1    
   103   52   53 2    
   104   52   54 am   BACKBONE|DICT|INTERRES
   105   54   55 1    
   106   54  110 1    
   107   55   56 1    
   108   55   59 1    
   109   55  111 1    
   110   56   57 am   BACKBONE|DICT|INTERRES
   111   56   58 2    
   112   57  112 1    
   113   57  113 1    
   114   59   60 1    
   115   59  114 1    
   116   59  115 1    
   117   60   61 1    
   118   61  116 1    
   119   61  117 1    
@<TRIPOS>SUBSTRUCTURE
     1 UNK         1 GROUP             0       ****    0 ROOT    
