@<TRIPOS>MOLECULE
3R8
117   119    1
SMALL
USER_CHARGES


@<TRIPOS>ATOM
      1 CA         14.4348  -23.3056  -39.7524 C.3       0 UNK        -0.2013 
      2 C          15.2626  -23.8932  -40.8856 C.2       0 UNK         0.4866 
      3 O          15.8122  -23.1446  -41.6943 O.2       0 UNK        -0.5176 
      4 N          15.3497  -25.2276  -40.9566 N.am      1 UNK        -0.4884 
      5 CA         16.1602  -25.9578  -41.9349 C.3       1 UNK         0.0853 
      6 C6         15.7293  -27.4442  -42.0099 C.3       10 UNK        -0.0849 
      7 S7         16.4375  -28.3479  -43.4330 S.3       10 UNK        -0.2776 
      8 C8         17.8193  -29.2064  -42.6185 C.3       10 UNK         0.0316 
      9 C9         18.4921  -30.2112  -43.5370 C.ar      10 UNK        -0.0863 
     10 C10        18.0967  -31.5496  -43.5074 C.ar      10 UNK        -0.1009 
     11 C11        18.7640  -32.5075  -44.2765 C.ar      10 UNK        -0.0712 
     12 C12        19.8089  -32.1041  -45.1131 C.ar      10 UNK        -0.0894 
     13 C13        20.2018  -30.7624  -45.1746 C.ar      10 UNK        -0.0745 
     14 C14        19.5358  -29.8194  -44.3809 C.ar      10 UNK        -0.0972 
     15 C15        21.3311  -30.3609  -46.1212 C.3       10 UNK         0.0209 
     16 S16        22.5103  -29.1691  -45.4046 S.3       10 UNK        -0.2568 
     17 C17        21.9649  -27.6139  -46.1915 C.3       10 UNK        -0.0983 
     18 CA         22.3869  -26.3194  -45.4390 C.3       3 UNK         0.0876 
     19 N          21.6971  -26.1432  -44.1648 N.am      3 UNK        -0.4424 
     20 C          20.4326  -25.7435  -44.0289 C.2       2 UNK         0.4918 
     21 O          19.6754  -25.5198  -44.9778 O.2       2 UNK        -0.4875 
     22 CA         19.9303  -25.5426  -42.5949 C.3       2 UNK         0.0481 
     23 CB         20.4234  -24.2076  -42.0075 C.3       2 UNK        -0.1831 
     24 N          18.4736  -25.5780  -42.6283 N.am      2 UNK        -0.4498 
     25 C          17.6594  -25.8187  -41.5979 C.2       1 UNK         0.5027 
     26 O          18.0441  -25.9854  -40.4381 O.2       1 UNK        -0.4969 
     27 C          23.9023  -26.2000  -45.1918 C.2       3 UNK         0.5005 
     28 O          24.3224  -25.9518  -44.0568 O.2       3 UNK        -0.5279 
     29 N          24.6965  -26.3920  -46.2543 N.am      4 UNK        -0.4463 
     30 CA         26.1619  -26.3595  -46.2241 C.3       4 UNK         0.0283 
     31 CB         26.6969  -26.3658  -47.6656 C.3       4 UNK        -0.1875 
     32 C          26.8028  -27.5003  -45.4103 C.2       4 UNK         0.4949 
     33 O          27.9380  -27.3396  -44.9617 O.2       4 UNK        -0.5039 
     34 N          26.0865  -28.6221  -45.2395 N.am      5 UNK        -0.4663 
     35 CA         26.5082  -29.7444  -44.4006 C.3       5 UNK         0.0242 
     36 CB         25.7913  -31.0370  -44.8342 C.3       5 UNK        -0.1982 
     37 C          26.2870  -29.4191  -42.9152 C.2       5 UNK         0.5017 
     38 O          27.2608  -29.1770  -42.2009 O.2       5 UNK        -0.5012 
     39 N          25.0193  -29.4026  -42.4855 N.am      6 UNK        -0.4439 
     40 CA         24.5745  -29.1158  -41.1232 C.3       6 UNK         0.0297 
     41 CB         25.0658  -30.2034  -40.1437 C.3       6 UNK        -0.2006 
     42 C          23.0434  -29.0488  -41.1041 C.2       6 UNK         0.4892 
     43 O          22.3933  -29.5964  -41.9967 O.2       6 UNK        -0.5089 
     44 N          22.4955  -28.4121  -40.0619 N.am      7 UNK        -0.4243 
     45 CA         21.0677  -28.4429  -39.7393 C.3       7 UNK         0.0196 
     46 CB         20.7577  -27.3384  -38.7169 C.3       7 UNK        -0.2007 
     47 C          20.6520  -29.8225  -39.1998 C.2       7 UNK         0.5020 
     48 O          21.4915  -30.5530  -38.6674 O.2       7 UNK        -0.5147 
     49 N          19.3618  -30.1546  -39.3559 N.am      8 UNK        -0.4734 
     50 CA         18.7311  -31.4314  -38.9743 C.3       8 UNK         0.0238 
     51 CB         18.6241  -31.5380  -37.4380 C.3       8 UNK        -0.1912 
     52 C          19.4052  -32.6689  -39.6097 C.2       8 UNK         0.5038 
     53 O          19.4632  -33.7295  -38.9847 O.2       8 UNK        -0.5046 
     54 N          19.9159  -32.4900  -40.8349 N.am      9 UNK        -0.4200 
     55 CA         20.7048  -33.4537  -41.6180 C.3       9 UNK         0.0839 
     56 C          22.1338  -33.7269  -41.0569 C.2       9 UNK         0.5513 
     57 N          22.6278  -32.9800  -40.0760 N.am      9 UNK        -0.7519 
     58 O          22.8225  -34.6242  -41.5362 O.2       9 UNK        -0.4960 
     59 C59        19.9503  -34.7746  -41.9674 C.3       10 UNK        -0.0876 
     60 S60        18.2085  -34.5878  -42.4940 S.3       10 UNK        -0.2414 
     61 C61        18.3608  -33.9764  -44.2061 C.3       10 UNK         0.0169 
     62 H62        13.6250  -22.6978  -40.1552 H         1 UNK         0.0903 
     63 H63        13.9964  -24.0796  -39.1227 H         1 UNK         0.0903 
     64 H64        15.0579  -22.6699  -39.1238 H         1 UNK         0.0903 
     65 H65        14.9049  -25.7908  -40.2454 H         1 UNK         0.3096 
     66 H66        15.9791  -25.5031  -42.9121 H         1 UNK         0.1121 
     67 H67        15.9560  -27.9653  -41.0777 H         1 UNK         0.0849 
     68 H68        14.6447  -27.4996  -42.1171 H         1 UNK         0.0849 
     69 H69        18.5560  -28.4808  -42.2745 H         1 UNK         0.0865 
     70 H70        17.4495  -29.7164  -41.7280 H         1 UNK         0.0865 
     71 H71        17.2858  -31.8547  -42.8600 H         1 UNK         0.1346 
     72 H72        20.3196  -32.8399  -45.7193 H         1 UNK         0.1412 
     73 H73        19.8369  -28.7818  -44.4093 H         1 UNK         0.1426 
     74 H74        20.9022  -29.9619  -47.0411 H         1 UNK         0.0716 
     75 H75        21.9029  -31.2431  -46.4132 H         1 UNK         0.0716 
     76 H76        22.3511  -27.6014  -47.2117 H         1 UNK         0.0695 
     77 H77        20.8797  -27.6347  -46.3001 H         1 UNK         0.0695 
     78 H78        22.1258  -25.4660  -46.0693 H         1 UNK         0.0983 
     79 H79        22.2993  -26.2518  -43.3583 H         1 UNK         0.3095 
     80 H80        20.2957  -26.3690  -41.9842 H         1 UNK         0.0454 
     81 H81        21.5129  -24.1611  -41.9946 H         1 UNK         0.0851 
     82 H82        20.0658  -23.3570  -42.5891 H         1 UNK         0.0851 
     83 H83        20.0848  -24.0754  -40.9798 H         1 UNK         0.0851 
     84 H84        18.0941  -25.4958  -43.5648 H         1 UNK         0.2976 
     85 H85        24.2713  -26.5932  -47.1483 H         1 UNK         0.3116 
     86 H86        26.4626  -25.4203  -45.7547 H         1 UNK         0.0646 
     87 H87        27.7864  -26.3091  -47.6775 H         1 UNK         0.0847 
     88 H88        26.3257  -25.5119  -48.2326 H         1 UNK         0.0847 
     89 H89        26.4136  -27.2744  -48.1984 H         1 UNK         0.0847 
     90 H90        25.1531  -28.6609  -45.6245 H         1 UNK         0.3040 
     91 H91        27.5797  -29.9039  -44.5439 H         1 UNK         0.1015 
     92 H92        26.0259  -31.2879  -45.8688 H         1 UNK         0.0786 
     93 H93        24.7076  -30.9667  -44.7489 H         1 UNK         0.0786 
     94 H94        26.1092  -31.8798  -44.2189 H         1 UNK         0.0786 
     95 H95        24.2594  -29.5909  -43.1303 H         1 UNK         0.3172 
     96 H96        24.9683  -28.1421  -40.8252 H         1 UNK         0.0595 
     97 H97        26.1478  -30.1772  -40.0177 H         1 UNK         0.0839 
     98 H98        24.7950  -31.2007  -40.4907 H         1 UNK         0.0839 
     99 H99        24.6295  -30.0753  -39.1521 H         1 UNK         0.0839 
    100 H100       23.1058  -28.0294  -39.3545 H         1 UNK         0.2998 
    101 H101       20.5027  -28.2480  -40.6522 H         1 UNK         0.0822 
    102 H102       21.0130  -26.3535  -39.1089 H         1 UNK         0.0787 
    103 H103       19.6948  -27.3179  -38.4721 H         1 UNK         0.0787 
    104 H104       21.3047  -27.4843  -37.7845 H         1 UNK         0.0787 
    105 H105       18.7437  -29.4692  -39.7663 H         1 UNK         0.3055 
    106 H106       17.7157  -31.4109  -39.3738 H         1 UNK         0.1106 
    107 H107       19.6052  -31.6247  -36.9700 H         1 UNK         0.0828 
    108 H108       18.1255  -30.6671  -37.0128 H         1 UNK         0.0828 
    109 H109       18.0457  -32.4150  -37.1443 H         1 UNK         0.0828 
    110 H110       19.8362  -31.5747  -41.2521 H         1 UNK         0.2931 
    111 H111       20.8941  -32.9393  -42.5592 H         1 UNK         0.0412 
    112 H112       23.5518  -33.1799  -39.7297 H         1 UNK         0.3472 
    113 H113       22.0904  -32.2231  -39.6677 H         1 UNK         0.3472 
    114 H114       19.9491  -35.4358  -41.0991 H         1 UNK         0.0970 
    115 H115       20.4866  -35.3171  -42.7479 H         1 UNK         0.0970 
    116 H116       17.3972  -34.0930  -44.7034 H         1 UNK         0.0612 
    117 H117       19.0678  -34.6066  -44.7479 H         1 UNK         0.0612 
@<TRIPOS>BOND
     1    1    2 1    
     2    1   62 1    
     3    1   63 1    
     4    1   64 1    
     5    2    3 2    
     6    2    4 am   BACKBONE|DICT|INTERRES
     7    4    5 1    
     8    4   65 1    
     9    5    6 1    
    10    5   25 1    
    11    5   66 1    
    12    6    7 1    
    13    6   67 1    
    14    6   68 1    
    15    7    8 1    
    16    8    9 1    
    17    8   69 1    
    18    8   70 1    
    19    9   10 ar   
    20    9   14 ar   
    21   10   11 ar   
    22   10   71 1    
    23   11   12 ar   
    24   11   61 1    
    25   12   13 ar   
    26   12   72 1    
    27   13   14 ar   
    28   13   15 1    
    29   14   73 1    
    30   15   16 1    
    31   15   74 1    
    32   15   75 1    
    33   16   17 1    
    34   17   18 1    
    35   17   76 1    
    36   17   77 1    
    37   18   19 1    
    38   18   27 1    
    39   18   78 1    
    40   19   20 am   BACKBONE|DICT|INTERRES
    41   19   79 1    
    42   20   21 2    
    43   20   22 1    
    44   22   23 1    
    45   22   24 1    
    46   22   80 1    
    47   23   81 1    
    48   23   82 1    
    49   23   83 1    
    50   24   25 am   BACKBONE|DICT|INTERRES
    51   24   84 1    
    52   25   26 2    
    53   27   28 2    
    54   27   29 am   BACKBONE|DICT|INTERRES
    55   29   30 1    
    56   29   85 1    
    57   30   31 1    
    58   30   32 1    
    59   30   86 1    
    60   31   87 1    
    61   31   88 1    
    62   31   89 1    
    63   32   33 2    
    64   32   34 am   BACKBONE|DICT|INTERRES
    65   34   35 1    
    66   34   90 1    
    67   35   36 1    
    68   35   37 1    
    69   35   91 1    
    70   36   92 1    
    71   36   93 1    
    72   36   94 1    
    73   37   38 2    
    74   37   39 am   BACKBONE|DICT|INTERRES
    75   39   40 1    
    76   39   95 1    
    77   40   41 1    
    78   40   42 1    
    79   40   96 1    
    80   41   97 1    
    81   41   98 1    
    82   41   99 1    
    83   42   43 2    
    84   42   44 am   BACKBONE|DICT|INTERRES
    85   44   45 1    
    86   44  100 1    
    87   45   46 1    
    88   45   47 1    
    89   45  101 1    
    90   46  102 1    
    91   46  103 1    
    92   46  104 1    
    93   47   48 2    
    94   47   49 am   BACKBONE|DICT|INTERRES
    95   49   50 1    
    96   49  105 1    
    97   50   51 1    
    98   50   52 1    
    99   50  106 1    
   100   51  107 1    
   101   51  108 1    
   102   51  109 1    
   103   52   53 2    
   104   52   54 am   BACKBONE|DICT|INTERRES
   105   54   55 1    
   106   54  110 1    
   107   55   56 1    
   108   55   59 1    
   109   55  111 1    
   110   56   57 am   BACKBONE|DICT|INTERRES
   111   56   58 2    
   112   57  112 1    
   113   57  113 1    
   114   59   60 1    
   115   59  114 1    
   116   59  115 1    
   117   60   61 1    
   118   61  116 1    
   119   61  117 1    
@<TRIPOS>SUBSTRUCTURE
     1 UNK         1 GROUP             0       ****    0 ROOT    
