@<TRIPOS>MOLECULE
3R8
117   119    1
SMALL
USER_CHARGES


@<TRIPOS>ATOM
      1 CA         16.0184  -22.3034  -44.2901 C.3       0 UNK        -0.2013 
      2 C          16.5502  -23.6871  -44.6326 C.2       0 UNK         0.4866 
      3 O          16.5769  -24.5609  -43.7653 O.2       0 UNK        -0.5176 
      4 N          16.9672  -23.8905  -45.8914 N.am      1 UNK        -0.4884 
      5 CA         17.5583  -25.1295  -46.4165 C.3       1 UNK         0.0853 
      6 C6         16.5669  -26.3293  -46.3336 C.3       10 UNK        -0.0849 
      7 S7         16.9106  -27.6520  -47.5433 S.3       10 UNK        -0.2776 
      8 C8         15.8474  -28.9922  -46.9183 C.3       10 UNK         0.0316 
      9 C9         16.3331  -29.5539  -45.5875 C.ar      10 UNK        -0.0863 
     10 C10        17.4344  -30.4140  -45.5462 C.ar      10 UNK        -0.1009 
     11 C11        17.8537  -30.9743  -44.3351 C.ar      10 UNK        -0.0712 
     12 C12        17.1593  -30.6711  -43.1600 C.ar      10 UNK        -0.0894 
     13 C13        16.0748  -29.7892  -43.1823 C.ar      10 UNK        -0.0745 
     14 C14        15.6623  -29.2405  -44.4011 C.ar      10 UNK        -0.0972 
     15 C15        15.3406  -29.4287  -41.8947 C.3       10 UNK         0.0209 
     16 S16        16.4253  -28.6819  -40.6290 S.3       10 UNK        -0.2568 
     17 C17        17.2328  -27.3329  -41.5541 C.3       10 UNK        -0.0983 
     18 CA         18.7428  -27.6303  -41.7750 C.3       3 UNK         0.0876 
     19 N          19.1728  -27.2855  -43.1302 N.am      3 UNK        -0.4424 
     20 C          20.3952  -27.4747  -43.6500 C.2       2 UNK         0.4918 
     21 O          21.3543  -27.9006  -43.0053 O.2       2 UNK        -0.4875 
     22 CA         20.5873  -27.1718  -45.1486 C.3       2 UNK         0.0481 
     23 CB         21.0556  -28.4323  -45.8954 C.3       2 UNK        -0.1831 
     24 N          19.3680  -26.6747  -45.7894 N.am      2 UNK        -0.4498 
     25 C          18.9465  -25.4049  -45.7832 C.2       1 UNK         0.5027 
     26 O          19.6079  -24.4772  -45.3096 O.2       1 UNK        -0.4969 
     27 C          19.6318  -26.9648  -40.7037 C.2       3 UNK         0.5005 
     28 O          19.5886  -25.7422  -40.5483 O.2       3 UNK        -0.5279 
     29 N          20.4494  -27.7854  -40.0270 N.am      4 UNK        -0.4463 
     30 CA         21.4534  -27.4176  -39.0204 C.3       4 UNK         0.0283 
     31 CB         20.7887  -26.7883  -37.7772 C.3       4 UNK        -0.1875 
     32 C          22.6239  -26.5640  -39.5566 C.2       4 UNK         0.4949 
     33 O          23.3656  -25.9979  -38.7524 O.2       4 UNK        -0.5039 
     34 N          22.8110  -26.5065  -40.8848 N.am      5 UNK        -0.4663 
     35 CA         23.9602  -25.8517  -41.5244 C.3       5 UNK         0.0242 
     36 CB         23.6148  -25.5136  -42.9840 C.3       5 UNK        -0.1982 
     37 C          25.2307  -26.7185  -41.4588 C.2       5 UNK         0.5017 
     38 O          26.3370  -26.1843  -41.5429 O.2       5 UNK        -0.5012 
     39 N          25.0444  -28.0317  -41.2968 N.am      6 UNK        -0.4439 
     40 CA         26.0661  -29.0439  -41.0732 C.3       6 UNK         0.0297 
     41 CB         26.6030  -29.5526  -42.4221 C.3       6 UNK        -0.2006 
     42 C          25.4196  -30.1729  -40.2629 C.2       6 UNK         0.4892 
     43 O          24.1896  -30.2982  -40.2703 O.2       6 UNK        -0.5089 
     44 N          26.2536  -30.9754  -39.5881 N.am      7 UNK        -0.4243 
     45 CA         25.8454  -32.1281  -38.7795 C.3       7 UNK         0.0196 
     46 CB         27.0819  -32.7407  -38.1006 C.3       7 UNK        -0.2007 
     47 C          25.1075  -33.1715  -39.6333 C.2       7 UNK         0.5020 
     48 O          25.7136  -33.7507  -40.5369 O.2       7 UNK        -0.5147 
     49 N          23.8011  -33.3302  -39.3747 N.am      8 UNK        -0.4734 
     50 CA         22.8433  -34.1488  -40.1353 C.3       8 UNK         0.0238 
     51 CB         23.1286  -35.6508  -39.9201 C.3       8 UNK        -0.1912 
     52 C          22.7603  -33.7683  -41.6310 C.2       8 UNK         0.5038 
     53 O          22.4985  -34.6367  -42.4653 O.2       8 UNK        -0.5046 
     54 N          23.0095  -32.4860  -41.9373 N.am      9 UNK        -0.4200 
     55 CA         23.1453  -31.9201  -43.2899 C.3       9 UNK         0.0839 
     56 C          24.4094  -32.4059  -44.0644 C.2       9 UNK         0.5513 
     57 N          25.3958  -33.0220  -43.4220 N.am      9 UNK        -0.7519 
     58 O          24.5199  -32.1888  -45.2682 O.2       9 UNK        -0.4960 
     59 C59        21.8462  -32.0216  -44.1404 C.3       10 UNK        -0.0876 
     60 S60        20.4283  -31.1883  -43.3570 S.3       10 UNK        -0.2414 
     61 C61        19.0509  -31.9121  -44.2973 C.3       10 UNK         0.0169 
     62 H62        16.6191  -21.8577  -43.4977 H         1 UNK         0.0903 
     63 H63        16.0387  -21.6331  -45.1492 H         1 UNK         0.0903 
     64 H64        14.9893  -22.3738  -43.9391 H         1 UNK         0.0903 
     65 H65        16.9459  -23.1180  -46.5433 H         1 UNK         0.3096 
     66 H66        17.7544  -24.9290  -47.4713 H         1 UNK         0.1121 
     67 H67        16.5422  -26.7398  -45.3235 H         1 UNK         0.0849 
     68 H68        15.5517  -25.9818  -46.5327 H         1 UNK         0.0849 
     69 H69        14.8212  -28.6304  -46.8358 H         1 UNK         0.0865 
     70 H70        15.8237  -29.7943  -47.6576 H         1 UNK         0.0865 
     71 H71        17.9583  -30.6527  -46.4618 H         1 UNK         0.1346 
     72 H72        17.4805  -31.1029  -42.2219 H         1 UNK         0.1412 
     73 H73        14.8138  -28.5701  -44.4277 H         1 UNK         0.1426 
     74 H74        14.8855  -30.3298  -41.4817 H         1 UNK         0.0716 
     75 H75        14.5213  -28.7373  -42.0977 H         1 UNK         0.0716 
     76 H76        16.7157  -27.2053  -42.5060 H         1 UNK         0.0695 
     77 H77        17.0661  -26.3928  -41.0244 H         1 UNK         0.0695 
     78 H78        18.8948  -28.7103  -41.7136 H         1 UNK         0.0983 
     79 H79        18.4636  -26.8912  -43.7281 H         1 UNK         0.3095 
     80 H80        21.3713  -26.4166  -45.2315 H         1 UNK         0.0454 
     81 H81        20.3158  -29.2316  -45.8390 H         1 UNK         0.0851 
     82 H82        21.2462  -28.2236  -46.9480 H         1 UNK         0.0851 
     83 H83        21.9830  -28.8190  -45.4703 H         1 UNK         0.0851 
     84 H84        18.7671  -27.3666  -46.2224 H         1 UNK         0.2976 
     85 H85        20.4349  -28.7664  -40.2725 H         1 UNK         0.3116 
     86 H86        21.9051  -28.3589  -38.7034 H         1 UNK         0.0646 
     87 H87        21.5074  -26.6706  -36.9653 H         1 UNK         0.0847 
     88 H88        19.9784  -27.4121  -37.4004 H         1 UNK         0.0847 
     89 H89        20.3806  -25.8002  -37.9915 H         1 UNK         0.0847 
     90 H90        22.1713  -27.0047  -41.4989 H         1 UNK         0.3040 
     91 H91        24.1686  -24.9171  -40.9986 H         1 UNK         0.1015 
     92 H92        22.6958  -24.9311  -43.0530 H         1 UNK         0.0786 
     93 H93        23.4913  -26.4124  -43.5890 H         1 UNK         0.0786 
     94 H94        24.4092  -24.9234  -43.4428 H         1 UNK         0.0786 
     95 H95        24.0984  -28.3784  -41.1881 H         1 UNK         0.3172 
     96 H96        26.8811  -28.6167  -40.4851 H         1 UNK         0.0595 
     97 H97        27.1046  -28.7567  -42.9727 H         1 UNK         0.0839 
     98 H98        25.8025  -29.9385  -43.0530 H         1 UNK         0.0839 
     99 H99        27.3269  -30.3566  -42.2835 H         1 UNK         0.0839 
    100 H100       27.2473  -30.8131  -39.6650 H         1 UNK         0.2998 
    101 H101       25.1738  -31.7661  -37.9980 H         1 UNK         0.0822 
    102 H102       27.5736  -32.0213  -37.4455 H         1 UNK         0.0787 
    103 H103       26.8037  -33.5989  -37.4873 H         1 UNK         0.0787 
    104 H104       27.8150  -33.0867  -38.8307 H         1 UNK         0.0787 
    105 H105       23.3971  -32.7708  -38.6351 H         1 UNK         0.3055 
    106 H106       21.8560  -33.9371  -39.7215 H         1 UNK         0.1106 
    107 H107       24.0754  -35.9509  -40.3704 H         1 UNK         0.0828 
    108 H108       23.1674  -35.9001  -38.8598 H         1 UNK         0.0828 
    109 H109       22.3473  -36.2671  -40.3667 H         1 UNK         0.0828 
    110 H110       23.2470  -31.8475  -41.1853 H         1 UNK         0.2931 
    111 H111       23.3288  -30.8575  -43.1248 H         1 UNK         0.0412 
    112 H112       26.2065  -33.3167  -43.9422 H         1 UNK         0.3472 
    113 H113       25.3398  -33.2216  -42.4288 H         1 UNK         0.3472 
    114 H114       21.5936  -33.0641  -44.3388 H         1 UNK         0.0970 
    115 H115       21.9902  -31.5551  -45.1165 H         1 UNK         0.0970 
    116 H116       19.3836  -32.1401  -45.3112 H         1 UNK         0.0612 
    117 H117       18.7635  -32.8610  -43.8426 H         1 UNK         0.0612 
@<TRIPOS>BOND
     1    1    2 1    
     2    1   62 1    
     3    1   63 1    
     4    1   64 1    
     5    2    3 2    
     6    2    4 am   BACKBONE|DICT|INTERRES
     7    4    5 1    
     8    4   65 1    
     9    5    6 1    
    10    5   25 1    
    11    5   66 1    
    12    6    7 1    
    13    6   67 1    
    14    6   68 1    
    15    7    8 1    
    16    8    9 1    
    17    8   69 1    
    18    8   70 1    
    19    9   10 ar   
    20    9   14 ar   
    21   10   11 ar   
    22   10   71 1    
    23   11   12 ar   
    24   11   61 1    
    25   12   13 ar   
    26   12   72 1    
    27   13   14 ar   
    28   13   15 1    
    29   14   73 1    
    30   15   16 1    
    31   15   74 1    
    32   15   75 1    
    33   16   17 1    
    34   17   18 1    
    35   17   76 1    
    36   17   77 1    
    37   18   19 1    
    38   18   27 1    
    39   18   78 1    
    40   19   20 am   BACKBONE|DICT|INTERRES
    41   19   79 1    
    42   20   21 2    
    43   20   22 1    
    44   22   23 1    
    45   22   24 1    
    46   22   80 1    
    47   23   81 1    
    48   23   82 1    
    49   23   83 1    
    50   24   25 am   BACKBONE|DICT|INTERRES
    51   24   84 1    
    52   25   26 2    
    53   27   28 2    
    54   27   29 am   BACKBONE|DICT|INTERRES
    55   29   30 1    
    56   29   85 1    
    57   30   31 1    
    58   30   32 1    
    59   30   86 1    
    60   31   87 1    
    61   31   88 1    
    62   31   89 1    
    63   32   33 2    
    64   32   34 am   BACKBONE|DICT|INTERRES
    65   34   35 1    
    66   34   90 1    
    67   35   36 1    
    68   35   37 1    
    69   35   91 1    
    70   36   92 1    
    71   36   93 1    
    72   36   94 1    
    73   37   38 2    
    74   37   39 am   BACKBONE|DICT|INTERRES
    75   39   40 1    
    76   39   95 1    
    77   40   41 1    
    78   40   42 1    
    79   40   96 1    
    80   41   97 1    
    81   41   98 1    
    82   41   99 1    
    83   42   43 2    
    84   42   44 am   BACKBONE|DICT|INTERRES
    85   44   45 1    
    86   44  100 1    
    87   45   46 1    
    88   45   47 1    
    89   45  101 1    
    90   46  102 1    
    91   46  103 1    
    92   46  104 1    
    93   47   48 2    
    94   47   49 am   BACKBONE|DICT|INTERRES
    95   49   50 1    
    96   49  105 1    
    97   50   51 1    
    98   50   52 1    
    99   50  106 1    
   100   51  107 1    
   101   51  108 1    
   102   51  109 1    
   103   52   53 2    
   104   52   54 am   BACKBONE|DICT|INTERRES
   105   54   55 1    
   106   54  110 1    
   107   55   56 1    
   108   55   59 1    
   109   55  111 1    
   110   56   57 am   BACKBONE|DICT|INTERRES
   111   56   58 2    
   112   57  112 1    
   113   57  113 1    
   114   59   60 1    
   115   59  114 1    
   116   59  115 1    
   117   60   61 1    
   118   61  116 1    
   119   61  117 1    
@<TRIPOS>SUBSTRUCTURE
     1 UNK         1 GROUP             0       ****    0 ROOT    
