@<TRIPOS>MOLECULE
3R8
117   119    1
SMALL
USER_CHARGES


@<TRIPOS>ATOM
      1 CA         20.0331  -29.1524  -41.3001 C.3       0 UNK        -0.2013 
      2 C          19.5496  -27.7214  -41.4413 C.2       0 UNK         0.4866 
      3 O          19.9945  -26.8478  -40.6966 O.2       0 UNK        -0.5176 
      4 N          18.6742  -27.4504  -42.4153 N.am      1 UNK        -0.4884 
      5 CA         18.1578  -26.1076  -42.7180 C.3       1 UNK         0.0853 
      6 C6         16.6965  -26.1391  -43.2379 C.3       10 UNK        -0.0849 
      7 S7         15.5667  -26.9838  -42.0724 S.3       10 UNK        -0.2776 
      8 C8         14.9558  -28.3991  -43.0473 C.3       10 UNK         0.0316 
      9 C9         16.0698  -29.3551  -43.4529 C.ar      10 UNK        -0.0863 
     10 C10        16.5540  -30.3114  -42.5558 C.ar      10 UNK        -0.1009 
     11 C11        17.5690  -31.2007  -42.9302 C.ar      10 UNK        -0.0712 
     12 C12        18.1191  -31.0975  -44.2176 C.ar      10 UNK        -0.0894 
     13 C13        17.6417  -30.1450  -45.1234 C.ar      10 UNK        -0.0745 
     14 C14        16.6051  -29.2928  -44.7396 C.ar      10 UNK        -0.0972 
     15 C15        18.2097  -30.0469  -46.5321 C.3       10 UNK         0.0209 
     16 S16        18.9107  -28.3971  -46.8609 S.3       10 UNK        -0.2568 
     17 C17        20.6953  -28.7498  -46.8841 C.3       10 UNK        -0.0983 
     18 CA         21.5237  -27.4425  -46.9059 C.3       3 UNK         0.0876 
     19 N          21.4188  -26.7081  -45.6383 N.am      3 UNK        -0.4424 
     20 C          21.7640  -25.4245  -45.4666 C.2       2 UNK         0.4918 
     21 O          22.2201  -24.7179  -46.3672 O.2       2 UNK        -0.4875 
     22 CA         21.5722  -24.8364  -44.0521 C.3       2 UNK         0.0481 
     23 CB         21.5171  -23.2944  -44.0472 C.3       2 UNK        -0.1831 
     24 N          20.4256  -25.3995  -43.3282 N.am      2 UNK        -0.4498 
     25 C          19.1255  -25.3593  -43.6649 C.2       1 UNK         0.5027 
     26 O          18.6950  -24.7930  -44.6709 O.2       1 UNK        -0.4969 
     27 C          22.9879  -27.7309  -47.2937 C.2       3 UNK         0.5005 
     28 O          23.3238  -27.6835  -48.4781 O.2       3 UNK        -0.5279 
     29 N          23.8250  -28.0073  -46.2887 N.am      4 UNK        -0.4463 
     30 CA         25.2648  -28.2491  -46.3810 C.3       4 UNK         0.0283 
     31 CB         25.5973  -29.5208  -47.1902 C.3       4 UNK        -0.1875 
     32 C          25.7836  -28.3468  -44.9470 C.2       4 UNK         0.4949 
     33 O          26.6270  -27.5493  -44.5377 O.2       4 UNK        -0.5039 
     34 N          25.1871  -29.2759  -44.1902 N.am      5 UNK        -0.4663 
     35 CA         25.2111  -29.2924  -42.7307 C.3       5 UNK         0.0242 
     36 CB         24.9450  -30.7283  -42.2530 C.3       5 UNK        -0.1982 
     37 C          24.1474  -28.3218  -42.1854 C.2       5 UNK         0.5017 
     38 O          23.2175  -27.9554  -42.9145 O.2       5 UNK        -0.5012 
     39 N          24.3045  -27.9351  -40.9164 N.am      6 UNK        -0.4439 
     40 CA         23.3974  -27.0528  -40.1890 C.3       6 UNK         0.0297 
     41 CB         24.1193  -25.7344  -39.8668 C.3       6 UNK        -0.2006 
     42 C          22.9442  -27.7501  -38.9011 C.2       6 UNK         0.4892 
     43 O          23.7229  -28.5027  -38.3117 O.2       6 UNK        -0.5089 
     44 N          21.6963  -27.4804  -38.4962 N.am      7 UNK        -0.4243 
     45 CA         20.9715  -27.9688  -37.3115 C.3       7 UNK         0.0196 
     46 CB         21.7267  -27.6525  -36.0054 C.3       7 UNK        -0.2007 
     47 C          20.5546  -29.4505  -37.3707 C.2       7 UNK         0.5020 
     48 O          19.5053  -29.7961  -36.8272 O.2       7 UNK        -0.5147 
     49 N          21.3448  -30.2928  -38.0390 N.am      8 UNK        -0.4734 
     50 CA         21.0683  -31.6982  -38.3205 C.3       8 UNK         0.0238 
     51 CB         21.6875  -32.5740  -37.2175 C.3       8 UNK        -0.1912 
     52 C          21.6545  -32.0372  -39.6958 C.2       8 UNK         0.5038 
     53 O          22.5243  -31.3083  -40.1776 O.2       8 UNK        -0.5046 
     54 N          21.1730  -33.1283  -40.2981 N.am      9 UNK        -0.4200 
     55 CA         21.5799  -33.5990  -41.6324 C.3       9 UNK         0.0839 
     56 C          21.8637  -35.1275  -41.7000 C.2       9 UNK         0.5513 
     57 N          21.9243  -35.8412  -40.5812 N.am      9 UNK        -0.7519 
     58 O          22.0593  -35.6752  -42.7820 O.2       9 UNK        -0.4960 
     59 C59        20.6181  -33.0875  -42.7408 C.3       10 UNK        -0.0876 
     60 S60        18.9013  -33.6987  -42.5745 S.3       10 UNK        -0.2414 
     61 C61        18.0354  -32.2376  -41.9027 C.3       10 UNK         0.0169 
     62 H62        21.1088  -29.1690  -41.1281 H         1 UNK         0.0903 
     63 H63        19.5413  -29.6320  -40.4551 H         1 UNK         0.0903 
     64 H64        19.8366  -29.7299  -42.2009 H         1 UNK         0.0903 
     65 H65        18.3121  -28.1972  -42.9943 H         1 UNK         0.3096 
     66 H66        18.1411  -25.5240  -41.7942 H         1 UNK         0.1121 
     67 H67        16.3256  -25.1211  -43.3709 H         1 UNK         0.0849 
     68 H68        16.6445  -26.6009  -44.2234 H         1 UNK         0.0849 
     69 H69        14.2130  -28.9379  -42.4572 H         1 UNK         0.0865 
     70 H70        14.4277  -28.0277  -43.9271 H         1 UNK         0.0865 
     71 H71        16.1318  -30.3661  -41.5612 H         1 UNK         0.1346 
     72 H72        18.9092  -31.7631  -44.5315 H         1 UNK         0.1412 
     73 H73        16.2245  -28.5696  -45.4484 H         1 UNK         0.1426 
     74 H74        17.4068  -30.2329  -47.2467 H         1 UNK         0.0716 
     75 H75        18.9601  -30.8186  -46.7104 H         1 UNK         0.0716 
     76 H76        20.8958  -29.3544  -47.7713 H         1 UNK         0.0695 
     77 H77        20.9574  -29.3647  -46.0206 H         1 UNK         0.0695 
     78 H78        21.1213  -26.7999  -47.6928 H         1 UNK         0.0983 
     79 H79        21.0459  -27.2146  -44.8492 H         1 UNK         0.3095 
     80 H80        22.4557  -25.1336  -43.4850 H         1 UNK         0.0454 
     81 H81        22.4338  -22.8679  -44.4562 H         1 UNK         0.0851 
     82 H82        20.6883  -22.9172  -44.6470 H         1 UNK         0.0851 
     83 H83        21.4050  -22.9042  -43.0359 H         1 UNK         0.0851 
     84 H84        20.6491  -25.8935  -42.4711 H         1 UNK         0.2976 
     85 H85        23.4602  -27.9653  -45.3433 H         1 UNK         0.3116 
     86 H86        25.7337  -27.3867  -46.8590 H         1 UNK         0.0646 
     87 H87        26.6634  -29.7463  -47.1390 H         1 UNK         0.0847 
     88 H88        25.3502  -29.4009  -48.2447 H         1 UNK         0.0847 
     89 H89        25.0601  -30.3949  -46.8214 H         1 UNK         0.0847 
     90 H90        24.4967  -29.8706  -44.6248 H         1 UNK         0.3040 
     91 H91        26.1953  -28.9743  -42.3785 H         1 UNK         0.1015 
     92 H92        25.6765  -31.4259  -42.6612 H         1 UNK         0.0786 
     93 H93        23.9521  -31.0733  -42.5447 H         1 UNK         0.0786 
     94 H94        25.0064  -30.7975  -41.1662 H         1 UNK         0.0786 
     95 H95        25.0327  -28.3569  -40.3551 H         1 UNK         0.3172 
     96 H96        22.5228  -26.8242  -40.7973 H         1 UNK         0.0595 
     97 H97        24.4404  -25.2274  -40.7770 H         1 UNK         0.0839 
     98 H98        25.0004  -25.8969  -39.2444 H         1 UNK         0.0839 
     99 H99        23.4612  -25.0499  -39.3299 H         1 UNK         0.0839 
    100 H100       21.1208  -26.9379  -39.1371 H         1 UNK         0.2998 
    101 H101       20.0427  -27.3960  -37.2943 H         1 UNK         0.0822 
    102 H102       21.9765  -26.5937  -35.9372 H         1 UNK         0.0787 
    103 H103       21.1155  -27.8984  -35.1361 H         1 UNK         0.0787 
    104 H104       22.6516  -28.2233  -35.9187 H         1 UNK         0.0787 
    105 H105       22.1932  -29.9320  -38.4663 H         1 UNK         0.3055 
    106 H106       19.9883  -31.8594  -38.3590 H         1 UNK         0.1106 
    107 H107       22.7698  -32.4477  -37.1648 H         1 UNK         0.0828 
    108 H108       21.2751  -32.3275  -36.2389 H         1 UNK         0.0828 
    109 H109       21.4889  -33.6317  -37.3934 H         1 UNK         0.0828 
    110 H110       20.4589  -33.6799  -39.8445 H         1 UNK         0.2931 
    111 H111       22.5569  -33.1668  -41.8559 H         1 UNK         0.0412 
    112 H112       22.1167  -36.8291  -40.6419 H         1 UNK         0.3472 
    113 H113       21.8250  -35.4057  -39.6789 H         1 UNK         0.3472 
    114 H114       20.9887  -33.3779  -43.7255 H         1 UNK         0.0970 
    115 H115       20.6198  -31.9972  -42.7453 H         1 UNK         0.0970 
    116 H116       18.6666  -31.7556  -41.1571 H         1 UNK         0.0612 
    117 H117       17.1624  -32.6084  -41.3634 H         1 UNK         0.0612 
@<TRIPOS>BOND
     1    1    2 1    
     2    1   62 1    
     3    1   63 1    
     4    1   64 1    
     5    2    3 2    
     6    2    4 am   BACKBONE|DICT|INTERRES
     7    4    5 1    
     8    4   65 1    
     9    5    6 1    
    10    5   25 1    
    11    5   66 1    
    12    6    7 1    
    13    6   67 1    
    14    6   68 1    
    15    7    8 1    
    16    8    9 1    
    17    8   69 1    
    18    8   70 1    
    19    9   10 ar   
    20    9   14 ar   
    21   10   11 ar   
    22   10   71 1    
    23   11   12 ar   
    24   11   61 1    
    25   12   13 ar   
    26   12   72 1    
    27   13   14 ar   
    28   13   15 1    
    29   14   73 1    
    30   15   16 1    
    31   15   74 1    
    32   15   75 1    
    33   16   17 1    
    34   17   18 1    
    35   17   76 1    
    36   17   77 1    
    37   18   19 1    
    38   18   27 1    
    39   18   78 1    
    40   19   20 am   BACKBONE|DICT|INTERRES
    41   19   79 1    
    42   20   21 2    
    43   20   22 1    
    44   22   23 1    
    45   22   24 1    
    46   22   80 1    
    47   23   81 1    
    48   23   82 1    
    49   23   83 1    
    50   24   25 am   BACKBONE|DICT|INTERRES
    51   24   84 1    
    52   25   26 2    
    53   27   28 2    
    54   27   29 am   BACKBONE|DICT|INTERRES
    55   29   30 1    
    56   29   85 1    
    57   30   31 1    
    58   30   32 1    
    59   30   86 1    
    60   31   87 1    
    61   31   88 1    
    62   31   89 1    
    63   32   33 2    
    64   32   34 am   BACKBONE|DICT|INTERRES
    65   34   35 1    
    66   34   90 1    
    67   35   36 1    
    68   35   37 1    
    69   35   91 1    
    70   36   92 1    
    71   36   93 1    
    72   36   94 1    
    73   37   38 2    
    74   37   39 am   BACKBONE|DICT|INTERRES
    75   39   40 1    
    76   39   95 1    
    77   40   41 1    
    78   40   42 1    
    79   40   96 1    
    80   41   97 1    
    81   41   98 1    
    82   41   99 1    
    83   42   43 2    
    84   42   44 am   BACKBONE|DICT|INTERRES
    85   44   45 1    
    86   44  100 1    
    87   45   46 1    
    88   45   47 1    
    89   45  101 1    
    90   46  102 1    
    91   46  103 1    
    92   46  104 1    
    93   47   48 2    
    94   47   49 am   BACKBONE|DICT|INTERRES
    95   49   50 1    
    96   49  105 1    
    97   50   51 1    
    98   50   52 1    
    99   50  106 1    
   100   51  107 1    
   101   51  108 1    
   102   51  109 1    
   103   52   53 2    
   104   52   54 am   BACKBONE|DICT|INTERRES
   105   54   55 1    
   106   54  110 1    
   107   55   56 1    
   108   55   59 1    
   109   55  111 1    
   110   56   57 am   BACKBONE|DICT|INTERRES
   111   56   58 2    
   112   57  112 1    
   113   57  113 1    
   114   59   60 1    
   115   59  114 1    
   116   59  115 1    
   117   60   61 1    
   118   61  116 1    
   119   61  117 1    
@<TRIPOS>SUBSTRUCTURE
     1 UNK         1 GROUP             0       ****    0 ROOT    
