@<TRIPOS>MOLECULE
3R8
117   119    1
SMALL
USER_CHARGES


@<TRIPOS>ATOM
      1 CA         13.9415  -25.9868  -41.7916 C.3       0 UNK        -0.2013 
      2 C          14.9879  -27.0854  -41.9029 C.2       0 UNK         0.4866 
      3 O          15.1283  -27.8868  -40.9802 O.2       0 UNK        -0.5176 
      4 N          15.7324  -27.1106  -43.0176 N.am      1 UNK        -0.4884 
      5 CA         16.7672  -28.0959  -43.3842 C.3       1 UNK         0.0853 
      6 C6         16.2308  -29.5517  -43.4969 C.3       10 UNK        -0.0849 
      7 S7         15.0974  -29.7089  -44.9240 S.3       10 UNK        -0.2776 
      8 C8         16.0464  -30.7260  -46.1119 C.3       10 UNK         0.0316 
      9 C9         17.5093  -30.3121  -46.2300 C.ar      10 UNK        -0.0863 
     10 C10        18.5165  -31.2018  -45.8450 C.ar      10 UNK        -0.1009 
     11 C11        19.8635  -30.8213  -45.8826 C.ar      10 UNK        -0.0712 
     12 C12        20.1936  -29.5434  -46.3427 C.ar      10 UNK        -0.0894 
     13 C13        19.1977  -28.6444  -46.7356 C.ar      10 UNK        -0.0745 
     14 C14        17.8576  -29.0402  -46.6927 C.ar      10 UNK        -0.0972 
     15 C15        19.5631  -27.2412  -47.1943 C.3       10 UNK         0.0209 
     16 S16        19.6134  -26.0762  -45.7954 S.3       10 UNK        -0.2568 
     17 C17        21.3363  -26.2696  -45.2239 C.3       10 UNK        -0.0983 
     18 CA         21.5615  -25.6623  -43.8161 C.3       3 UNK         0.0876 
     19 N          20.7549  -26.3530  -42.8060 N.am      3 UNK        -0.4424 
     20 C          20.2864  -25.8177  -41.6744 C.2       2 UNK         0.4918 
     21 O          20.5385  -24.6708  -41.3029 O.2       2 UNK        -0.4875 
     22 CA         19.3532  -26.7218  -40.8485 C.3       2 UNK         0.0481 
     23 CB         18.9480  -26.0980  -39.5014 C.3       2 UNK        -0.1831 
     24 N          18.1481  -27.0607  -41.6070 N.am      2 UNK        -0.4498 
     25 C          18.0724  -27.9974  -42.5631 C.2       1 UNK         0.5027 
     26 O          19.0286  -28.7128  -42.8655 O.2       1 UNK        -0.4969 
     27 C          23.0645  -25.6076  -43.4582 C.2       3 UNK         0.5005 
     28 O          23.8556  -25.1493  -44.2837 O.2       3 UNK        -0.5279 
     29 N          23.4544  -26.0883  -42.2665 N.am      4 UNK        -0.4463 
     30 CA         24.8007  -26.0979  -41.6725 C.3       4 UNK         0.0283 
     31 CB         25.4081  -24.6839  -41.5903 C.3       4 UNK        -0.1875 
     32 C          25.7845  -27.0899  -42.3166 C.2       4 UNK         0.4949 
     33 O          26.6321  -27.6260  -41.6031 O.2       4 UNK        -0.5039 
     34 N          25.6327  -27.3681  -43.6187 N.am      5 UNK        -0.4663 
     35 CA         26.4356  -28.3138  -44.4074 C.3       5 UNK         0.0242 
     36 CB         25.9447  -28.2907  -45.8640 C.3       5 UNK        -0.1982 
     37 C          26.4377  -29.7568  -43.8655 C.2       5 UNK         0.5017 
     38 O          27.4286  -30.4664  -44.0406 O.2       5 UNK        -0.5012 
     39 N          25.3457  -30.1430  -43.1963 N.am      6 UNK        -0.4439 
     40 CA         25.2048  -31.3808  -42.4293 C.3       6 UNK         0.0297 
     41 CB         24.3245  -32.3716  -43.2132 C.3       6 UNK        -0.2006 
     42 C          24.6375  -31.0639  -41.0341 C.2       6 UNK         0.4892 
     43 O          23.8499  -31.8488  -40.5033 O.2       6 UNK        -0.5089 
     44 N          25.0142  -29.8995  -40.4789 N.am      7 UNK        -0.4243 
     45 CA         24.4761  -29.2927  -39.2569 C.3       7 UNK         0.0196 
     46 CB         24.9024  -30.0990  -38.0076 C.3       7 UNK        -0.2007 
     47 C          22.9568  -29.0657  -39.3886 C.2       7 UNK         0.5020 
     48 O          22.5384  -28.2878  -40.2486 O.2       7 UNK        -0.5147 
     49 N          22.1662  -29.7639  -38.5647 N.am      8 UNK        -0.4734 
     50 CA         20.7024  -29.7770  -38.6114 C.3       8 UNK         0.0238 
     51 CB         20.1709  -30.2646  -37.2531 C.3       8 UNK        -0.1912 
     52 C          20.1243  -30.6399  -39.7528 C.2       8 UNK         0.5038 
     53 O          18.9263  -30.5383  -40.0178 O.2       8 UNK        -0.5046 
     54 N          20.9593  -31.4857  -40.3759 N.am      9 UNK        -0.4200 
     55 CA         20.5889  -32.5025  -41.3709 C.3       9 UNK         0.0839 
     56 C          19.6136  -33.5839  -40.8050 C.2       9 UNK         0.5513 
     57 N          18.8856  -34.2978  -41.6524 N.am      9 UNK        -0.7519 
     58 O          19.5489  -33.8241  -39.6004 O.2       9 UNK        -0.4960 
     59 C59        20.1582  -31.8707  -42.7286 C.3       10 UNK        -0.0876 
     60 S60        20.5252  -32.9608  -44.1500 S.3       10 UNK        -0.2414 
     61 C61        20.9854  -31.7660  -45.4520 C.3       10 UNK         0.0169 
     62 H62        14.1393  -25.3661  -40.9180 H         1 UNK         0.0903 
     63 H63        13.9293  -25.3421  -42.6703 H         1 UNK         0.0903 
     64 H64        12.9500  -26.4251  -41.6803 H         1 UNK         0.0903 
     65 H65        15.5637  -26.4051  -43.7222 H         1 UNK         0.3096 
     66 H66        17.0900  -27.7948  -44.3811 H         1 UNK         0.1121 
     67 H67        17.0431  -30.2720  -43.5996 H         1 UNK         0.0849 
     68 H68        15.7031  -29.8491  -42.5905 H         1 UNK         0.0849 
     69 H69        15.9662  -31.7715  -45.8100 H         1 UNK         0.0865 
     70 H70        15.5746  -30.6579  -47.0930 H         1 UNK         0.0865 
     71 H71        18.2448  -32.1883  -45.4974 H         1 UNK         0.1346 
     72 H72        21.2314  -29.2454  -46.3879 H         1 UNK         0.1412 
     73 H73        17.0809  -28.3471  -46.9868 H         1 UNK         0.1426 
     74 H74        20.5221  -27.2433  -47.7149 H         1 UNK         0.0716 
     75 H75        18.8272  -26.8867  -47.9176 H         1 UNK         0.0716 
     76 H76        21.6071  -27.3251  -45.2212 H         1 UNK         0.0695 
     77 H77        21.9747  -25.7885  -45.9675 H         1 UNK         0.0695 
     78 H78        21.2351  -24.6205  -43.8529 H         1 UNK         0.0983 
     79 H79        20.4505  -27.2944  -43.0351 H         1 UNK         0.3095 
     80 H80        19.9028  -27.6397  -40.6428 H         1 UNK         0.0454 
     81 H81        18.3881  -25.1717  -39.6351 H         1 UNK         0.0851 
     82 H82        18.3313  -26.7823  -38.9184 H         1 UNK         0.0851 
     83 H83        19.8281  -25.8646  -38.9006 H         1 UNK         0.0851 
     84 H84        17.3274  -26.4977  -41.4382 H         1 UNK         0.2976 
     85 H85        22.7433  -26.5240  -41.6899 H         1 UNK         0.3116 
     86 H86        24.6523  -26.4369  -40.6471 H         1 UNK         0.0646 
     87 H87        26.3388  -24.6958  -41.0214 H         1 UNK         0.0847 
     88 H88        24.7326  -23.9897  -41.0907 H         1 UNK         0.0847 
     89 H89        25.6408  -24.2776  -42.5749 H         1 UNK         0.0847 
     90 H90        24.9486  -26.8122  -44.1222 H         1 UNK         0.3040 
     91 H91        27.4690  -27.9614  -44.3846 H         1 UNK         0.1015 
     92 H92        26.0297  -27.2932  -46.2959 H         1 UNK         0.0786 
     93 H93        24.9027  -28.6035  -45.9441 H         1 UNK         0.0786 
     94 H94        26.5364  -28.9630  -46.4872 H         1 UNK         0.0786 
     95 H95        24.5882  -29.4791  -43.1123 H         1 UNK         0.3172 
     96 H96        26.1829  -31.8384  -42.2683 H         1 UNK         0.0595 
     97 H97        24.2560  -33.3304  -42.6977 H         1 UNK         0.0839 
     98 H98        24.7296  -32.5663  -44.2062 H         1 UNK         0.0839 
     99 H99        23.3098  -31.9930  -43.3315 H         1 UNK         0.0839 
    100 H100       25.6780  -29.3220  -40.9852 H         1 UNK         0.2998 
    101 H101       24.9270  -28.3033  -39.1741 H         1 UNK         0.0822 
    102 H102       25.9887  -30.1583  -37.9389 H         1 UNK         0.0787 
    103 H103       24.5538  -29.6203  -37.0914 H         1 UNK         0.0787 
    104 H104       24.5221  -31.1209  -38.0166 H         1 UNK         0.0787 
    105 H105       22.6049  -30.3910  -37.9054 H         1 UNK         0.3055 
    106 H106       20.3520  -28.7549  -38.7578 H         1 UNK         0.1106 
    107 H107       19.0803  -30.2431  -37.2304 H         1 UNK         0.0828 
    108 H108       20.4793  -31.2897  -37.0431 H         1 UNK         0.0828 
    109 H109       20.5215  -29.6321  -36.4373 H         1 UNK         0.0828 
    110 H110       21.9355  -31.5027  -40.0993 H         1 UNK         0.2931 
    111 H111       21.5228  -33.0393  -41.5410 H         1 UNK         0.0412 
    112 H112       18.2685  -35.0126  -41.2998 H         1 UNK         0.3472 
    113 H113       18.9690  -34.1398  -42.6460 H         1 UNK         0.3472 
    114 H114       20.6924  -30.9317  -42.8829 H         1 UNK         0.0970 
    115 H115       19.0995  -31.6055  -42.7249 H         1 UNK         0.0970 
    116 H116       21.3189  -32.3239  -46.3275 H         1 UNK         0.0612 
    117 H117       21.8462  -31.1927  -45.1047 H         1 UNK         0.0612 
@<TRIPOS>BOND
     1    1    2 1    
     2    1   62 1    
     3    1   63 1    
     4    1   64 1    
     5    2    3 2    
     6    2    4 am   BACKBONE|DICT|INTERRES
     7    4    5 1    
     8    4   65 1    
     9    5    6 1    
    10    5   25 1    
    11    5   66 1    
    12    6    7 1    
    13    6   67 1    
    14    6   68 1    
    15    7    8 1    
    16    8    9 1    
    17    8   69 1    
    18    8   70 1    
    19    9   10 ar   
    20    9   14 ar   
    21   10   11 ar   
    22   10   71 1    
    23   11   12 ar   
    24   11   61 1    
    25   12   13 ar   
    26   12   72 1    
    27   13   14 ar   
    28   13   15 1    
    29   14   73 1    
    30   15   16 1    
    31   15   74 1    
    32   15   75 1    
    33   16   17 1    
    34   17   18 1    
    35   17   76 1    
    36   17   77 1    
    37   18   19 1    
    38   18   27 1    
    39   18   78 1    
    40   19   20 am   BACKBONE|DICT|INTERRES
    41   19   79 1    
    42   20   21 2    
    43   20   22 1    
    44   22   23 1    
    45   22   24 1    
    46   22   80 1    
    47   23   81 1    
    48   23   82 1    
    49   23   83 1    
    50   24   25 am   BACKBONE|DICT|INTERRES
    51   24   84 1    
    52   25   26 2    
    53   27   28 2    
    54   27   29 am   BACKBONE|DICT|INTERRES
    55   29   30 1    
    56   29   85 1    
    57   30   31 1    
    58   30   32 1    
    59   30   86 1    
    60   31   87 1    
    61   31   88 1    
    62   31   89 1    
    63   32   33 2    
    64   32   34 am   BACKBONE|DICT|INTERRES
    65   34   35 1    
    66   34   90 1    
    67   35   36 1    
    68   35   37 1    
    69   35   91 1    
    70   36   92 1    
    71   36   93 1    
    72   36   94 1    
    73   37   38 2    
    74   37   39 am   BACKBONE|DICT|INTERRES
    75   39   40 1    
    76   39   95 1    
    77   40   41 1    
    78   40   42 1    
    79   40   96 1    
    80   41   97 1    
    81   41   98 1    
    82   41   99 1    
    83   42   43 2    
    84   42   44 am   BACKBONE|DICT|INTERRES
    85   44   45 1    
    86   44  100 1    
    87   45   46 1    
    88   45   47 1    
    89   45  101 1    
    90   46  102 1    
    91   46  103 1    
    92   46  104 1    
    93   47   48 2    
    94   47   49 am   BACKBONE|DICT|INTERRES
    95   49   50 1    
    96   49  105 1    
    97   50   51 1    
    98   50   52 1    
    99   50  106 1    
   100   51  107 1    
   101   51  108 1    
   102   51  109 1    
   103   52   53 2    
   104   52   54 am   BACKBONE|DICT|INTERRES
   105   54   55 1    
   106   54  110 1    
   107   55   56 1    
   108   55   59 1    
   109   55  111 1    
   110   56   57 am   BACKBONE|DICT|INTERRES
   111   56   58 2    
   112   57  112 1    
   113   57  113 1    
   114   59   60 1    
   115   59  114 1    
   116   59  115 1    
   117   60   61 1    
   118   61  116 1    
   119   61  117 1    
@<TRIPOS>SUBSTRUCTURE
     1 UNK         1 GROUP             0       ****    0 ROOT    
