@<TRIPOS>MOLECULE
3R8
117   119    1
SMALL
USER_CHARGES


@<TRIPOS>ATOM
      1 CA         16.9475  -26.3336  -49.2139 C.3       0 UNK        -0.2013 
      2 C          17.9723  -26.8911  -48.2372 C.2       0 UNK         0.4866 
      3 O          19.1567  -26.9614  -48.5671 O.2       0 UNK        -0.5176 
      4 N          17.5239  -27.2951  -47.0425 N.am      1 UNK        -0.4884 
      5 CA         18.3642  -27.8242  -45.9618 C.3       1 UNK         0.0853 
      6 C6         17.5189  -28.4810  -44.8388 C.3       10 UNK        -0.0849 
      7 S7         16.3817  -29.7642  -45.4616 S.3       10 UNK        -0.2776 
      8 C8         15.3715  -30.1060  -43.9868 C.3       10 UNK         0.0316 
      9 C9         16.1846  -30.7703  -42.8858 C.ar      10 UNK        -0.0863 
     10 C10        16.6647  -32.0720  -43.0589 C.ar      10 UNK        -0.1009 
     11 C11        17.4196  -32.6877  -42.0573 C.ar      10 UNK        -0.0712 
     12 C12        17.6762  -32.0005  -40.8678 C.ar      10 UNK        -0.0894 
     13 C13        17.1929  -30.7029  -40.6786 C.ar      10 UNK        -0.0745 
     14 C14        16.4492  -30.0908  -41.6925 C.ar      10 UNK        -0.0972 
     15 C15        17.4663  -29.9735  -39.3710 C.3       10 UNK         0.0209 
     16 S16        19.1906  -29.4033  -39.2556 S.3       10 UNK        -0.2568 
     17 C17        19.1890  -28.0303  -40.4540 C.3       10 UNK        -0.0983 
     18 CA         20.6204  -27.5742  -40.8317 C.3       3 UNK         0.0876 
     19 N          20.6326  -26.9950  -42.1738 N.am      3 UNK        -0.4424 
     20 C          21.7162  -26.7951  -42.9330 C.2       2 UNK         0.4918 
     21 O          22.8614  -27.1110  -42.6072 O.2       2 UNK        -0.4875 
     22 CA         21.4289  -26.1713  -44.3064 C.3       2 UNK         0.0481 
     23 CB         22.6851  -25.9373  -45.1647 C.3       2 UNK        -0.1831 
     24 N          20.4934  -27.0416  -45.0210 N.am      2 UNK        -0.4498 
     25 C          19.2454  -26.7075  -45.3659 C.2       1 UNK         0.5027 
     26 O          18.7599  -25.5881  -45.1807 O.2       1 UNK        -0.4969 
     27 C          21.2082  -26.5965  -39.7895 C.2       3 UNK         0.5005 
     28 O          21.3032  -25.3933  -40.0506 O.2       3 UNK        -0.5279 
     29 N          21.5878  -27.1338  -38.6215 N.am      4 UNK        -0.4463 
     30 CA         22.1721  -26.4769  -37.4406 C.3       4 UNK         0.0283 
     31 CB         21.2571  -25.3696  -36.8821 C.3       4 UNK        -0.1875 
     32 C          23.6075  -25.9657  -37.6535 C.2       4 UNK         0.4949 
     33 O          24.4598  -26.1931  -36.7950 O.2       4 UNK        -0.5039 
     34 N          23.8658  -25.3274  -38.8011 N.am      5 UNK        -0.4663 
     35 CA         25.2019  -24.9572  -39.2780 C.3       5 UNK         0.0242 
     36 CB         25.0573  -23.9669  -40.4447 C.3       5 UNK        -0.1982 
     37 C          26.0321  -26.1799  -39.7129 C.2       5 UNK         0.5017 
     38 O          27.2618  -26.1234  -39.6799 O.2       5 UNK        -0.5012 
     39 N          25.3418  -27.2557  -40.1024 N.am      6 UNK        -0.4439 
     40 CA         25.8648  -28.5521  -40.5091 C.3       6 UNK         0.0297 
     41 CB         26.4043  -28.4653  -41.9517 C.3       6 UNK        -0.2006 
     42 C          24.7190  -29.5684  -40.3975 C.2       6 UNK         0.4892 
     43 O          23.5836  -29.1854  -40.1050 O.2       6 UNK        -0.5089 
     44 N          25.0184  -30.8397  -40.6859 N.am      7 UNK        -0.4243 
     45 CA         24.0302  -31.9114  -40.8624 C.3       7 UNK         0.0196 
     46 CB         24.6067  -33.2222  -40.2957 C.3       7 UNK        -0.2007 
     47 C          23.6203  -32.0456  -42.3449 C.2       7 UNK         0.5020 
     48 O          23.3634  -33.1528  -42.8203 O.2       7 UNK        -0.5147 
     49 N          23.6061  -30.9208  -43.0706 N.am      8 UNK        -0.4734 
     50 CA         23.3558  -30.8367  -44.5066 C.3       8 UNK         0.0238 
     51 CB         24.0906  -29.6051  -45.0599 C.3       8 UNK        -0.1912 
     52 C          21.8495  -30.8262  -44.8112 C.2       8 UNK         0.5038 
     53 O          21.2895  -29.7821  -45.1570 O.2       8 UNK        -0.5046 
     54 N          21.2293  -32.0008  -44.6623 N.am      9 UNK        -0.4200 
     55 CA         19.8529  -32.3026  -45.0752 C.3       9 UNK         0.0839 
     56 C          19.6707  -32.1427  -46.6106 C.2       9 UNK         0.5513 
     57 N          18.5684  -31.5634  -47.0595 N.am      9 UNK        -0.7519 
     58 O          20.5044  -32.5849  -47.3989 O.2       9 UNK        -0.4960 
     59 C59        19.4367  -33.7354  -44.6465 C.3       10 UNK        -0.0876 
     60 S60        19.6685  -34.0759  -42.8662 S.3       10 UNK        -0.2414 
     61 C61        17.9569  -34.0960  -42.2507 C.3       10 UNK         0.0169 
     62 H62        15.9402  -26.3421  -48.7977 H         1 UNK         0.0903 
     63 H63        17.1982  -25.3056  -49.4741 H         1 UNK         0.0903 
     64 H64        16.9409  -26.9252  -50.1290 H         1 UNK         0.0903 
     65 H65        16.5414  -27.2131  -46.8236 H         1 UNK         0.3096 
     66 H66        19.0180  -28.5866  -46.3932 H         1 UNK         0.1121 
     67 H67        16.9295  -27.7288  -44.3100 H         1 UNK         0.0849 
     68 H68        18.1729  -28.9405  -44.0943 H         1 UNK         0.0849 
     69 H69        14.9148  -29.1791  -43.6361 H         1 UNK         0.0865 
     70 H70        14.5476  -30.7636  -44.2677 H         1 UNK         0.0865 
     71 H71        16.4593  -32.5992  -43.9804 H         1 UNK         0.1346 
     72 H72        18.2595  -32.4732  -40.0893 H         1 UNK         0.1412 
     73 H73        16.0758  -29.0856  -41.5509 H         1 UNK         0.1426 
     74 H74        17.2622  -30.6454  -38.5361 H         1 UNK         0.0716 
     75 H75        16.7935  -29.1232  -39.2489 H         1 UNK         0.0716 
     76 H76        18.5864  -27.2052  -40.0686 H         1 UNK         0.0695 
     77 H77        18.6737  -28.3869  -41.3467 H         1 UNK         0.0695 
     78 H78        21.2658  -28.4534  -40.8734 H         1 UNK         0.0983 
     79 H79        19.7466  -26.6588  -42.5189 H         1 UNK         0.3095 
     80 H80        20.9853  -25.1933  -44.1093 H         1 UNK         0.0454 
     81 H81        23.1215  -26.8691  -45.5173 H         1 UNK         0.0851 
     82 H82        23.4526  -25.4001  -44.6060 H         1 UNK         0.0851 
     83 H83        22.4470  -25.3377  -46.0431 H         1 UNK         0.0851 
     84 H84        20.7985  -28.0074  -45.1461 H         1 UNK         0.2976 
     85 H85        21.4918  -28.1382  -38.5373 H         1 UNK         0.3116 
     86 H86        22.2318  -27.2575  -36.6803 H         1 UNK         0.0646 
     87 H87        21.1683  -24.5246  -37.5653 H         1 UNK         0.0847 
     88 H88        21.6502  -24.9813  -35.9417 H         1 UNK         0.0847 
     89 H89        20.2542  -25.7469  -36.6828 H         1 UNK         0.0847 
     90 H90        23.0812  -25.1718  -39.4305 H         1 UNK         0.3040 
     91 H91        25.7377  -24.4643  -38.4636 H         1 UNK         0.1015 
     92 H92        24.5164  -24.4089  -41.2831 H         1 UNK         0.0786 
     93 H93        26.0347  -23.6537  -40.8147 H         1 UNK         0.0786 
     94 H94        24.5238  -23.0671  -40.1378 H         1 UNK         0.0786 
     95 H95        24.3291  -27.2288  -40.0658 H         1 UNK         0.3172 
     96 H96        26.6617  -28.8514  -39.8256 H         1 UNK         0.0595 
     97 H97        26.8006  -29.4220  -42.2931 H         1 UNK         0.0839 
     98 H98        27.2153  -27.7412  -42.0297 H         1 UNK         0.0839 
     99 H99        25.6242  -28.1636  -42.6521 H         1 UNK         0.0839 
    100 H100       25.9715  -31.0692  -40.9312 H         1 UNK         0.2998 
    101 H101       23.1222  -31.6776  -40.3020 H         1 UNK         0.0822 
    102 H102       23.8729  -34.0278  -40.3466 H         1 UNK         0.0787 
    103 H103       25.4887  -33.5476  -40.8487 H         1 UNK         0.0787 
    104 H104       24.8884  -33.1107  -39.2485 H         1 UNK         0.0787 
    105 H105       23.7599  -30.0449  -42.5909 H         1 UNK         0.3055 
    106 H106       23.7787  -31.7152  -45.0002 H         1 UNK         0.1106 
    107 H107       23.8431  -29.4306  -46.1079 H         1 UNK         0.0828 
    108 H108       23.8324  -28.7081  -44.5010 H         1 UNK         0.0828 
    109 H109       25.1716  -29.7314  -44.9987 H         1 UNK         0.0828 
    110 H110       21.7644  -32.7780  -44.2954 H         1 UNK         0.2931 
    111 H111       19.2005  -31.5873  -44.5700 H         1 UNK         0.0412 
    112 H112       17.8747  -31.1862  -46.4280 H         1 UNK         0.3472 
    113 H113       18.4352  -31.4759  -48.0545 H         1 UNK         0.3472 
    114 H114       20.0211  -34.4771  -45.1949 H         1 UNK         0.0970 
    115 H115       18.3966  -33.9224  -44.9188 H         1 UNK         0.0970 
    116 H116       17.9366  -34.6272  -41.2979 H         1 UNK         0.0612 
    117 H117       17.3201  -34.6672  -42.9278 H         1 UNK         0.0612 
@<TRIPOS>BOND
     1    1    2 1    
     2    1   62 1    
     3    1   63 1    
     4    1   64 1    
     5    2    3 2    
     6    2    4 am   BACKBONE|DICT|INTERRES
     7    4    5 1    
     8    4   65 1    
     9    5    6 1    
    10    5   25 1    
    11    5   66 1    
    12    6    7 1    
    13    6   67 1    
    14    6   68 1    
    15    7    8 1    
    16    8    9 1    
    17    8   69 1    
    18    8   70 1    
    19    9   10 ar   
    20    9   14 ar   
    21   10   11 ar   
    22   10   71 1    
    23   11   12 ar   
    24   11   61 1    
    25   12   13 ar   
    26   12   72 1    
    27   13   14 ar   
    28   13   15 1    
    29   14   73 1    
    30   15   16 1    
    31   15   74 1    
    32   15   75 1    
    33   16   17 1    
    34   17   18 1    
    35   17   76 1    
    36   17   77 1    
    37   18   19 1    
    38   18   27 1    
    39   18   78 1    
    40   19   20 am   BACKBONE|DICT|INTERRES
    41   19   79 1    
    42   20   21 2    
    43   20   22 1    
    44   22   23 1    
    45   22   24 1    
    46   22   80 1    
    47   23   81 1    
    48   23   82 1    
    49   23   83 1    
    50   24   25 am   BACKBONE|DICT|INTERRES
    51   24   84 1    
    52   25   26 2    
    53   27   28 2    
    54   27   29 am   BACKBONE|DICT|INTERRES
    55   29   30 1    
    56   29   85 1    
    57   30   31 1    
    58   30   32 1    
    59   30   86 1    
    60   31   87 1    
    61   31   88 1    
    62   31   89 1    
    63   32   33 2    
    64   32   34 am   BACKBONE|DICT|INTERRES
    65   34   35 1    
    66   34   90 1    
    67   35   36 1    
    68   35   37 1    
    69   35   91 1    
    70   36   92 1    
    71   36   93 1    
    72   36   94 1    
    73   37   38 2    
    74   37   39 am   BACKBONE|DICT|INTERRES
    75   39   40 1    
    76   39   95 1    
    77   40   41 1    
    78   40   42 1    
    79   40   96 1    
    80   41   97 1    
    81   41   98 1    
    82   41   99 1    
    83   42   43 2    
    84   42   44 am   BACKBONE|DICT|INTERRES
    85   44   45 1    
    86   44  100 1    
    87   45   46 1    
    88   45   47 1    
    89   45  101 1    
    90   46  102 1    
    91   46  103 1    
    92   46  104 1    
    93   47   48 2    
    94   47   49 am   BACKBONE|DICT|INTERRES
    95   49   50 1    
    96   49  105 1    
    97   50   51 1    
    98   50   52 1    
    99   50  106 1    
   100   51  107 1    
   101   51  108 1    
   102   51  109 1    
   103   52   53 2    
   104   52   54 am   BACKBONE|DICT|INTERRES
   105   54   55 1    
   106   54  110 1    
   107   55   56 1    
   108   55   59 1    
   109   55  111 1    
   110   56   57 am   BACKBONE|DICT|INTERRES
   111   56   58 2    
   112   57  112 1    
   113   57  113 1    
   114   59   60 1    
   115   59  114 1    
   116   59  115 1    
   117   60   61 1    
   118   61  116 1    
   119   61  117 1    
@<TRIPOS>SUBSTRUCTURE
     1 UNK         1 GROUP             0       ****    0 ROOT    
