@<TRIPOS>MOLECULE
3R8
117   119    1
SMALL
USER_CHARGES


@<TRIPOS>ATOM
      1 CA         14.0557  -24.0620  -41.9324 C.3       0 UNK        -0.2013 
      2 C          15.2490  -24.7626  -42.5638 C.2       0 UNK         0.4866 
      3 O          15.2435  -25.0193  -43.7688 O.2       0 UNK        -0.5176 
      4 N          16.2780  -25.0742  -41.7645 N.am      1 UNK        -0.4884 
      5 CA         17.5206  -25.7143  -42.2057 C.3       1 UNK         0.0853 
      6 C6         18.1790  -26.5139  -41.0499 C.3       10 UNK        -0.0849 
      7 S7         19.3840  -27.7360  -41.6633 S.3       10 UNK        -0.2776 
      8 C8         18.2983  -29.1506  -42.0359 C.3       10 UNK         0.0316 
      9 C9         18.9019  -30.0047  -43.1389 C.ar      10 UNK        -0.0863 
     10 C10        19.4208  -31.2717  -42.8632 C.ar      10 UNK        -0.1009 
     11 C11        20.0021  -32.0340  -43.8813 C.ar      10 UNK        -0.0712 
     12 C12        20.0747  -31.5137  -45.1777 C.ar      10 UNK        -0.0894 
     13 C13        19.5546  -30.2482  -45.4713 C.ar      10 UNK        -0.0745 
     14 C14        18.9481  -29.5122  -44.4457 C.ar      10 UNK        -0.0972 
     15 C15        19.6476  -29.7233  -46.9062 C.3       10 UNK         0.0209 
     16 S16        19.5891  -27.9040  -47.0838 S.3       10 UNK        -0.2568 
     17 C17        21.1239  -27.4114  -46.2314 C.3       10 UNK        -0.0983 
     18 CA         21.3491  -25.8776  -46.2597 C.3       3 UNK         0.0876 
     19 N          20.2436  -25.1609  -45.6146 N.am      3 UNK        -0.4424 
     20 C          20.0325  -23.8394  -45.6652 C.2       2 UNK         0.4918 
     21 O          20.7434  -23.0610  -46.3030 O.2       2 UNK        -0.4875 
     22 CA         18.8076  -23.2826  -44.9111 C.3       2 UNK         0.0481 
     23 CB         17.8041  -22.6626  -45.8984 C.3       2 UNK        -0.1831 
     24 N          18.1036  -24.2804  -44.0989 N.am      2 UNK        -0.4498 
     25 C          18.4496  -24.6686  -42.8641 C.2       1 UNK         0.5027 
     26 O          19.4115  -24.2076  -42.2476 O.2       1 UNK        -0.4969 
     27 C          22.7141  -25.5284  -45.6266 C.2       3 UNK         0.5005 
     28 O          22.7746  -25.0523  -44.4900 O.2       3 UNK        -0.5279 
     29 N          23.7950  -25.8118  -46.3685 N.am      4 UNK        -0.4463 
     30 CA         25.1796  -25.6835  -45.8979 C.3       4 UNK         0.0283 
     31 CB         26.1322  -25.7272  -47.1039 C.3       4 UNK        -0.1875 
     32 C          25.5710  -26.7582  -44.8643 C.2       4 UNK         0.4949 
     33 O          26.4934  -26.5324  -44.0803 O.2       4 UNK        -0.5039 
     34 N          24.8740  -27.9028  -44.8832 N.am      5 UNK        -0.4663 
     35 CA         25.0013  -28.9790  -43.9003 C.3       5 UNK         0.0242 
     36 CB         24.2955  -30.2340  -44.4440 C.3       5 UNK        -0.1982 
     37 C          24.3923  -28.5781  -42.5459 C.2       5 UNK         0.5017 
     38 O          23.4097  -27.8344  -42.5126 O.2       5 UNK        -0.5012 
     39 N          24.9587  -29.1140  -41.4576 N.am      6 UNK        -0.4439 
     40 CA         24.3897  -29.0203  -40.1115 C.3       6 UNK         0.0297 
     41 CB         25.4552  -29.4281  -39.0804 C.3       6 UNK        -0.2006 
     42 C          23.1532  -29.9250  -39.9919 C.2       6 UNK         0.4892 
     43 O          23.1288  -30.9947  -40.6000 O.2       6 UNK        -0.5089 
     44 N          22.1774  -29.5094  -39.1743 N.am      7 UNK        -0.4243 
     45 CA         20.8781  -30.1738  -38.9965 C.3       7 UNK         0.0196 
     46 CB         19.9711  -29.2701  -38.1443 C.3       7 UNK        -0.2007 
     47 C          20.9264  -31.5992  -38.4075 C.2       7 UNK         0.5020 
     48 O          19.9023  -32.2824  -38.4171 O.2       7 UNK        -0.5147 
     49 N          22.0958  -32.0336  -37.9163 N.am      8 UNK        -0.4734 
     50 CA         22.3585  -33.3551  -37.3354 C.3       8 UNK         0.0238 
     51 CB         23.8150  -33.4034  -36.8452 C.3       8 UNK        -0.1912 
     52 C          22.0662  -34.5484  -38.2669 C.2       8 UNK         0.5038 
     53 O          21.7994  -35.6395  -37.7608 O.2       8 UNK        -0.5046 
     54 N          22.1004  -34.3316  -39.5897 N.am      9 UNK        -0.4200 
     55 CA         21.6447  -35.3024  -40.5992 C.3       9 UNK         0.0839 
     56 C          20.1009  -35.5055  -40.6604 C.2       9 UNK         0.5513 
     57 N          19.2830  -34.6859  -40.0094 N.am      9 UNK        -0.7519 
     58 O          19.6358  -36.4384  -41.3099 O.2       9 UNK        -0.4960 
     59 C59        22.2590  -35.0378  -42.0031 C.3       10 UNK        -0.0876 
     60 S60        22.0714  -33.3240  -42.6015 S.3       10 UNK        -0.2414 
     61 C61        20.5396  -33.4225  -43.5729 C.3       10 UNK         0.0169 
     62 H62        13.9014  -23.0901  -42.4004 H         1 UNK         0.0903 
     63 H63        13.1537  -24.6562  -42.0755 H         1 UNK         0.0903 
     64 H64        14.1928  -23.9058  -40.8625 H         1 UNK         0.0903 
     65 H65        16.2437  -24.8099  -40.7895 H         1 UNK         0.3096 
     66 H66        17.2579  -26.4357  -42.9830 H         1 UNK         0.1121 
     67 H67        17.4194  -27.0500  -40.4782 H         1 UNK         0.0849 
     68 H68        18.6715  -25.8518  -40.3353 H         1 UNK         0.0849 
     69 H69        18.1390  -29.7328  -41.1269 H         1 UNK         0.0865 
     70 H70        17.3153  -28.8029  -42.3562 H         1 UNK         0.0865 
     71 H71        19.3825  -31.6675  -41.8572 H         1 UNK         0.1346 
     72 H72        20.5328  -32.0998  -45.9628 H         1 UNK         0.1412 
     73 H73        18.5290  -28.5373  -44.6485 H         1 UNK         0.1426 
     74 H74        18.8241  -30.1499  -47.4800 H         1 UNK         0.0716 
     75 H75        20.5667  -30.0815  -47.3727 H         1 UNK         0.0716 
     76 H76        21.9492  -27.9360  -46.7162 H         1 UNK         0.0695 
     77 H77        21.0934  -27.7728  -45.2011 H         1 UNK         0.0695 
     78 H78        21.3804  -25.5512  -47.3018 H         1 UNK         0.0983 
     79 H79        19.6169  -25.7222  -45.0605 H         1 UNK         0.3095 
     80 H80        19.1673  -22.4880  -44.2542 H         1 UNK         0.0454 
     81 H81        17.4135  -23.4045  -46.5960 H         1 UNK         0.0851 
     82 H82        18.2707  -21.8736  -46.4897 H         1 UNK         0.0851 
     83 H83        16.9584  -22.2146  -45.3764 H         1 UNK         0.0851 
     84 H84        17.2415  -24.6533  -44.4819 H         1 UNK         0.2976 
     85 H85        23.6677  -26.1836  -47.2997 H         1 UNK         0.3116 
     86 H86        25.2877  -24.7098  -45.4150 H         1 UNK         0.0646 
     87 H87        26.0686  -26.6765  -47.6372 H         1 UNK         0.0847 
     88 H88        27.1684  -25.6027  -46.7858 H         1 UNK         0.0847 
     89 H89        25.9157  -24.9270  -47.8118 H         1 UNK         0.0847 
     90 H90        24.1155  -27.9835  -45.5419 H         1 UNK         0.3040 
     91 H91        26.0628  -29.1982  -43.7635 H         1 UNK         0.1015 
     92 H92        23.2291  -30.0620  -44.6007 H         1 UNK         0.0786 
     93 H93        24.3851  -31.0671  -43.7448 H         1 UNK         0.0786 
     94 H94        24.7281  -30.5578  -45.3907 H         1 UNK         0.0786 
     95 H95        25.7277  -29.7573  -41.5759 H         1 UNK         0.3172 
     96 H96        24.0965  -27.9848  -39.9248 H         1 UNK         0.0595 
     97 H97        25.0718  -29.3349  -38.0634 H         1 UNK         0.0839 
     98 H98        26.3388  -28.7933  -39.1500 H         1 UNK         0.0839 
     99 H99        25.7734  -30.4631  -39.2143 H         1 UNK         0.0839 
    100 H100       22.2969  -28.6301  -38.6918 H         1 UNK         0.2998 
    101 H101       20.4303  -30.2657  -39.9879 H         1 UNK         0.0822 
    102 H102       18.9752  -29.7026  -38.0376 H         1 UNK         0.0787 
    103 H103       20.3740  -29.1265  -37.1410 H         1 UNK         0.0787 
    104 H104       19.8447  -28.2884  -38.6012 H         1 UNK         0.0787 
    105 H105       22.8826  -31.4044  -37.9769 H         1 UNK         0.3055 
    106 H106       21.7005  -33.4637  -36.4705 H         1 UNK         0.1106 
    107 H107       24.0403  -34.3653  -36.3819 H         1 UNK         0.0828 
    108 H108       24.5210  -33.2636  -37.6650 H         1 UNK         0.0828 
    109 H109       24.0097  -32.6343  -36.0976 H         1 UNK         0.0828 
    110 H110       22.3195  -33.4046  -39.9312 H         1 UNK         0.2931 
    111 H111       22.0343  -36.2735  -40.2870 H         1 UNK         0.0412 
    112 H112       19.6374  -33.9063  -39.4641 H         1 UNK         0.3472 
    113 H113       18.2896  -34.8449  -40.0601 H         1 UNK         0.3472 
    114 H114       21.8658  -35.7336  -42.7469 H         1 UNK         0.0970 
    115 H115       23.3296  -35.2427  -41.9607 H         1 UNK         0.0970 
    116 H116       19.7800  -33.9777  -43.0233 H         1 UNK         0.0612 
    117 H117       20.7315  -33.9821  -44.4895 H         1 UNK         0.0612 
@<TRIPOS>BOND
     1    1    2 1    
     2    1   62 1    
     3    1   63 1    
     4    1   64 1    
     5    2    3 2    
     6    2    4 am   BACKBONE|DICT|INTERRES
     7    4    5 1    
     8    4   65 1    
     9    5    6 1    
    10    5   25 1    
    11    5   66 1    
    12    6    7 1    
    13    6   67 1    
    14    6   68 1    
    15    7    8 1    
    16    8    9 1    
    17    8   69 1    
    18    8   70 1    
    19    9   10 ar   
    20    9   14 ar   
    21   10   11 ar   
    22   10   71 1    
    23   11   12 ar   
    24   11   61 1    
    25   12   13 ar   
    26   12   72 1    
    27   13   14 ar   
    28   13   15 1    
    29   14   73 1    
    30   15   16 1    
    31   15   74 1    
    32   15   75 1    
    33   16   17 1    
    34   17   18 1    
    35   17   76 1    
    36   17   77 1    
    37   18   19 1    
    38   18   27 1    
    39   18   78 1    
    40   19   20 am   BACKBONE|DICT|INTERRES
    41   19   79 1    
    42   20   21 2    
    43   20   22 1    
    44   22   23 1    
    45   22   24 1    
    46   22   80 1    
    47   23   81 1    
    48   23   82 1    
    49   23   83 1    
    50   24   25 am   BACKBONE|DICT|INTERRES
    51   24   84 1    
    52   25   26 2    
    53   27   28 2    
    54   27   29 am   BACKBONE|DICT|INTERRES
    55   29   30 1    
    56   29   85 1    
    57   30   31 1    
    58   30   32 1    
    59   30   86 1    
    60   31   87 1    
    61   31   88 1    
    62   31   89 1    
    63   32   33 2    
    64   32   34 am   BACKBONE|DICT|INTERRES
    65   34   35 1    
    66   34   90 1    
    67   35   36 1    
    68   35   37 1    
    69   35   91 1    
    70   36   92 1    
    71   36   93 1    
    72   36   94 1    
    73   37   38 2    
    74   37   39 am   BACKBONE|DICT|INTERRES
    75   39   40 1    
    76   39   95 1    
    77   40   41 1    
    78   40   42 1    
    79   40   96 1    
    80   41   97 1    
    81   41   98 1    
    82   41   99 1    
    83   42   43 2    
    84   42   44 am   BACKBONE|DICT|INTERRES
    85   44   45 1    
    86   44  100 1    
    87   45   46 1    
    88   45   47 1    
    89   45  101 1    
    90   46  102 1    
    91   46  103 1    
    92   46  104 1    
    93   47   48 2    
    94   47   49 am   BACKBONE|DICT|INTERRES
    95   49   50 1    
    96   49  105 1    
    97   50   51 1    
    98   50   52 1    
    99   50  106 1    
   100   51  107 1    
   101   51  108 1    
   102   51  109 1    
   103   52   53 2    
   104   52   54 am   BACKBONE|DICT|INTERRES
   105   54   55 1    
   106   54  110 1    
   107   55   56 1    
   108   55   59 1    
   109   55  111 1    
   110   56   57 am   BACKBONE|DICT|INTERRES
   111   56   58 2    
   112   57  112 1    
   113   57  113 1    
   114   59   60 1    
   115   59  114 1    
   116   59  115 1    
   117   60   61 1    
   118   61  116 1    
   119   61  117 1    
@<TRIPOS>SUBSTRUCTURE
     1 UNK         1 GROUP             0       ****    0 ROOT    
