@<TRIPOS>MOLECULE
3R8
117   119    1
SMALL
USER_CHARGES


@<TRIPOS>ATOM
      1 CA         19.9518  -28.0375  -41.7241 C.3       0 UNK        -0.2013 
      2 C          19.3055  -26.7523  -42.2209 C.2       0 UNK         0.4866 
      3 O          19.6792  -25.6725  -41.7661 O.2       0 UNK        -0.5176 
      4 N          18.3260  -26.8618  -43.1295 N.am      1 UNK        -0.4884 
      5 CA         17.5552  -25.7341  -43.6639 C.3       1 UNK         0.0853 
      6 C6         16.1045  -26.1425  -44.0424 C.3       10 UNK        -0.0849 
      7 S7         15.9099  -27.3847  -45.3753 S.3       10 UNK        -0.2776 
      8 C8         15.9578  -28.9791  -44.4849 C.3       10 UNK         0.0316 
      9 C9         17.3244  -29.6703  -44.4427 C.ar      10 UNK        -0.0863 
     10 C10        17.5251  -30.6802  -43.4977 C.ar      10 UNK        -0.1009 
     11 C11        18.7143  -31.4133  -43.4699 C.ar      10 UNK        -0.0712 
     12 C12        19.7305  -31.1127  -44.3819 C.ar      10 UNK        -0.0894 
     13 C13        19.5563  -30.0988  -45.3301 C.ar      10 UNK        -0.0745 
     14 C14        18.3482  -29.3932  -45.3611 C.ar      10 UNK        -0.0972 
     15 C15        20.6169  -29.8238  -46.3941 C.3       10 UNK         0.0209 
     16 S16        22.3270  -29.6889  -45.7652 S.3       10 UNK        -0.2568 
     17 C17        22.2870  -28.2375  -44.6622 C.3       10 UNK        -0.0983 
     18 CA         22.3696  -26.8932  -45.4309 C.3       3 UNK         0.0876 
     19 N          21.0470  -26.5230  -45.9305 N.am      3 UNK        -0.4424 
     20 C          20.7768  -25.6238  -46.8833 C.2       2 UNK         0.4918 
     21 O          21.6317  -25.0868  -47.5884 O.2       2 UNK        -0.4875 
     22 CA         19.2907  -25.2691  -47.0801 C.3       2 UNK         0.0481 
     23 CB         18.7462  -25.9355  -48.3538 C.3       2 UNK        -0.1831 
     24 N          18.4639  -25.6783  -45.9392 N.am      2 UNK        -0.4498 
     25 C          18.3330  -25.0111  -44.7847 C.2       1 UNK         0.5027 
     26 O          18.8185  -23.8987  -44.5781 O.2       1 UNK        -0.4969 
     27 C          22.9395  -25.7551  -44.5519 C.2       3 UNK         0.5005 
     28 O          22.2144  -24.8250  -44.1875 O.2       3 UNK        -0.5279 
     29 N          24.2362  -25.8379  -44.2235 N.am      4 UNK        -0.4463 
     30 CA         24.9982  -24.8323  -43.4704 C.3       4 UNK         0.0283 
     31 CB         26.5014  -25.0786  -43.6996 C.3       4 UNK        -0.1875 
     32 C          24.6334  -24.7755  -41.9705 C.2       4 UNK         0.4949 
     33 O          25.4879  -25.0186  -41.1184 O.2       4 UNK        -0.5039 
     34 N          23.3591  -24.4792  -41.6818 N.am      5 UNK        -0.4663 
     35 CA         22.6999  -24.3293  -40.3736 C.3       5 UNK         0.0242 
     36 CB         23.3633  -23.2105  -39.5445 C.3       5 UNK        -0.1982 
     37 C          22.5551  -25.6254  -39.5506 C.2       5 UNK         0.5017 
     38 O          21.8302  -25.6211  -38.5545 O.2       5 UNK        -0.5012 
     39 N          23.2168  -26.7060  -39.9703 N.am      6 UNK        -0.4439 
     40 CA         23.1866  -28.0359  -39.3802 C.3       6 UNK         0.0297 
     41 CB         24.0816  -28.0827  -38.1274 C.3       6 UNK        -0.2006 
     42 C          23.6651  -29.0336  -40.4395 C.2       6 UNK         0.4892 
     43 O          24.3309  -28.6389  -41.4012 O.2       6 UNK        -0.5089 
     44 N          23.3221  -30.3046  -40.2290 N.am      7 UNK        -0.4243 
     45 CA         23.6688  -31.4562  -41.0541 C.3       7 UNK         0.0196 
     46 CB         22.9076  -31.4066  -42.3942 C.3       7 UNK        -0.2007 
     47 C          23.3179  -32.7179  -40.2565 C.2       7 UNK         0.5020 
     48 O          22.7377  -32.6172  -39.1703 O.2       7 UNK        -0.5147 
     49 N          23.6340  -33.8933  -40.8130 N.am      8 UNK        -0.4734 
     50 CA         23.2865  -35.2091  -40.2606 C.3       8 UNK         0.0238 
     51 CB         24.2448  -36.2641  -40.8457 C.3       8 UNK        -0.1912 
     52 C          21.8001  -35.5619  -40.4902 C.2       8 UNK         0.5038 
     53 O          21.4933  -36.6022  -41.0763 O.2       8 UNK        -0.5046 
     54 N          20.9086  -34.6662  -40.0537 N.am      9 UNK        -0.4200 
     55 CA         19.4500  -34.7787  -40.1516 C.3       9 UNK         0.0839 
     56 C          18.8799  -35.9206  -39.2675 C.2       9 UNK         0.5513 
     57 N          17.8074  -36.5658  -39.7051 N.am      9 UNK        -0.7519 
     58 O          19.3714  -36.1956  -38.1744 O.2       9 UNK        -0.4960 
     59 C59        18.7553  -33.4298  -39.8199 C.3       10 UNK        -0.0876 
     60 S60        19.3175  -32.0127  -40.8298 S.3       10 UNK        -0.2414 
     61 C61        18.8597  -32.5730  -42.4970 C.3       10 UNK         0.0169 
     62 H62        19.6392  -28.2420  -40.7005 H         1 UNK         0.0903 
     63 H63        19.6826  -28.8962  -42.3375 H         1 UNK         0.0903 
     64 H64        21.0367  -27.9411  -41.7305 H         1 UNK         0.0903 
     65 H65        18.0598  -27.7765  -43.4705 H         1 UNK         0.3096 
     66 H66        17.4532  -25.0001  -42.8602 H         1 UNK         0.1121 
     67 H67        15.5497  -25.2529  -44.3468 H         1 UNK         0.0849 
     68 H68        15.5864  -26.5015  -43.1519 H         1 UNK         0.0849 
     69 H69        15.5732  -28.8425  -43.4730 H         1 UNK         0.0865 
     70 H70        15.2612  -29.6566  -44.9807 H         1 UNK         0.0865 
     71 H71        16.7360  -30.9274  -42.7999 H         1 UNK         0.1346 
     72 H72        20.6448  -31.6898  -44.3783 H         1 UNK         0.1412 
     73 H73        18.1968  -28.6588  -46.1377 H         1 UNK         0.1426 
     74 H74        20.3783  -28.9253  -46.9631 H         1 UNK         0.0716 
     75 H75        20.5885  -30.6432  -47.1132 H         1 UNK         0.0716 
     76 H76        23.1303  -28.3542  -43.9793 H         1 UNK         0.0695 
     77 H77        21.3955  -28.2862  -44.0402 H         1 UNK         0.0695 
     78 H78        23.0434  -27.0025  -46.2838 H         1 UNK         0.0983 
     79 H79        20.2686  -26.8533  -45.3838 H         1 UNK         0.3095 
     80 H80        19.2186  -24.1862  -47.1999 H         1 UNK         0.0454 
     81 H81        17.7064  -25.6608  -48.5319 H         1 UNK         0.0851 
     82 H82        18.8018  -27.0234  -48.2992 H         1 UNK         0.0851 
     83 H83        19.3161  -25.6244  -49.2304 H         1 UNK         0.0851 
     84 H84        17.9380  -26.5366  -46.0370 H         1 UNK         0.2976 
     85 H85        24.7564  -26.6511  -44.5225 H         1 UNK         0.3116 
     86 H86        24.7628  -23.8503  -43.8867 H         1 UNK         0.0646 
     87 H87        26.7568  -25.0303  -44.7583 H         1 UNK         0.0847 
     88 H88        26.8134  -26.0531  -43.3214 H         1 UNK         0.0847 
     89 H89        27.1034  -24.3244  -43.1907 H         1 UNK         0.0847 
     90 H90        22.7387  -24.3924  -42.4872 H         1 UNK         0.3040 
     91 H91        21.6801  -24.0121  -40.5987 H         1 UNK         0.1015 
     92 H92        24.3762  -23.4753  -39.2399 H         1 UNK         0.0786 
     93 H93        22.7956  -23.0109  -38.6348 H         1 UNK         0.0786 
     94 H94        23.4130  -22.2770  -40.1050 H         1 UNK         0.0786 
     95 H95        23.8056  -26.6323  -40.7922 H         1 UNK         0.3172 
     96 H96        22.1571  -28.2815  -39.1105 H         1 UNK         0.0595 
     97 H97        24.0837  -29.0778  -37.6809 H         1 UNK         0.0839 
     98 H98        23.7341  -27.3887  -37.3620 H         1 UNK         0.0839 
     99 H99        25.1154  -27.8280  -38.3644 H         1 UNK         0.0839 
    100 H100       22.8077  -30.5610  -39.3934 H         1 UNK         0.2998 
    101 H101       24.7454  -31.4537  -41.2361 H         1 UNK         0.0822 
    102 H102       23.2219  -30.5538  -42.9930 H         1 UNK         0.0787 
    103 H103       23.0861  -32.2963  -42.9984 H         1 UNK         0.0787 
    104 H104       21.8326  -31.3236  -42.2391 H         1 UNK         0.0787 
    105 H105       24.0832  -33.8935  -41.7179 H         1 UNK         0.3055 
    106 H106       23.4406  -35.1872  -39.1791 H         1 UNK         0.1106 
    107 H107       25.2846  -36.0229  -40.6241 H         1 UNK         0.0828 
    108 H108       24.1422  -36.3481  -41.9283 H         1 UNK         0.0828 
    109 H109       24.0472  -37.2498  -40.4220 H         1 UNK         0.0828 
    110 H110       21.2660  -33.8364  -39.5918 H         1 UNK         0.2931 
    111 H111       19.2247  -35.0318  -41.1890 H         1 UNK         0.0412 
    112 H112       17.4118  -37.3001  -39.1382 H         1 UNK         0.3472 
    113 H113       17.3907  -36.3431  -40.5960 H         1 UNK         0.3472 
    114 H114       18.9164  -33.1722  -38.7713 H         1 UNK         0.0970 
    115 H115       17.6740  -33.5196  -39.9412 H         1 UNK         0.0970 
    116 H116       19.6121  -33.2779  -42.8541 H         1 UNK         0.0612 
    117 H117       17.9180  -33.1223  -42.4530 H         1 UNK         0.0612 
@<TRIPOS>BOND
     1    1    2 1    
     2    1   62 1    
     3    1   63 1    
     4    1   64 1    
     5    2    3 2    
     6    2    4 am   BACKBONE|DICT|INTERRES
     7    4    5 1    
     8    4   65 1    
     9    5    6 1    
    10    5   25 1    
    11    5   66 1    
    12    6    7 1    
    13    6   67 1    
    14    6   68 1    
    15    7    8 1    
    16    8    9 1    
    17    8   69 1    
    18    8   70 1    
    19    9   10 ar   
    20    9   14 ar   
    21   10   11 ar   
    22   10   71 1    
    23   11   12 ar   
    24   11   61 1    
    25   12   13 ar   
    26   12   72 1    
    27   13   14 ar   
    28   13   15 1    
    29   14   73 1    
    30   15   16 1    
    31   15   74 1    
    32   15   75 1    
    33   16   17 1    
    34   17   18 1    
    35   17   76 1    
    36   17   77 1    
    37   18   19 1    
    38   18   27 1    
    39   18   78 1    
    40   19   20 am   BACKBONE|DICT|INTERRES
    41   19   79 1    
    42   20   21 2    
    43   20   22 1    
    44   22   23 1    
    45   22   24 1    
    46   22   80 1    
    47   23   81 1    
    48   23   82 1    
    49   23   83 1    
    50   24   25 am   BACKBONE|DICT|INTERRES
    51   24   84 1    
    52   25   26 2    
    53   27   28 2    
    54   27   29 am   BACKBONE|DICT|INTERRES
    55   29   30 1    
    56   29   85 1    
    57   30   31 1    
    58   30   32 1    
    59   30   86 1    
    60   31   87 1    
    61   31   88 1    
    62   31   89 1    
    63   32   33 2    
    64   32   34 am   BACKBONE|DICT|INTERRES
    65   34   35 1    
    66   34   90 1    
    67   35   36 1    
    68   35   37 1    
    69   35   91 1    
    70   36   92 1    
    71   36   93 1    
    72   36   94 1    
    73   37   38 2    
    74   37   39 am   BACKBONE|DICT|INTERRES
    75   39   40 1    
    76   39   95 1    
    77   40   41 1    
    78   40   42 1    
    79   40   96 1    
    80   41   97 1    
    81   41   98 1    
    82   41   99 1    
    83   42   43 2    
    84   42   44 am   BACKBONE|DICT|INTERRES
    85   44   45 1    
    86   44  100 1    
    87   45   46 1    
    88   45   47 1    
    89   45  101 1    
    90   46  102 1    
    91   46  103 1    
    92   46  104 1    
    93   47   48 2    
    94   47   49 am   BACKBONE|DICT|INTERRES
    95   49   50 1    
    96   49  105 1    
    97   50   51 1    
    98   50   52 1    
    99   50  106 1    
   100   51  107 1    
   101   51  108 1    
   102   51  109 1    
   103   52   53 2    
   104   52   54 am   BACKBONE|DICT|INTERRES
   105   54   55 1    
   106   54  110 1    
   107   55   56 1    
   108   55   59 1    
   109   55  111 1    
   110   56   57 am   BACKBONE|DICT|INTERRES
   111   56   58 2    
   112   57  112 1    
   113   57  113 1    
   114   59   60 1    
   115   59  114 1    
   116   59  115 1    
   117   60   61 1    
   118   61  116 1    
   119   61  117 1    
@<TRIPOS>SUBSTRUCTURE
     1 UNK         1 GROUP             0       ****    0 ROOT    
