@<TRIPOS>MOLECULE
3R8
117   119    1
SMALL
USER_CHARGES


@<TRIPOS>ATOM
      1 CA         17.3588  -22.5012  -45.2640 C.3       0 UNK        -0.2013 
      2 C          18.0763  -23.7925  -45.6277 C.2       0 UNK         0.4866 
      3 O          19.1300  -23.7497  -46.2641 O.2       0 UNK        -0.5176 
      4 N          17.5098  -24.9400  -45.2357 N.am      1 UNK        -0.4884 
      5 CA         18.1035  -26.2712  -45.4000 C.3       1 UNK         0.0853 
      6 C6         17.0255  -27.3831  -45.3835 C.3       10 UNK        -0.0849 
      7 S7         15.9395  -27.3657  -43.9152 S.3       10 UNK        -0.2776 
      8 C8         15.1660  -29.0088  -44.0457 C.3       10 UNK         0.0316 
      9 C9         16.1326  -30.1078  -43.6333 C.ar      10 UNK        -0.0863 
     10 C10        16.7757  -30.8948  -44.5954 C.ar      10 UNK        -0.1009 
     11 C11        17.6834  -31.8842  -44.2055 C.ar      10 UNK        -0.0712 
     12 C12        17.9359  -32.0920  -42.8475 C.ar      10 UNK        -0.0894 
     13 C13        17.2968  -31.3127  -41.8805 C.ar      10 UNK        -0.0745 
     14 C14        16.3910  -30.3269  -42.2778 C.ar      10 UNK        -0.0972 
     15 C15        17.5988  -31.5338  -40.4091 C.3       10 UNK         0.0209 
     16 S16        19.2207  -30.8482  -39.9615 S.3       10 UNK        -0.2568 
     17 C17        18.8701  -29.0619  -39.8647 C.3       10 UNK        -0.0983 
     18 CA         20.0859  -28.2325  -40.3435 C.3       3 UNK         0.0876 
     19 N          20.2349  -28.2372  -41.8080 N.am      3 UNK        -0.4424 
     20 C          21.3488  -27.8583  -42.4506 C.2       2 UNK         0.4918 
     21 O          22.3782  -27.5197  -41.8696 O.2       2 UNK        -0.4875 
     22 CA         21.3408  -27.8217  -43.9864 C.3       2 UNK         0.0481 
     23 CB         21.9520  -29.1200  -44.5303 C.3       2 UNK        -0.1831 
     24 N          20.0454  -27.5655  -44.6299 N.am      2 UNK        -0.4498 
     25 C          19.2443  -26.5160  -44.3851 C.2       1 UNK         0.5027 
     26 O          19.3930  -25.7570  -43.4231 O.2       1 UNK        -0.4969 
     27 C          20.0968  -26.8177  -39.7193 C.2       3 UNK         0.5005 
     28 O          20.2575  -26.7100  -38.5025 O.2       3 UNK        -0.5279 
     29 N          19.9934  -25.7572  -40.5362 N.am      4 UNK        -0.4463 
     30 CA         20.2883  -24.3793  -40.1301 C.3       4 UNK         0.0283 
     31 CB         19.7127  -23.4100  -41.1760 C.3       4 UNK        -0.1875 
     32 C          21.7973  -24.1166  -39.9274 C.2       4 UNK         0.4949 
     33 O          22.1473  -23.0877  -39.3483 O.2       4 UNK        -0.5039 
     34 N          22.6588  -25.0237  -40.4089 N.am      5 UNK        -0.4663 
     35 CA         24.1130  -24.9494  -40.3305 C.3       5 UNK         0.0242 
     36 CB         24.6624  -24.4075  -41.6677 C.3       5 UNK        -0.1982 
     37 C          24.6716  -26.3245  -39.9205 C.2       5 UNK         0.5017 
     38 O          24.4738  -26.7349  -38.7765 O.2       5 UNK        -0.5012 
     39 N          25.3822  -26.9945  -40.8382 N.am      6 UNK        -0.4439 
     40 CA         26.1667  -28.2092  -40.5940 C.3       6 UNK         0.0297 
     41 CB         27.1748  -28.3778  -41.7443 C.3       6 UNK        -0.2006 
     42 C          25.3594  -29.5089  -40.4114 C.2       6 UNK         0.4892 
     43 O          25.9332  -30.4823  -39.9214 O.2       6 UNK        -0.5089 
     44 N          24.0840  -29.5289  -40.8320 N.am      7 UNK        -0.4243 
     45 CA         23.1794  -30.6929  -40.8483 C.3       7 UNK         0.0196 
     46 CB         22.8623  -31.1674  -39.4137 C.3       7 UNK        -0.2007 
     47 C          23.6701  -31.8359  -41.7624 C.2       7 UNK         0.5020 
     48 O          23.4381  -33.0080  -41.4638 O.2       7 UNK        -0.5147 
     49 N          24.3441  -31.4720  -42.8640 N.am      8 UNK        -0.4734 
     50 CA         25.0529  -32.3768  -43.7780 C.3       8 UNK         0.0238 
     51 CB         25.7608  -31.5449  -44.8601 C.3       8 UNK        -0.1912 
     52 C          24.1916  -33.4774  -44.4242 C.2       8 UNK         0.5038 
     53 O          24.6934  -34.5844  -44.6248 O.2       8 UNK        -0.5046 
     54 N          22.9268  -33.1629  -44.7305 N.am      9 UNK        -0.4200 
     55 CA         21.9321  -34.1157  -45.2511 C.3       9 UNK         0.0839 
     56 C          21.2067  -34.9527  -44.1554 C.2       9 UNK         0.5513 
     57 N          21.4822  -34.7678  -42.8693 N.am      9 UNK        -0.7519 
     58 O          20.3859  -35.8059  -44.4823 O.2       9 UNK        -0.4960 
     59 C59        20.9505  -33.4462  -46.2532 C.3       10 UNK        -0.0876 
     60 S60        20.0557  -32.0106  -45.5712 S.3       10 UNK        -0.2414 
     61 C61        18.4161  -32.7197  -45.2402 C.3       10 UNK         0.0169 
     62 H62        16.4288  -22.6887  -44.7275 H         1 UNK         0.0903 
     63 H63        17.9966  -21.8847  -44.6310 H         1 UNK         0.0903 
     64 H64        17.1225  -21.9356  -46.1649 H         1 UNK         0.0903 
     65 H65        16.6622  -24.9202  -44.6856 H         1 UNK         0.3096 
     66 H66        18.5720  -26.2961  -46.3870 H         1 UNK         0.1121 
     67 H67        17.4912  -28.3637  -45.4843 H         1 UNK         0.0849 
     68 H68        16.3883  -27.2752  -46.2629 H         1 UNK         0.0849 
     69 H69        14.2864  -29.0387  -43.4008 H         1 UNK         0.0865 
     70 H70        14.8026  -29.1673  -45.0624 H         1 UNK         0.0865 
     71 H71        16.5839  -30.7279  -45.6466 H         1 UNK         0.1346 
     72 H72        18.6479  -32.8476  -42.5431 H         1 UNK         0.1412 
     73 H73        15.8975  -29.7159  -41.5340 H         1 UNK         0.1426 
     74 H74        17.5980  -32.6040  -40.1976 H         1 UNK         0.0716 
     75 H75        16.8258  -31.0953  -39.7759 H         1 UNK         0.0716 
     76 H76        18.6265  -28.8508  -38.8215 H         1 UNK         0.0695 
     77 H77        17.9805  -28.8072  -40.4417 H         1 UNK         0.0695 
     78 H78        20.9820  -28.7035  -39.9339 H         1 UNK         0.0983 
     79 H79        19.4252  -28.5074  -42.3478 H         1 UNK         0.3095 
     80 H80        21.9928  -26.9985  -44.2852 H         1 UNK         0.0454 
     81 H81        21.4299  -29.9936  -44.1422 H         1 UNK         0.0851 
     82 H82        22.9967  -29.2082  -44.2316 H         1 UNK         0.0851 
     83 H83        21.9263  -29.1601  -45.6194 H         1 UNK         0.0851 
     84 H84        19.8259  -28.1592  -45.4170 H         1 UNK         0.2976 
     85 H85        19.8270  -25.9068  -41.5290 H         1 UNK         0.3116 
     86 H86        19.7895  -24.1860  -39.1781 H         1 UNK         0.0646 
     87 H87        18.6458  -23.5740  -41.3283 H         1 UNK         0.0847 
     88 H88        20.2090  -23.5173  -42.1414 H         1 UNK         0.0847 
     89 H89        19.8399  -22.3739  -40.8596 H         1 UNK         0.0847 
     90 H90        22.2976  -25.8654  -40.8473 H         1 UNK         0.3040 
     91 H91        24.4080  -24.2585  -39.5374 H         1 UNK         0.1015 
     92 H92        25.7522  -24.3564  -41.6596 H         1 UNK         0.0786 
     93 H93        24.3011  -23.3954  -41.8517 H         1 UNK         0.0786 
     94 H94        24.3559  -25.0207  -42.5164 H         1 UNK         0.0786 
     95 H95        25.4575  -26.5874  -41.7591 H         1 UNK         0.3172 
     96 H96        26.7325  -28.0574  -39.6722 H         1 UNK         0.0595 
     97 H97        26.6751  -28.5104  -42.7048 H         1 UNK         0.0839 
     98 H98        27.8093  -29.2511  -41.5858 H         1 UNK         0.0839 
     99 H99        27.8356  -27.5144  -41.8246 H         1 UNK         0.0839 
    100 H100       23.6900  -28.6661  -41.2002 H         1 UNK         0.2998 
    101 H101       22.2417  -30.3563  -41.2884 H         1 UNK         0.0822 
    102 H102       22.5036  -30.3464  -38.7932 H         1 UNK         0.0787 
    103 H103       22.0843  -31.9316  -39.4186 H         1 UNK         0.0787 
    104 H104       23.7353  -31.6008  -38.9254 H         1 UNK         0.0787 
    105 H105       24.4920  -30.4850  -43.0114 H         1 UNK         0.3055 
    106 H106       25.8183  -32.8858  -43.1876 H         1 UNK         0.1106 
    107 H107       25.0516  -30.9704  -45.4573 H         1 UNK         0.0828 
    108 H108       26.3175  -32.1868  -45.5447 H         1 UNK         0.0828 
    109 H109       26.4760  -30.8480  -44.4226 H         1 UNK         0.0828 
    110 H110       22.5851  -32.2387  -44.5154 H         1 UNK         0.2931 
    111 H111       22.4749  -34.8599  -45.8370 H         1 UNK         0.0412 
    112 H112       22.1833  -34.1006  -42.5656 H         1 UNK         0.3472 
    113 H113       21.0056  -35.3311  -42.1835 H         1 UNK         0.3472 
    114 H114       21.5130  -33.0953  -47.1196 H         1 UNK         0.0970 
    115 H115       20.2405  -34.1738  -46.6513 H         1 UNK         0.0970 
    116 H116       18.5155  -33.7427  -44.8756 H         1 UNK         0.0612 
    117 H117       17.8487  -32.7736  -46.1704 H         1 UNK         0.0612 
@<TRIPOS>BOND
     1    1    2 1    
     2    1   62 1    
     3    1   63 1    
     4    1   64 1    
     5    2    3 2    
     6    2    4 am   BACKBONE|DICT|INTERRES
     7    4    5 1    
     8    4   65 1    
     9    5    6 1    
    10    5   25 1    
    11    5   66 1    
    12    6    7 1    
    13    6   67 1    
    14    6   68 1    
    15    7    8 1    
    16    8    9 1    
    17    8   69 1    
    18    8   70 1    
    19    9   10 ar   
    20    9   14 ar   
    21   10   11 ar   
    22   10   71 1    
    23   11   12 ar   
    24   11   61 1    
    25   12   13 ar   
    26   12   72 1    
    27   13   14 ar   
    28   13   15 1    
    29   14   73 1    
    30   15   16 1    
    31   15   74 1    
    32   15   75 1    
    33   16   17 1    
    34   17   18 1    
    35   17   76 1    
    36   17   77 1    
    37   18   19 1    
    38   18   27 1    
    39   18   78 1    
    40   19   20 am   BACKBONE|DICT|INTERRES
    41   19   79 1    
    42   20   21 2    
    43   20   22 1    
    44   22   23 1    
    45   22   24 1    
    46   22   80 1    
    47   23   81 1    
    48   23   82 1    
    49   23   83 1    
    50   24   25 am   BACKBONE|DICT|INTERRES
    51   24   84 1    
    52   25   26 2    
    53   27   28 2    
    54   27   29 am   BACKBONE|DICT|INTERRES
    55   29   30 1    
    56   29   85 1    
    57   30   31 1    
    58   30   32 1    
    59   30   86 1    
    60   31   87 1    
    61   31   88 1    
    62   31   89 1    
    63   32   33 2    
    64   32   34 am   BACKBONE|DICT|INTERRES
    65   34   35 1    
    66   34   90 1    
    67   35   36 1    
    68   35   37 1    
    69   35   91 1    
    70   36   92 1    
    71   36   93 1    
    72   36   94 1    
    73   37   38 2    
    74   37   39 am   BACKBONE|DICT|INTERRES
    75   39   40 1    
    76   39   95 1    
    77   40   41 1    
    78   40   42 1    
    79   40   96 1    
    80   41   97 1    
    81   41   98 1    
    82   41   99 1    
    83   42   43 2    
    84   42   44 am   BACKBONE|DICT|INTERRES
    85   44   45 1    
    86   44  100 1    
    87   45   46 1    
    88   45   47 1    
    89   45  101 1    
    90   46  102 1    
    91   46  103 1    
    92   46  104 1    
    93   47   48 2    
    94   47   49 am   BACKBONE|DICT|INTERRES
    95   49   50 1    
    96   49  105 1    
    97   50   51 1    
    98   50   52 1    
    99   50  106 1    
   100   51  107 1    
   101   51  108 1    
   102   51  109 1    
   103   52   53 2    
   104   52   54 am   BACKBONE|DICT|INTERRES
   105   54   55 1    
   106   54  110 1    
   107   55   56 1    
   108   55   59 1    
   109   55  111 1    
   110   56   57 am   BACKBONE|DICT|INTERRES
   111   56   58 2    
   112   57  112 1    
   113   57  113 1    
   114   59   60 1    
   115   59  114 1    
   116   59  115 1    
   117   60   61 1    
   118   61  116 1    
   119   61  117 1    
@<TRIPOS>SUBSTRUCTURE
     1 UNK         1 GROUP             0       ****    0 ROOT    
