@<TRIPOS>MOLECULE
3R8
117   119    1
SMALL
USER_CHARGES


@<TRIPOS>ATOM
      1 CA         16.7155  -25.0301  -44.9573 C.3       0 UNK        -0.2013 
      2 C          17.9099  -25.4330  -45.8085 C.2       0 UNK         0.4866 
      3 O          18.6357  -24.5663  -46.2948 O.2       0 UNK        -0.5176 
      4 N          18.1168  -26.7438  -45.9941 N.am      1 UNK        -0.4884 
      5 CA         19.1886  -27.3309  -46.8179 C.3       1 UNK         0.0853 
      6 C6         18.9610  -28.8427  -47.0850 C.3       10 UNK        -0.0849 
      7 S7         17.2240  -29.2412  -47.4925 S.3       10 UNK        -0.2776 
      8 C8         16.8365  -30.5979  -46.3350 C.3       10 UNK         0.0316 
      9 C9         17.1006  -30.2739  -44.8654 C.ar      10 UNK        -0.0863 
     10 C10        18.0685  -30.9999  -44.1638 C.ar      10 UNK        -0.1009 
     11 C11        18.2459  -30.8109  -42.7910 C.ar      10 UNK        -0.0712 
     12 C12        17.4478  -29.8816  -42.1221 C.ar      10 UNK        -0.0894 
     13 C13        16.5366  -29.0796  -42.8185 C.ar      10 UNK        -0.0745 
     14 C14        16.3519  -29.3011  -44.1904 C.ar      10 UNK        -0.0972 
     15 C15        15.7147  -28.0012  -42.1054 C.3       10 UNK         0.0209 
     16 S16        16.5224  -27.2219  -40.6516 S.3       10 UNK        -0.2568 
     17 C17        17.9990  -26.4228  -41.3694 C.3       10 UNK        -0.0983 
     18 CA         19.3088  -27.1803  -41.0005 C.3       3 UNK         0.0876 
     19 N          20.2344  -27.2843  -42.1305 N.am      3 UNK        -0.4424 
     20 C          21.0590  -26.3493  -42.6284 C.2       2 UNK         0.4918 
     21 O          21.2709  -25.2509  -42.1186 O.2       2 UNK        -0.4875 
     22 CA         21.6935  -26.6928  -43.9774 C.3       2 UNK         0.0481 
     23 CB         22.7293  -27.8237  -43.8517 C.3       2 UNK        -0.1831 
     24 N          20.5944  -27.0622  -44.8596 N.am      2 UNK        -0.4498 
     25 C          20.5828  -27.1083  -46.1940 C.2       1 UNK         0.5027 
     26 O          21.5765  -26.9758  -46.9088 O.2       1 UNK        -0.4969 
     27 C          20.0006  -26.7407  -39.6958 C.2       3 UNK         0.5005 
     28 O          20.4948  -27.6057  -38.9722 O.2       3 UNK        -0.5279 
     29 N          20.1105  -25.4275  -39.4498 N.am      4 UNK        -0.4463 
     30 CA         20.9016  -24.8509  -38.3561 C.3       4 UNK         0.0283 
     31 CB         20.6728  -23.3321  -38.3059 C.3       4 UNK        -0.1875 
     32 C          22.4078  -25.1659  -38.4613 C.2       4 UNK         0.4949 
     33 O          23.0709  -25.2893  -37.4318 O.2       4 UNK        -0.5039 
     34 N          22.9118  -25.3186  -39.6949 N.am      5 UNK        -0.4663 
     35 CA         24.2846  -25.7398  -39.9896 C.3       5 UNK         0.0242 
     36 CB         24.7137  -25.1396  -41.3392 C.3       5 UNK        -0.1982 
     37 C          24.4687  -27.2706  -39.9853 C.2       5 UNK         0.5017 
     38 O          25.6100  -27.7253  -40.0486 O.2       5 UNK        -0.5012 
     39 N          23.3661  -28.0367  -39.9337 N.am      6 UNK        -0.4439 
     40 CA         23.2416  -29.5003  -39.8011 C.3       6 UNK         0.0297 
     41 CB         23.7688  -29.9557  -38.4277 C.3       6 UNK        -0.2006 
     42 C          23.8422  -30.3819  -40.9169 C.2       6 UNK         0.4892 
     43 O          23.4219  -31.5328  -41.0389 O.2       6 UNK        -0.5089 
     44 N          24.7912  -29.8591  -41.7036 N.am      7 UNK        -0.4243 
     45 CA         25.6291  -30.5662  -42.6841 C.3       7 UNK         0.0196 
     46 CB         26.5225  -29.5370  -43.3957 C.3       7 UNK        -0.2007 
     47 C          24.8997  -31.4389  -43.7241 C.2       7 UNK         0.5020 
     48 O          25.4794  -32.4160  -44.1979 O.2       7 UNK        -0.5147 
     49 N          23.6532  -31.0848  -44.0601 N.am      8 UNK        -0.4734 
     50 CA         22.7918  -31.8423  -44.9738 C.3       8 UNK         0.0238 
     51 CB         21.6537  -30.9336  -45.4691 C.3       8 UNK        -0.1912 
     52 C          22.2246  -33.1376  -44.3602 C.2       8 UNK         0.5038 
     53 O          21.8279  -34.0240  -45.1180 O.2       8 UNK        -0.5046 
     54 N          22.1861  -33.2210  -43.0243 N.am      9 UNK        -0.4200 
     55 CA         21.7004  -34.3760  -42.2540 C.3       9 UNK         0.0839 
     56 C          22.8489  -35.0859  -41.4900 C.2       9 UNK         0.5513 
     57 N          23.8688  -34.3746  -41.0247 N.am      9 UNK        -0.7519 
     58 O          22.8168  -36.3024  -41.3241 O.2       9 UNK        -0.4960 
     59 C59        20.5680  -33.9758  -41.2719 C.3       10 UNK        -0.0876 
     60 S60        19.0679  -33.3842  -42.1265 S.3       10 UNK        -0.2414 
     61 C61        19.3155  -31.5847  -42.0322 C.3       10 UNK         0.0169 
     62 H62        16.0892  -25.8848  -44.7054 H         1 UNK         0.0903 
     63 H63        17.0519  -24.5650  -44.0311 H         1 UNK         0.0903 
     64 H64        16.0989  -24.3101  -45.4946 H         1 UNK         0.0903 
     65 H65        17.4614  -27.4140  -45.6166 H         1 UNK         0.3096 
     66 H66        19.1800  -26.8121  -47.7792 H         1 UNK         0.1121 
     67 H67        19.2691  -29.4366  -46.2246 H         1 UNK         0.0849 
     68 H68        19.5916  -29.1753  -47.9117 H         1 UNK         0.0849 
     69 H69        15.7847  -30.8630  -46.4510 H         1 UNK         0.0865 
     70 H70        17.4002  -31.4809  -46.6405 H         1 UNK         0.0865 
     71 H71        18.6666  -31.7411  -44.6767 H         1 UNK         0.1346 
     72 H72        17.5509  -29.7728  -41.0525 H         1 UNK         0.1412 
     73 H73        15.6077  -28.7329  -44.7323 H         1 UNK         0.1426 
     74 H74        14.7785  -28.4521  -41.7744 H         1 UNK         0.0716 
     75 H75        15.4414  -27.2124  -42.8067 H         1 UNK         0.0716 
     76 H76        18.0205  -25.3745  -41.0701 H         1 UNK         0.0695 
     77 H77        17.8663  -26.4054  -42.4518 H         1 UNK         0.0695 
     78 H78        19.0501  -28.2173  -40.8040 H         1 UNK         0.0983 
     79 H79        20.1938  -28.1701  -42.6124 H         1 UNK         0.3095 
     80 H80        22.1790  -25.7982  -44.3728 H         1 UNK         0.0454 
     81 H81        23.1669  -28.0704  -44.8192 H         1 UNK         0.0851 
     82 H82        22.2862  -28.7281  -43.4388 H         1 UNK         0.0851 
     83 H83        23.5493  -27.5327  -43.1956 H         1 UNK         0.0851 
     84 H84        19.6894  -27.1185  -44.4133 H         1 UNK         0.2976 
     85 H85        19.7411  -24.7807  -40.1327 H         1 UNK         0.3116 
     86 H86        20.5400  -25.2830  -37.4205 H         1 UNK         0.0646 
     87 H87        20.9963  -22.8436  -39.2260 H         1 UNK         0.0847 
     88 H88        19.6208  -23.0930  -38.1490 H         1 UNK         0.0847 
     89 H89        21.2312  -22.8810  -37.4844 H         1 UNK         0.0847 
     90 H90        22.2960  -25.1769  -40.4919 H         1 UNK         0.3040 
     91 H91        24.9513  -25.3420  -39.2209 H         1 UNK         0.1015 
     92 H92        25.7356  -25.4266  -41.5916 H         1 UNK         0.0786 
     93 H93        24.6844  -24.0502  -41.3113 H         1 UNK         0.0786 
     94 H94        24.0714  -25.4665  -42.1558 H         1 UNK         0.0786 
     95 H95        22.4845  -27.5466  -39.8427 H         1 UNK         0.3172 
     96 H96        22.1688  -29.6986  -39.8186 H         1 UNK         0.0595 
     97 H97        24.8408  -29.7828  -38.3269 H         1 UNK         0.0839 
     98 H98        23.5963  -31.0220  -38.2746 H         1 UNK         0.0839 
     99 H99        23.2656  -29.4284  -37.6170 H         1 UNK         0.0839 
    100 H100       25.1162  -28.9364  -41.4323 H         1 UNK         0.2998 
    101 H101       26.2738  -31.2371  -42.1131 H         1 UNK         0.0822 
    102 H102       27.1918  -30.0226  -44.1076 H         1 UNK         0.0787 
    103 H103       27.1474  -28.9948  -42.6854 H         1 UNK         0.0787 
    104 H104       25.9316  -28.8061  -43.9490 H         1 UNK         0.0787 
    105 H105       23.2597  -30.2698  -43.6176 H         1 UNK         0.3055 
    106 H106       23.3888  -32.1378  -45.8399 H         1 UNK         0.1106 
    107 H107       21.0371  -30.5686  -44.6484 H         1 UNK         0.0828 
    108 H108       22.0424  -30.0703  -46.0095 H         1 UNK         0.0828 
    109 H109       20.9969  -31.4704  -46.1552 H         1 UNK         0.0828 
    110 H110       22.5927  -32.4723  -42.4729 H         1 UNK         0.2931 
    111 H111       21.2864  -35.1208  -42.9365 H         1 UNK         0.0412 
    112 H112       23.8586  -33.3613  -41.0855 H         1 UNK         0.3472 
    113 H113       24.6150  -34.8426  -40.5357 H         1 UNK         0.3472 
    114 H114       20.2721  -34.8346  -40.6662 H         1 UNK         0.0970 
    115 H115       20.9175  -33.2186  -40.5668 H         1 UNK         0.0970 
    116 H116       19.3361  -31.2895  -40.9819 H         1 UNK         0.0612 
    117 H117       20.2911  -31.3261  -42.4423 H         1 UNK         0.0612 
@<TRIPOS>BOND
     1    1    2 1    
     2    1   62 1    
     3    1   63 1    
     4    1   64 1    
     5    2    3 2    
     6    2    4 am   BACKBONE|DICT|INTERRES
     7    4    5 1    
     8    4   65 1    
     9    5    6 1    
    10    5   25 1    
    11    5   66 1    
    12    6    7 1    
    13    6   67 1    
    14    6   68 1    
    15    7    8 1    
    16    8    9 1    
    17    8   69 1    
    18    8   70 1    
    19    9   10 ar   
    20    9   14 ar   
    21   10   11 ar   
    22   10   71 1    
    23   11   12 ar   
    24   11   61 1    
    25   12   13 ar   
    26   12   72 1    
    27   13   14 ar   
    28   13   15 1    
    29   14   73 1    
    30   15   16 1    
    31   15   74 1    
    32   15   75 1    
    33   16   17 1    
    34   17   18 1    
    35   17   76 1    
    36   17   77 1    
    37   18   19 1    
    38   18   27 1    
    39   18   78 1    
    40   19   20 am   BACKBONE|DICT|INTERRES
    41   19   79 1    
    42   20   21 2    
    43   20   22 1    
    44   22   23 1    
    45   22   24 1    
    46   22   80 1    
    47   23   81 1    
    48   23   82 1    
    49   23   83 1    
    50   24   25 am   BACKBONE|DICT|INTERRES
    51   24   84 1    
    52   25   26 2    
    53   27   28 2    
    54   27   29 am   BACKBONE|DICT|INTERRES
    55   29   30 1    
    56   29   85 1    
    57   30   31 1    
    58   30   32 1    
    59   30   86 1    
    60   31   87 1    
    61   31   88 1    
    62   31   89 1    
    63   32   33 2    
    64   32   34 am   BACKBONE|DICT|INTERRES
    65   34   35 1    
    66   34   90 1    
    67   35   36 1    
    68   35   37 1    
    69   35   91 1    
    70   36   92 1    
    71   36   93 1    
    72   36   94 1    
    73   37   38 2    
    74   37   39 am   BACKBONE|DICT|INTERRES
    75   39   40 1    
    76   39   95 1    
    77   40   41 1    
    78   40   42 1    
    79   40   96 1    
    80   41   97 1    
    81   41   98 1    
    82   41   99 1    
    83   42   43 2    
    84   42   44 am   BACKBONE|DICT|INTERRES
    85   44   45 1    
    86   44  100 1    
    87   45   46 1    
    88   45   47 1    
    89   45  101 1    
    90   46  102 1    
    91   46  103 1    
    92   46  104 1    
    93   47   48 2    
    94   47   49 am   BACKBONE|DICT|INTERRES
    95   49   50 1    
    96   49  105 1    
    97   50   51 1    
    98   50   52 1    
    99   50  106 1    
   100   51  107 1    
   101   51  108 1    
   102   51  109 1    
   103   52   53 2    
   104   52   54 am   BACKBONE|DICT|INTERRES
   105   54   55 1    
   106   54  110 1    
   107   55   56 1    
   108   55   59 1    
   109   55  111 1    
   110   56   57 am   BACKBONE|DICT|INTERRES
   111   56   58 2    
   112   57  112 1    
   113   57  113 1    
   114   59   60 1    
   115   59  114 1    
   116   59  115 1    
   117   60   61 1    
   118   61  116 1    
   119   61  117 1    
@<TRIPOS>SUBSTRUCTURE
     1 UNK         1 GROUP             0       ****    0 ROOT    
