@<TRIPOS>MOLECULE
3R8
117   119    1
SMALL
USER_CHARGES


@<TRIPOS>ATOM
      1 CA         18.3502  -24.0220  -41.2244 C.3       0 UNK        -0.2013 
      2 C          18.1962  -24.6117  -42.6171 C.2       0 UNK         0.4866 
      3 O          19.1045  -25.2872  -43.1014 O.2       0 UNK        -0.5176 
      4 N          17.0696  -24.3378  -43.2904 N.am      1 UNK        -0.4884 
      5 CA         16.6604  -24.8850  -44.6006 C.3       1 UNK         0.0853 
      6 C6         16.5174  -26.4349  -44.5883 C.3       10 UNK        -0.0849 
      7 S7         15.4514  -27.0970  -43.2638 S.3       10 UNK        -0.2776 
      8 C8         14.9457  -28.6973  -43.9793 C.3       10 UNK         0.0316 
      9 C9         16.1241  -29.6418  -44.1915 C.ar      10 UNK        -0.0863 
     10 C10        16.5381  -30.5009  -43.1680 C.ar      10 UNK        -0.1009 
     11 C11        17.6011  -31.3875  -43.3724 C.ar      10 UNK        -0.0712 
     12 C12        18.2650  -31.3966  -44.6031 C.ar      10 UNK        -0.0894 
     13 C13        17.8637  -30.5407  -45.6325 C.ar      10 UNK        -0.0745 
     14 C14        16.7839  -29.6772  -45.4244 C.ar      10 UNK        -0.0972 
     15 C15        18.5789  -30.5660  -46.9779 C.3       10 UNK         0.0209 
     16 S16        20.2259  -29.7867  -46.9154 S.3       10 UNK        -0.2568 
     17 C17        19.8030  -28.0430  -46.5745 C.3       10 UNK        -0.0983 
     18 CA         20.9113  -27.2291  -45.8510 C.3       3 UNK         0.0876 
     19 N          20.5086  -25.8307  -45.6774 N.am      3 UNK        -0.4424 
     20 C          20.5302  -24.9120  -46.6551 C.2       2 UNK         0.4918 
     21 O          21.0275  -25.1112  -47.7648 O.2       2 UNK        -0.4875 
     22 CA         19.8475  -23.5577  -46.3504 C.3       2 UNK         0.0481 
     23 CB         19.5362  -22.7350  -47.6185 C.3       2 UNK        -0.1831 
     24 N          18.6510  -23.7249  -45.5156 N.am      2 UNK        -0.4498 
     25 C          17.5635  -24.4644  -45.7899 C.2       1 UNK         0.5027 
     26 O          17.2857  -24.8683  -46.9200 O.2       1 UNK        -0.4969 
     27 C          21.3389  -27.8572  -44.5091 C.2       3 UNK         0.5005 
     28 O          22.3655  -28.5377  -44.4623 O.2       3 UNK        -0.5279 
     29 N          20.5850  -27.6049  -43.4299 N.am      4 UNK        -0.4463 
     30 CA         20.7812  -28.1767  -42.0950 C.3       4 UNK         0.0283 
     31 CB         19.4264  -28.1832  -41.3616 C.3       4 UNK        -0.1875 
     32 C          21.8789  -27.4470  -41.2950 C.2       4 UNK         0.4949 
     33 O          21.6666  -27.0852  -40.1362 O.2       4 UNK        -0.5039 
     34 N          23.0355  -27.2316  -41.9299 N.am      5 UNK        -0.4663 
     35 CA         24.2296  -26.6496  -41.3209 C.3       5 UNK         0.0242 
     36 CB         25.1330  -26.0964  -42.4345 C.3       5 UNK        -0.1982 
     37 C          24.9812  -27.7045  -40.4959 C.2       5 UNK         0.5017 
     38 O          24.9770  -28.8801  -40.8698 O.2       5 UNK        -0.5012 
     39 N          25.6419  -27.2602  -39.4162 N.am      6 UNK        -0.4439 
     40 CA         26.4481  -28.0629  -38.4871 C.3       6 UNK         0.0297 
     41 CB         27.7795  -28.4813  -39.1534 C.3       6 UNK        -0.2006 
     42 C          25.6429  -29.2415  -37.9036 C.2       6 UNK         0.4892 
     43 O          24.7993  -29.0173  -37.0344 O.2       6 UNK        -0.5089 
     44 N          25.8966  -30.4538  -38.4089 N.am      7 UNK        -0.4243 
     45 CA         25.1616  -31.6768  -38.0953 C.3       7 UNK         0.0196 
     46 CB         25.9375  -32.4868  -37.0385 C.3       7 UNK        -0.2007 
     47 C          24.8789  -32.4797  -39.3775 C.2       7 UNK         0.5020 
     48 O          24.8556  -33.7103  -39.3283 O.2       7 UNK        -0.5147 
     49 N          24.6642  -31.7869  -40.5095 N.am      8 UNK        -0.4734 
     50 CA         24.4270  -32.3828  -41.8349 C.3       8 UNK         0.0238 
     51 CB         24.3131  -31.2663  -42.8863 C.3       8 UNK        -0.1912 
     52 C          23.2026  -33.3136  -41.9194 C.2       8 UNK         0.5038 
     53 O          23.1969  -34.2237  -42.7496 O.2       8 UNK        -0.5046 
     54 N          22.2066  -33.0811  -41.0566 N.am      9 UNK        -0.4200 
     55 CA         21.0177  -33.9310  -40.8934 C.3       9 UNK         0.0839 
     56 C          21.2768  -35.2514  -40.1088 C.2       9 UNK         0.5513 
     57 N          22.4479  -35.4719  -39.5214 N.am      9 UNK        -0.7519 
     58 O          20.3928  -36.1012  -40.0379 O.2       9 UNK        -0.4960 
     59 C59        19.8290  -33.1423  -40.2843 C.3       10 UNK        -0.0876 
     60 S60        19.3831  -31.6840  -41.2841 S.3       10 UNK        -0.2414 
     61 C61        18.0204  -32.3562  -42.2778 C.3       10 UNK         0.0169 
     62 H62        19.2438  -23.4004  -41.1777 H         1 UNK         0.0903 
     63 H63        17.4937  -23.4098  -40.9435 H         1 UNK         0.0903 
     64 H64        18.4529  -24.8201  -40.4901 H         1 UNK         0.0903 
     65 H65        16.3755  -23.7499  -42.8485 H         1 UNK         0.3096 
     66 H66        15.6774  -24.4613  -44.8126 H         1 UNK         0.1121 
     67 H67        17.4938  -26.9095  -44.4857 H         1 UNK         0.0849 
     68 H68        16.1118  -26.7732  -45.5432 H         1 UNK         0.0849 
     69 H69        14.2173  -29.1635  -43.3141 H         1 UNK         0.0865 
     70 H70        14.4220  -28.5254  -44.9211 H         1 UNK         0.0865 
     71 H71        16.0273  -30.4859  -42.2148 H         1 UNK         0.1346 
     72 H72        19.0939  -32.0730  -44.7618 H         1 UNK         0.1412 
     73 H73        16.4606  -29.0262  -46.2249 H         1 UNK         0.1426 
     74 H74        17.9802  -30.0722  -47.7451 H         1 UNK         0.0716 
     75 H75        18.6935  -31.6012  -47.3026 H         1 UNK         0.0716 
     76 H76        18.8867  -28.0022  -45.9889 H         1 UNK         0.0695 
     77 H77        19.5624  -27.5767  -47.5310 H         1 UNK         0.0695 
     78 H78        21.8019  -27.2434  -46.4839 H         1 UNK         0.0983 
     79 H79        20.1134  -25.5747  -44.7776 H         1 UNK         0.3095 
     80 H80        20.5586  -22.9861  -45.7526 H         1 UNK         0.0454 
     81 H81        19.0482  -21.7927  -47.3705 H         1 UNK         0.0851 
     82 H82        18.8888  -23.2772  -48.3080 H         1 UNK         0.0851 
     83 H83        20.4515  -22.4922  -48.1594 H         1 UNK         0.0851 
     84 H84        18.7651  -23.4621  -44.5460 H         1 UNK         0.2976 
     85 H85        19.8326  -26.9241  -43.4878 H         1 UNK         0.3116 
     86 H86        21.1022  -29.2146  -42.2063 H         1 UNK         0.0646 
     87 H87        19.0709  -27.1744  -41.1555 H         1 UNK         0.0847 
     88 H88        19.5034  -28.7010  -40.4049 H         1 UNK         0.0847 
     89 H89        18.6606  -28.6948  -41.9452 H         1 UNK         0.0847 
     90 H90        23.1342  -27.6273  -42.8597 H         1 UNK         0.3040 
     91 H91        23.9293  -25.8279  -40.6668 H         1 UNK         0.1015 
     92 H92        25.4594  -26.8832  -43.1163 H         1 UNK         0.0786 
     93 H93        26.0286  -25.6327  -42.0188 H         1 UNK         0.0786 
     94 H94        24.6177  -25.3362  -43.0221 H         1 UNK         0.0786 
     95 H95        25.5626  -26.2803  -39.1812 H         1 UNK         0.3172 
     96 H96        26.6939  -27.4141  -37.6449 H         1 UNK         0.0595 
     97 H97        27.6284  -29.0604  -40.0650 H         1 UNK         0.0839 
     98 H98        28.3891  -29.0798  -38.4748 H         1 UNK         0.0839 
     99 H99        28.3707  -27.6055  -39.4209 H         1 UNK         0.0839 
    100 H100       26.5833  -30.5275  -39.1471 H         1 UNK         0.2998 
    101 H101       24.1835  -31.4228  -37.6811 H         1 UNK         0.0822 
    102 H102       25.3859  -33.3805  -36.7437 H         1 UNK         0.0787 
    103 H103       26.9092  -32.8092  -37.4143 H         1 UNK         0.0787 
    104 H104       26.1049  -31.9003  -36.1350 H         1 UNK         0.0787 
    105 H105       24.7066  -30.7700  -40.4818 H         1 UNK         0.3055 
    106 H106       25.3009  -32.9914  -42.0769 H         1 UNK         0.1106 
    107 H107       23.4892  -30.5859  -42.6657 H         1 UNK         0.0828 
    108 H108       25.2278  -30.6758  -42.9402 H         1 UNK         0.0828 
    109 H109       24.1372  -31.6769  -43.8815 H         1 UNK         0.0828 
    110 H110       22.2979  -32.3079  -40.4159 H         1 UNK         0.2931 
    111 H111       20.7086  -34.2459  -41.8921 H         1 UNK         0.0412 
    112 H112       23.2011  -34.7936  -39.5701 H         1 UNK         0.3472 
    113 H113       22.5901  -36.3365  -39.0238 H         1 UNK         0.3472 
    114 H114       20.0750  -32.8039  -39.2762 H         1 UNK         0.0970 
    115 H115       18.9499  -33.7812  -40.1790 H         1 UNK         0.0970 
    116 H116       17.1752  -32.5821  -41.6257 H         1 UNK         0.0612 
    117 H117       18.3303  -33.3027  -42.7236 H         1 UNK         0.0612 
@<TRIPOS>BOND
     1    1    2 1    
     2    1   62 1    
     3    1   63 1    
     4    1   64 1    
     5    2    3 2    
     6    2    4 am   BACKBONE|DICT|INTERRES
     7    4    5 1    
     8    4   65 1    
     9    5    6 1    
    10    5   25 1    
    11    5   66 1    
    12    6    7 1    
    13    6   67 1    
    14    6   68 1    
    15    7    8 1    
    16    8    9 1    
    17    8   69 1    
    18    8   70 1    
    19    9   10 ar   
    20    9   14 ar   
    21   10   11 ar   
    22   10   71 1    
    23   11   12 ar   
    24   11   61 1    
    25   12   13 ar   
    26   12   72 1    
    27   13   14 ar   
    28   13   15 1    
    29   14   73 1    
    30   15   16 1    
    31   15   74 1    
    32   15   75 1    
    33   16   17 1    
    34   17   18 1    
    35   17   76 1    
    36   17   77 1    
    37   18   19 1    
    38   18   27 1    
    39   18   78 1    
    40   19   20 am   BACKBONE|DICT|INTERRES
    41   19   79 1    
    42   20   21 2    
    43   20   22 1    
    44   22   23 1    
    45   22   24 1    
    46   22   80 1    
    47   23   81 1    
    48   23   82 1    
    49   23   83 1    
    50   24   25 am   BACKBONE|DICT|INTERRES
    51   24   84 1    
    52   25   26 2    
    53   27   28 2    
    54   27   29 am   BACKBONE|DICT|INTERRES
    55   29   30 1    
    56   29   85 1    
    57   30   31 1    
    58   30   32 1    
    59   30   86 1    
    60   31   87 1    
    61   31   88 1    
    62   31   89 1    
    63   32   33 2    
    64   32   34 am   BACKBONE|DICT|INTERRES
    65   34   35 1    
    66   34   90 1    
    67   35   36 1    
    68   35   37 1    
    69   35   91 1    
    70   36   92 1    
    71   36   93 1    
    72   36   94 1    
    73   37   38 2    
    74   37   39 am   BACKBONE|DICT|INTERRES
    75   39   40 1    
    76   39   95 1    
    77   40   41 1    
    78   40   42 1    
    79   40   96 1    
    80   41   97 1    
    81   41   98 1    
    82   41   99 1    
    83   42   43 2    
    84   42   44 am   BACKBONE|DICT|INTERRES
    85   44   45 1    
    86   44  100 1    
    87   45   46 1    
    88   45   47 1    
    89   45  101 1    
    90   46  102 1    
    91   46  103 1    
    92   46  104 1    
    93   47   48 2    
    94   47   49 am   BACKBONE|DICT|INTERRES
    95   49   50 1    
    96   49  105 1    
    97   50   51 1    
    98   50   52 1    
    99   50  106 1    
   100   51  107 1    
   101   51  108 1    
   102   51  109 1    
   103   52   53 2    
   104   52   54 am   BACKBONE|DICT|INTERRES
   105   54   55 1    
   106   54  110 1    
   107   55   56 1    
   108   55   59 1    
   109   55  111 1    
   110   56   57 am   BACKBONE|DICT|INTERRES
   111   56   58 2    
   112   57  112 1    
   113   57  113 1    
   114   59   60 1    
   115   59  114 1    
   116   59  115 1    
   117   60   61 1    
   118   61  116 1    
   119   61  117 1    
@<TRIPOS>SUBSTRUCTURE
     1 UNK         1 GROUP             0       ****    0 ROOT    
