@<TRIPOS>MOLECULE
3R8
117   119    1
SMALL
USER_CHARGES


@<TRIPOS>ATOM
      1 CA         16.1973  -22.3812  -45.2558 C.3       0 UNK        -0.2013 
      2 C          16.9184  -23.7201  -45.2885 C.2       0 UNK         0.4866 
      3 O          17.6491  -24.0017  -46.2398 O.2       0 UNK        -0.5176 
      4 N          16.7265  -24.5511  -44.2559 N.am      1 UNK        -0.4884 
      5 CA         17.3338  -25.8792  -44.1113 C.3       1 UNK         0.0853 
      6 C6         16.4934  -26.7996  -43.1859 C.3       10 UNK        -0.0849 
      7 S7         14.9148  -27.2647  -43.9806 S.3       10 UNK        -0.2776 
      8 C8         14.8227  -29.0697  -43.6774 C.3       10 UNK         0.0316 
      9 C9         15.9338  -29.9321  -44.2876 C.ar      10 UNK        -0.0863 
     10 C10        16.0603  -31.2546  -43.8492 C.ar      10 UNK        -0.1009 
     11 C11        17.0718  -32.0824  -44.3444 C.ar      10 UNK        -0.0712 
     12 C12        17.9635  -31.5833  -45.2967 C.ar      10 UNK        -0.0894 
     13 C13        17.8711  -30.2568  -45.7300 C.ar      10 UNK        -0.0745 
     14 C14        16.8327  -29.4532  -45.2500 C.ar      10 UNK        -0.0972 
     15 C15        18.9098  -29.6572  -46.6769 C.3       10 UNK         0.0209 
     16 S16        20.6462  -30.1001  -46.2890 S.3       10 UNK        -0.2568 
     17 C17        20.7487  -29.9862  -44.4679 C.3       10 UNK        -0.0983 
     18 CA         21.7007  -28.8852  -43.9548 C.3       3 UNK         0.0876 
     19 N          21.2748  -27.5513  -44.3810 N.am      3 UNK        -0.4424 
     20 C          21.8713  -26.3950  -44.0609 C.2       2 UNK         0.4918 
     21 O          22.9414  -26.3239  -43.4568 O.2       2 UNK        -0.4875 
     22 CA         21.1128  -25.0996  -44.4071 C.3       2 UNK         0.0481 
     23 CB         21.6970  -24.4649  -45.6777 C.3       2 UNK        -0.1831 
     24 N          19.6612  -25.2662  -44.5710 N.am      2 UNK        -0.4498 
     25 C          18.8065  -25.7672  -43.6656 C.2       1 UNK         0.5027 
     26 O          19.1497  -26.1523  -42.5462 O.2       1 UNK        -0.4969 
     27 C          21.8254  -29.0141  -42.4213 C.2       3 UNK         0.5005 
     28 O          22.7106  -29.7314  -41.9579 O.2       3 UNK        -0.5279 
     29 N          20.9597  -28.3264  -41.6593 N.am      4 UNK        -0.4463 
     30 CA         20.9952  -28.3164  -40.1950 C.3       4 UNK         0.0283 
     31 CB         19.6752  -27.7562  -39.6441 C.3       4 UNK        -0.1875 
     32 C          22.1971  -27.5338  -39.6428 C.2       4 UNK         0.4949 
     33 O          22.7860  -27.9558  -38.6486 O.2       4 UNK        -0.5039 
     34 N          22.5647  -26.4328  -40.3144 N.am      5 UNK        -0.4663 
     35 CA         23.7528  -25.6331  -40.0003 C.3       5 UNK         0.0242 
     36 CB         23.6528  -24.2628  -40.6901 C.3       5 UNK        -0.1982 
     37 C          25.0530  -26.3542  -40.3936 C.2       5 UNK         0.5017 
     38 O          26.0379  -26.2734  -39.6596 O.2       5 UNK        -0.5012 
     39 N          25.0179  -27.0726  -41.5249 N.am      6 UNK        -0.4439 
     40 CA         26.1037  -27.9244  -42.0195 C.3       6 UNK         0.0297 
     41 CB         25.8447  -28.2437  -43.5011 C.3       6 UNK        -0.2006 
     42 C          26.2891  -29.2314  -41.2212 C.2       6 UNK         0.4892 
     43 O          27.3151  -29.8894  -41.3966 O.2       6 UNK        -0.5089 
     44 N          25.2971  -29.5926  -40.3918 N.am      7 UNK        -0.4243 
     45 CA         25.1762  -30.8360  -39.6183 C.3       7 UNK         0.0196 
     46 CB         26.3079  -30.9652  -38.5766 C.3       7 UNK        -0.2007 
     47 C          25.0212  -32.0890  -40.5058 C.2       7 UNK         0.5020 
     48 O          25.4213  -33.1838  -40.1072 O.2       7 UNK        -0.5147 
     49 N          24.4165  -31.9084  -41.6860 N.am      8 UNK        -0.4734 
     50 CA         24.0290  -32.9701  -42.6172 C.3       8 UNK         0.0238 
     51 CB         24.1514  -32.4348  -44.0537 C.3       8 UNK        -0.1912 
     52 C          22.5979  -33.4711  -42.3491 C.2       8 UNK         0.5038 
     53 O          22.2445  -34.5573  -42.8087 O.2       8 UNK        -0.5046 
     54 N          21.8086  -32.6792  -41.6159 N.am      9 UNK        -0.4200 
     55 CA         20.4478  -32.9758  -41.1612 C.3       9 UNK         0.0839 
     56 C          20.2019  -32.3341  -39.7652 C.2       9 UNK         0.5513 
     57 N          18.9641  -32.2973  -39.2951 N.am      9 UNK        -0.7519 
     58 O          21.1267  -31.8869  -39.0888 O.2       9 UNK        -0.4960 
     59 C59        19.3945  -32.6003  -42.2427 C.3       10 UNK        -0.0876 
     60 S60        17.8370  -33.5451  -42.1084 S.3       10 UNK        -0.2414 
     61 C61        17.2254  -33.5056  -43.8254 C.3       10 UNK         0.0169 
     62 H62        15.5483  -22.2842  -46.1258 H         1 UNK         0.0903 
     63 H63        15.5844  -22.2694  -44.3615 H         1 UNK         0.0903 
     64 H64        16.9197  -21.5658  -45.2767 H         1 UNK         0.0903 
     65 H65        16.1246  -24.2647  -43.4964 H         1 UNK         0.3096 
     66 H66        17.3603  -26.3431  -45.0989 H         1 UNK         0.1121 
     67 H67        16.2859  -26.3107  -42.2324 H         1 UNK         0.0849 
     68 H68        17.0434  -27.7103  -42.9405 H         1 UNK         0.0849 
     69 H69        14.7991  -29.2281  -42.5979 H         1 UNK         0.0865 
     70 H70        13.8655  -29.4281  -44.0585 H         1 UNK         0.0865 
     71 H71        15.3794  -31.6412  -43.1026 H         1 UNK         0.1346 
     72 H72        18.7597  -32.2135  -45.6685 H         1 UNK         0.1412 
     73 H73        16.7447  -28.4434  -45.6177 H         1 UNK         0.1426 
     74 H74        18.8363  -28.5687  -46.6788 H         1 UNK         0.0716 
     75 H75        18.6854  -29.9804  -47.6941 H         1 UNK         0.0716 
     76 H76        21.0848  -30.9647  -44.1210 H         1 UNK         0.0695 
     77 H77        19.7598  -29.8392  -44.0340 H         1 UNK         0.0695 
     78 H78        22.6914  -29.0584  -44.3782 H         1 UNK         0.0983 
     79 H79        20.4180  -27.5106  -44.9103 H         1 UNK         0.3095 
     80 H80        21.2666  -24.4070  -43.5773 H         1 UNK         0.0454 
     81 H81        21.2417  -23.4960  -45.8835 H         1 UNK         0.0851 
     82 H82        21.5468  -25.0994  -46.5521 H         1 UNK         0.0851 
     83 H83        22.7707  -24.3004  -45.5746 H         1 UNK         0.0851 
     84 H84        19.2562  -24.9143  -45.4338 H         1 UNK         0.2976 
     85 H85        20.2759  -27.7176  -42.1001 H         1 UNK         0.3116 
     86 H86        21.0896  -29.3476  -39.8523 H         1 UNK         0.0646 
     87 H87        18.8204  -28.3299  -40.0024 H         1 UNK         0.0847 
     88 H88        19.5247  -26.7146  -39.9299 H         1 UNK         0.0847 
     89 H89        19.6605  -27.7997  -38.5543 H         1 UNK         0.0847 
     90 H90        22.0422  -26.1726  -41.1389 H         1 UNK         0.3040 
     91 H91        23.7800  -25.4693  -38.9204 H         1 UNK         0.1015 
     92 H92        24.5096  -23.6373  -40.4359 H         1 UNK         0.0786 
     93 H93        22.7571  -23.7258  -40.3773 H         1 UNK         0.0786 
     94 H94        23.6281  -24.3523  -41.7765 H         1 UNK         0.0786 
     95 H95        24.1859  -27.0070  -42.1048 H         1 UNK         0.3172 
     96 H96        27.0364  -27.3612  -41.9488 H         1 UNK         0.0595 
     97 H97        24.9465  -28.8473  -43.6299 H         1 UNK         0.0839 
     98 H98        26.6758  -28.8046  -43.9308 H         1 UNK         0.0839 
     99 H99        25.7273  -27.3349  -44.0918 H         1 UNK         0.0839 
    100 H100       24.4865  -28.9887  -40.3590 H         1 UNK         0.2998 
    101 H101       24.2372  -30.7482  -39.0690 H         1 UNK         0.0822 
    102 H102       26.3884  -30.0658  -37.9659 H         1 UNK         0.0787 
    103 H103       26.1213  -31.7997  -37.8996 H         1 UNK         0.0787 
    104 H104       27.2757  -31.1408  -39.0468 H         1 UNK         0.0787 
    105 H105       24.0506  -30.9795  -41.8879 H         1 UNK         0.3055 
    106 H106       24.7034  -33.8222  -42.5057 H         1 UNK         0.1106 
    107 H107       23.5000  -31.5776  -44.2243 H         1 UNK         0.0828 
    108 H108       23.8802  -33.2010  -44.7813 H         1 UNK         0.0828 
    109 H109       25.1734  -32.1265  -44.2742 H         1 UNK         0.0828 
    110 H110       22.1949  -31.8144  -41.2571 H         1 UNK         0.2931 
    111 H111       20.4009  -34.0529  -40.9902 H         1 UNK         0.0412 
    112 H112       18.7890  -31.8965  -38.3871 H         1 UNK         0.3472 
    113 H113       18.2024  -32.6689  -39.8441 H         1 UNK         0.3472 
    114 H114       19.1737  -31.5315  -42.2228 H         1 UNK         0.0970 
    115 H115       19.8026  -32.8049  -43.2333 H         1 UNK         0.0970 
    116 H116       17.9039  -34.0797  -44.4584 H         1 UNK         0.0612 
    117 H117       16.2608  -34.0130  -43.8695 H         1 UNK         0.0612 
@<TRIPOS>BOND
     1    1    2 1    
     2    1   62 1    
     3    1   63 1    
     4    1   64 1    
     5    2    3 2    
     6    2    4 am   BACKBONE|DICT|INTERRES
     7    4    5 1    
     8    4   65 1    
     9    5    6 1    
    10    5   25 1    
    11    5   66 1    
    12    6    7 1    
    13    6   67 1    
    14    6   68 1    
    15    7    8 1    
    16    8    9 1    
    17    8   69 1    
    18    8   70 1    
    19    9   10 ar   
    20    9   14 ar   
    21   10   11 ar   
    22   10   71 1    
    23   11   12 ar   
    24   11   61 1    
    25   12   13 ar   
    26   12   72 1    
    27   13   14 ar   
    28   13   15 1    
    29   14   73 1    
    30   15   16 1    
    31   15   74 1    
    32   15   75 1    
    33   16   17 1    
    34   17   18 1    
    35   17   76 1    
    36   17   77 1    
    37   18   19 1    
    38   18   27 1    
    39   18   78 1    
    40   19   20 am   BACKBONE|DICT|INTERRES
    41   19   79 1    
    42   20   21 2    
    43   20   22 1    
    44   22   23 1    
    45   22   24 1    
    46   22   80 1    
    47   23   81 1    
    48   23   82 1    
    49   23   83 1    
    50   24   25 am   BACKBONE|DICT|INTERRES
    51   24   84 1    
    52   25   26 2    
    53   27   28 2    
    54   27   29 am   BACKBONE|DICT|INTERRES
    55   29   30 1    
    56   29   85 1    
    57   30   31 1    
    58   30   32 1    
    59   30   86 1    
    60   31   87 1    
    61   31   88 1    
    62   31   89 1    
    63   32   33 2    
    64   32   34 am   BACKBONE|DICT|INTERRES
    65   34   35 1    
    66   34   90 1    
    67   35   36 1    
    68   35   37 1    
    69   35   91 1    
    70   36   92 1    
    71   36   93 1    
    72   36   94 1    
    73   37   38 2    
    74   37   39 am   BACKBONE|DICT|INTERRES
    75   39   40 1    
    76   39   95 1    
    77   40   41 1    
    78   40   42 1    
    79   40   96 1    
    80   41   97 1    
    81   41   98 1    
    82   41   99 1    
    83   42   43 2    
    84   42   44 am   BACKBONE|DICT|INTERRES
    85   44   45 1    
    86   44  100 1    
    87   45   46 1    
    88   45   47 1    
    89   45  101 1    
    90   46  102 1    
    91   46  103 1    
    92   46  104 1    
    93   47   48 2    
    94   47   49 am   BACKBONE|DICT|INTERRES
    95   49   50 1    
    96   49  105 1    
    97   50   51 1    
    98   50   52 1    
    99   50  106 1    
   100   51  107 1    
   101   51  108 1    
   102   51  109 1    
   103   52   53 2    
   104   52   54 am   BACKBONE|DICT|INTERRES
   105   54   55 1    
   106   54  110 1    
   107   55   56 1    
   108   55   59 1    
   109   55  111 1    
   110   56   57 am   BACKBONE|DICT|INTERRES
   111   56   58 2    
   112   57  112 1    
   113   57  113 1    
   114   59   60 1    
   115   59  114 1    
   116   59  115 1    
   117   60   61 1    
   118   61  116 1    
   119   61  117 1    
@<TRIPOS>SUBSTRUCTURE
     1 UNK         1 GROUP             0       ****    0 ROOT    
