@<TRIPOS>MOLECULE
3R8
117   119    1
SMALL
USER_CHARGES


@<TRIPOS>ATOM
      1 CA         14.9629  -26.4839  -47.1873 C.3       0 UNK        -0.2013 
      2 C          15.7690  -25.2431  -46.8330 C.2       0 UNK         0.4866 
      3 O          15.1917  -24.1771  -46.6201 O.2       0 UNK        -0.5176 
      4 N          17.1012  -25.3740  -46.7697 N.am      1 UNK        -0.4884 
      5 CA         18.0464  -24.3010  -46.4271 C.3       1 UNK         0.0853 
      6 C6         19.5095  -24.7095  -46.7559 C.3       10 UNK        -0.0849 
      7 S7         20.1283  -26.1439  -45.7962 S.3       10 UNK        -0.2776 
      8 C8         19.9936  -27.5135  -46.9882 C.3       10 UNK         0.0316 
      9 C9         19.5605  -28.7826  -46.2725 C.ar      10 UNK        -0.0863 
     10 C10        20.5075  -29.7064  -45.8224 C.ar      10 UNK        -0.1009 
     11 C11        20.1068  -30.8501  -45.1233 C.ar      10 UNK        -0.0712 
     12 C12        18.7475  -31.0643  -44.8701 C.ar      10 UNK        -0.0894 
     13 C13        17.7929  -30.1416  -45.3106 C.ar      10 UNK        -0.0745 
     14 C14        18.2055  -29.0169  -46.0294 C.ar      10 UNK        -0.0972 
     15 C15        16.3186  -30.3268  -44.9790 C.3       10 UNK         0.0209 
     16 S16        15.6738  -28.9416  -43.9804 S.3       10 UNK        -0.2568 
     17 C17        16.5414  -29.1814  -42.3906 C.3       10 UNK        -0.0983 
     18 CA         17.9211  -28.4653  -42.3129 C.3       3 UNK         0.0876 
     19 N          17.8937  -27.0424  -42.6766 N.am      3 UNK        -0.4424 
     20 C          17.2423  -26.0582  -42.0357 C.2       2 UNK         0.4918 
     21 O          16.5503  -26.2202  -41.0312 O.2       2 UNK        -0.4875 
     22 CA         17.3994  -24.6467  -42.6213 C.3       2 UNK         0.0481 
     23 CB         18.6195  -23.9699  -41.9577 C.3       2 UNK        -0.1831 
     24 N          17.5298  -24.7440  -44.0787 N.am      2 UNK        -0.4498 
     25 C          17.9109  -23.8148  -44.9652 C.2       1 UNK         0.5027 
     26 O          18.1596  -22.6405  -44.6894 O.2       1 UNK        -0.4969 
     27 C          18.6588  -28.7124  -40.9788 C.2       3 UNK         0.5005 
     28 O          18.2924  -29.6124  -40.2217 O.2       3 UNK        -0.5279 
     29 N          19.7107  -27.9212  -40.7323 N.am      4 UNK        -0.4463 
     30 CA         20.5995  -28.0118  -39.5741 C.3       4 UNK         0.0283 
     31 CB         19.9978  -27.2361  -38.3852 C.3       4 UNK        -0.1875 
     32 C          22.0045  -27.5253  -39.9672 C.2       4 UNK         0.4949 
     33 O          22.6405  -26.7926  -39.2082 O.2       4 UNK        -0.5039 
     34 N          22.4473  -27.9055  -41.1742 N.am      5 UNK        -0.4663 
     35 CA         23.7472  -27.5391  -41.7391 C.3       5 UNK         0.0242 
     36 CB         23.6914  -27.7279  -43.2663 C.3       5 UNK        -0.1982 
     37 C          24.9011  -28.3520  -41.1237 C.2       5 UNK         0.5017 
     38 O          24.6675  -29.3510  -40.4366 O.2       5 UNK        -0.5012 
     39 N          26.1361  -27.9300  -41.4345 N.am      6 UNK        -0.4439 
     40 CA         27.4072  -28.5032  -40.9648 C.3       6 UNK         0.0297 
     41 CB         28.5666  -27.6416  -41.4924 C.3       6 UNK        -0.2006 
     42 C          27.6426  -29.9883  -41.3119 C.2       6 UNK         0.4892 
     43 O          28.5227  -30.6098  -40.7160 O.2       6 UNK        -0.5089 
     44 N          26.8405  -30.5407  -42.2323 N.am      7 UNK        -0.4243 
     45 CA         26.7572  -31.9698  -42.5451 C.3       7 UNK         0.0196 
     46 CB         26.0114  -32.1348  -43.8806 C.3       7 UNK        -0.2007 
     47 C          26.0890  -32.8164  -41.4378 C.2       7 UNK         0.5020 
     48 O          26.0617  -34.0400  -41.5708 O.2       7 UNK        -0.5147 
     49 N          25.5636  -32.1675  -40.3849 N.am      8 UNK        -0.4734 
     50 CA         24.8370  -32.7364  -39.2423 C.3       8 UNK         0.0238 
     51 CB         25.6964  -33.7529  -38.4587 C.3       8 UNK        -0.1912 
     52 C          23.4645  -33.2831  -39.6676 C.2       8 UNK         0.5038 
     53 O          23.1156  -34.4218  -39.3489 O.2       8 UNK        -0.5046 
     54 N          22.7282  -32.4444  -40.4055 N.am      9 UNK        -0.4200 
     55 CA         21.3770  -32.6993  -40.9226 C.3       9 UNK         0.0839 
     56 C          20.3337  -32.9573  -39.8006 C.2       9 UNK         0.5513 
     57 N          19.3497  -33.8087  -40.0560 N.am      9 UNK        -0.7519 
     58 O          20.3883  -32.3670  -38.7236 O.2       9 UNK        -0.4960 
     59 C59        20.9089  -31.5391  -41.8360 C.3       10 UNK        -0.0876 
     60 S60        22.0686  -31.2173  -43.2065 S.3       10 UNK        -0.2414 
     61 C61        21.1508  -31.8474  -44.6443 C.3       10 UNK         0.0169 
     62 H62        14.2146  -26.2435  -47.9421 H         1 UNK         0.0903 
     63 H63        15.5912  -27.2815  -47.5824 H         1 UNK         0.0903 
     64 H64        14.4471  -26.8606  -46.3043 H         1 UNK         0.0903 
     65 H65        17.5221  -26.2661  -46.9771 H         1 UNK         0.3096 
     66 H66        17.7962  -23.4432  -47.0560 H         1 UNK         0.1121 
     67 H67        19.6072  -24.9144  -47.8231 H         1 UNK         0.0849 
     68 H68        20.1797  -23.8683  -46.5676 H         1 UNK         0.0849 
     69 H69        19.2787  -27.2756  -47.7767 H         1 UNK         0.0865 
     70 H70        20.9558  -27.6574  -47.4825 H         1 UNK         0.0865 
     71 H71        21.5597  -29.5301  -46.0009 H         1 UNK         0.1346 
     72 H72        18.4349  -31.9397  -44.3176 H         1 UNK         0.1412 
     73 H73        17.4654  -28.3051  -46.3625 H         1 UNK         0.1426 
     74 H74        16.1458  -31.2660  -44.4513 H         1 UNK         0.0716 
     75 H75        15.7513  -30.3856  -45.9088 H         1 UNK         0.0716 
     76 H76        16.6572  -30.2535  -42.2213 H         1 UNK         0.0695 
     77 H77        15.8849  -28.8224  -41.5964 H         1 UNK         0.0695 
     78 H78        18.5690  -28.9308  -43.0536 H         1 UNK         0.0983 
     79 H79        18.4700  -26.7930  -43.4680 H         1 UNK         0.3095 
     80 H80        16.4971  -24.0766  -42.3938 H         1 UNK         0.0454 
     81 H81        19.5592  -24.4155  -42.2857 H         1 UNK         0.0851 
     82 H82        18.5769  -24.0603  -40.8712 H         1 UNK         0.0851 
     83 H83        18.6592  -22.9035  -42.1765 H         1 UNK         0.0851 
     84 H84        17.2714  -25.6414  -44.4647 H         1 UNK         0.2976 
     85 H85        19.9435  -27.2030  -41.4044 H         1 UNK         0.3116 
     86 H86        20.7062  -29.0589  -39.2824 H         1 UNK         0.0646 
     87 H87        19.8842  -26.1760  -38.6142 H         1 UNK         0.0847 
     88 H88        20.6331  -27.3158  -37.5022 H         1 UNK         0.0847 
     89 H89        19.0175  -27.6264  -38.1116 H         1 UNK         0.0847 
     90 H90        21.8908  -28.5486  -41.7173 H         1 UNK         0.3040 
     91 H91        23.9276  -26.4830  -41.5249 H         1 UNK         0.1015 
     92 H92        23.6053  -28.7779  -43.5443 H         1 UNK         0.0786 
     93 H93        24.5900  -27.3404  -43.7475 H         1 UNK         0.0786 
     94 H94        22.8446  -27.1973  -43.7033 H         1 UNK         0.0786 
     95 H95        26.2189  -27.1135  -42.0238 H         1 UNK         0.3172 
     96 H96        27.4033  -28.4351  -39.8750 H         1 UNK         0.0595 
     97 H97        28.6066  -27.6424  -42.5824 H         1 UNK         0.0839 
     98 H98        29.5272  -28.0133  -41.1322 H         1 UNK         0.0839 
     99 H99        28.4798  -26.6074  -41.1583 H         1 UNK         0.0839 
    100 H100       26.1502  -29.9460  -42.6662 H         1 UNK         0.2998 
    101 H101       27.7730  -32.3509  -42.6698 H         1 UNK         0.0822 
    102 H102       26.5139  -31.5986  -44.6858 H         1 UNK         0.0787 
    103 H103       25.9611  -33.1838  -44.1758 H         1 UNK         0.0787 
    104 H104       24.9874  -31.7657  -43.8182 H         1 UNK         0.0787 
    105 H105       25.5788  -31.1522  -40.4117 H         1 UNK         0.3055 
    106 H106       24.6317  -31.9025  -38.5685 H         1 UNK         0.1106 
    107 H107       25.1941  -34.0556  -37.5392 H         1 UNK         0.0828 
    108 H108       25.8867  -34.6599  -39.0328 H         1 UNK         0.0828 
    109 H109       26.6584  -33.3252  -38.1768 H         1 UNK         0.0828 
    110 H110       23.1170  -31.5389  -40.6254 H         1 UNK         0.2931 
    111 H111       21.4430  -33.6034  -41.5315 H         1 UNK         0.0412 
    112 H112       18.6534  -33.9776  -39.3465 H         1 UNK         0.3472 
    113 H113       19.2944  -34.2964  -40.9367 H         1 UNK         0.3472 
    114 H114       19.9133  -31.7385  -42.2354 H         1 UNK         0.0970 
    115 H115       20.8215  -30.6235  -41.2526 H         1 UNK         0.0970 
    116 H116       20.6974  -32.8093  -44.4001 H         1 UNK         0.0612 
    117 H117       21.8585  -32.0397  -45.4519 H         1 UNK         0.0612 
@<TRIPOS>BOND
     1    1    2 1    
     2    1   62 1    
     3    1   63 1    
     4    1   64 1    
     5    2    3 2    
     6    2    4 am   BACKBONE|DICT|INTERRES
     7    4    5 1    
     8    4   65 1    
     9    5    6 1    
    10    5   25 1    
    11    5   66 1    
    12    6    7 1    
    13    6   67 1    
    14    6   68 1    
    15    7    8 1    
    16    8    9 1    
    17    8   69 1    
    18    8   70 1    
    19    9   10 ar   
    20    9   14 ar   
    21   10   11 ar   
    22   10   71 1    
    23   11   12 ar   
    24   11   61 1    
    25   12   13 ar   
    26   12   72 1    
    27   13   14 ar   
    28   13   15 1    
    29   14   73 1    
    30   15   16 1    
    31   15   74 1    
    32   15   75 1    
    33   16   17 1    
    34   17   18 1    
    35   17   76 1    
    36   17   77 1    
    37   18   19 1    
    38   18   27 1    
    39   18   78 1    
    40   19   20 am   BACKBONE|DICT|INTERRES
    41   19   79 1    
    42   20   21 2    
    43   20   22 1    
    44   22   23 1    
    45   22   24 1    
    46   22   80 1    
    47   23   81 1    
    48   23   82 1    
    49   23   83 1    
    50   24   25 am   BACKBONE|DICT|INTERRES
    51   24   84 1    
    52   25   26 2    
    53   27   28 2    
    54   27   29 am   BACKBONE|DICT|INTERRES
    55   29   30 1    
    56   29   85 1    
    57   30   31 1    
    58   30   32 1    
    59   30   86 1    
    60   31   87 1    
    61   31   88 1    
    62   31   89 1    
    63   32   33 2    
    64   32   34 am   BACKBONE|DICT|INTERRES
    65   34   35 1    
    66   34   90 1    
    67   35   36 1    
    68   35   37 1    
    69   35   91 1    
    70   36   92 1    
    71   36   93 1    
    72   36   94 1    
    73   37   38 2    
    74   37   39 am   BACKBONE|DICT|INTERRES
    75   39   40 1    
    76   39   95 1    
    77   40   41 1    
    78   40   42 1    
    79   40   96 1    
    80   41   97 1    
    81   41   98 1    
    82   41   99 1    
    83   42   43 2    
    84   42   44 am   BACKBONE|DICT|INTERRES
    85   44   45 1    
    86   44  100 1    
    87   45   46 1    
    88   45   47 1    
    89   45  101 1    
    90   46  102 1    
    91   46  103 1    
    92   46  104 1    
    93   47   48 2    
    94   47   49 am   BACKBONE|DICT|INTERRES
    95   49   50 1    
    96   49  105 1    
    97   50   51 1    
    98   50   52 1    
    99   50  106 1    
   100   51  107 1    
   101   51  108 1    
   102   51  109 1    
   103   52   53 2    
   104   52   54 am   BACKBONE|DICT|INTERRES
   105   54   55 1    
   106   54  110 1    
   107   55   56 1    
   108   55   59 1    
   109   55  111 1    
   110   56   57 am   BACKBONE|DICT|INTERRES
   111   56   58 2    
   112   57  112 1    
   113   57  113 1    
   114   59   60 1    
   115   59  114 1    
   116   59  115 1    
   117   60   61 1    
   118   61  116 1    
   119   61  117 1    
@<TRIPOS>SUBSTRUCTURE
     1 UNK         1 GROUP             0       ****    0 ROOT    
