@<TRIPOS>MOLECULE
3R8
117   119    1
SMALL
USER_CHARGES


@<TRIPOS>ATOM
      1 CA         16.5000  -22.6152  -46.4165 C.3       0 UNK        -0.2013 
      2 C          16.8315  -23.6513  -45.3529 C.2       0 UNK         0.4866 
      3 O          16.7291  -23.3545  -44.1626 O.2       0 UNK        -0.5176 
      4 N          17.2321  -24.8582  -45.7790 N.am      1 UNK        -0.4884 
      5 CA         17.5839  -26.0134  -44.9363 C.3       1 UNK         0.0853 
      6 C6         16.3798  -26.6019  -44.1478 C.3       10 UNK        -0.0849 
      7 S7         15.1030  -27.2649  -45.2711 S.3       10 UNK        -0.2776 
      8 C8         14.9682  -29.0037  -44.7164 C.3       10 UNK         0.0316 
      9 C9         16.2407  -29.8444  -44.8523 C.ar      10 UNK        -0.0863 
     10 C10        16.4378  -30.9177  -43.9761 C.ar      10 UNK        -0.1009 
     11 C11        17.5629  -31.7429  -44.0787 C.ar      10 UNK        -0.0712 
     12 C12        18.5124  -31.4680  -45.0714 C.ar      10 UNK        -0.0894 
     13 C13        18.3387  -30.3962  -45.9488 C.ar      10 UNK        -0.0745 
     14 C14        17.1934  -29.6020  -45.8490 C.ar      10 UNK        -0.0972 
     15 C15        19.3766  -30.1111  -47.0229 C.3       10 UNK         0.0209 
     16 S16        20.4412  -28.7044  -46.5773 S.3       10 UNK        -0.2568 
     17 C17        21.5954  -29.4335  -45.3483 C.3       10 UNK        -0.0983 
     18 CA         22.0671  -28.4796  -44.2006 C.3       3 UNK         0.0876 
     19 N          21.6339  -27.0928  -44.3918 N.am      3 UNK        -0.4424 
     20 C          21.9049  -26.0229  -43.6342 C.2       2 UNK         0.4918 
     21 O          22.6804  -26.0354  -42.6791 O.2       2 UNK        -0.4875 
     22 CA         21.1072  -24.7441  -43.9543 C.3       2 UNK         0.0481 
     23 CB         21.9337  -23.8109  -44.8513 C.3       2 UNK        -0.1831 
     24 N          19.8034  -25.0067  -44.5843 N.am      2 UNK        -0.4498 
     25 C          18.8204  -25.7515  -44.0490 C.2       1 UNK         0.5027 
     26 O          18.9009  -26.2669  -42.9330 O.2       1 UNK        -0.4969 
     27 C          21.7317  -29.0453  -42.8009 C.2       3 UNK         0.5005 
     28 O          22.4656  -29.9106  -42.3203 O.2       3 UNK        -0.5279 
     29 N          20.6875  -28.5262  -42.1348 N.am      4 UNK        -0.4463 
     30 CA         20.3545  -28.8570  -40.7451 C.3       4 UNK         0.0283 
     31 CB         18.9950  -28.2463  -40.3753 C.3       4 UNK        -0.1875 
     32 C          21.4367  -28.4347  -39.7337 C.2       4 UNK         0.4949 
     33 O          21.5564  -29.0684  -38.6861 O.2       4 UNK        -0.5039 
     34 N          22.2174  -27.3998  -40.0707 N.am      5 UNK        -0.4663 
     35 CA         23.3809  -26.9549  -39.3068 C.3       5 UNK         0.0242 
     36 CB         23.3566  -25.4219  -39.1838 C.3       5 UNK        -0.1982 
     37 C          24.6795  -27.4277  -39.9745 C.2       5 UNK         0.5017 
     38 O          25.5254  -28.0121  -39.2989 O.2       5 UNK        -0.5012 
     39 N          24.8149  -27.1696  -41.2839 N.am      6 UNK        -0.4439 
     40 CA         26.0402  -27.3799  -42.0608 C.3       6 UNK         0.0297 
     41 CB         25.9100  -26.6793  -43.4231 C.3       6 UNK        -0.2006 
     42 C          26.4362  -28.8538  -42.2467 C.2       6 UNK         0.4892 
     43 O          27.6315  -29.1501  -42.2531 O.2       6 UNK        -0.5089 
     44 N          25.4441  -29.7424  -42.3885 N.am      7 UNK        -0.4243 
     45 CA         25.6344  -31.1918  -42.5078 C.3       7 UNK         0.0196 
     46 CB         24.9531  -31.6813  -43.7996 C.3       7 UNK        -0.2007 
     47 C          25.0918  -31.9398  -41.2768 C.2       7 UNK         0.5020 
     48 O          25.1418  -33.1698  -41.2580 O.2       7 UNK        -0.5147 
     49 N          24.5753  -31.1967  -40.2839 N.am      8 UNK        -0.4734 
     50 CA         23.9251  -31.6684  -39.0542 C.3       8 UNK         0.0238 
     51 CB         24.9551  -32.3389  -38.1199 C.3       8 UNK        -0.1912 
     52 C          22.6872  -32.5529  -39.3168 C.2       8 UNK         0.5038 
     53 O          22.4314  -33.4844  -38.5507 O.2       8 UNK        -0.5046 
     54 N          21.9594  -32.2649  -40.4058 N.am      9 UNK        -0.4200 
     55 CA         20.7644  -33.0018  -40.8379 C.3       9 UNK         0.0839 
     56 C          19.5958  -32.9263  -39.8132 C.2       9 UNK         0.5513 
     57 N          18.8881  -34.0260  -39.5937 N.am      9 UNK        -0.7519 
     58 O          19.3041  -31.8772  -39.2455 O.2       9 UNK        -0.4960 
     59 C59        20.3320  -32.5490  -42.2558 C.3       10 UNK        -0.0876 
     60 S60        19.2965  -33.7878  -43.1025 S.3       10 UNK        -0.2414 
     61 C61        17.6814  -32.9327  -43.1211 C.3       10 UNK         0.0169 
     62 H62        16.6331  -23.0064  -47.4249 H         1 UNK         0.0903 
     63 H63        15.4647  -22.2912  -46.3134 H         1 UNK         0.0903 
     64 H64        17.1428  -21.7425  -46.3037 H         1 UNK         0.0903 
     65 H65        17.2804  -25.0280  -46.7747 H         1 UNK         0.3096 
     66 H66        17.9215  -26.7870  -45.6267 H         1 UNK         0.1121 
     67 H67        15.9290  -25.8473  -43.5018 H         1 UNK         0.0849 
     68 H68        16.7038  -27.4060  -43.4845 H         1 UNK         0.0849 
     69 H69        14.6326  -29.0014  -43.6780 H         1 UNK         0.0865 
     70 H70        14.1772  -29.4871  -45.2911 H         1 UNK         0.0865 
     71 H71        15.6970  -31.1270  -43.2159 H         1 UNK         0.1346 
     72 H72        19.3882  -32.0902  -45.1821 H         1 UNK         0.1412 
     73 H73        17.0497  -28.7960  -46.5543 H         1 UNK         0.1426 
     74 H74        19.9939  -30.9896  -47.2177 H         1 UNK         0.0716 
     75 H75        18.8694  -29.8828  -47.9615 H         1 UNK         0.0716 
     76 H76        22.4699  -29.7748  -45.9046 H         1 UNK         0.0695 
     77 H77        21.1498  -30.3482  -44.9538 H         1 UNK         0.0695 
     78 H78        23.1571  -28.4498  -44.2394 H         1 UNK         0.0983 
     79 H79        20.9955  -26.9697  -45.1653 H         1 UNK         0.3095 
     80 H80        20.9182  -24.2331  -43.0082 H         1 UNK         0.0454 
     81 H81        21.4240  -22.8611  -45.0136 H         1 UNK         0.0851 
     82 H82        22.1335  -24.2574  -45.8262 H         1 UNK         0.0851 
     83 H83        22.8979  -23.5839  -44.3937 H         1 UNK         0.0851 
     84 H84        19.6509  -24.6087  -45.5002 H         1 UNK         0.2976 
     85 H85        20.1272  -27.7992  -42.5706 H         1 UNK         0.3116 
     86 H86        20.2628  -29.9392  -40.6797 H         1 UNK         0.0646 
     87 H87        18.2139  -28.5669  -41.0650 H         1 UNK         0.0847 
     88 H88        18.6911  -28.5570  -39.3748 H         1 UNK         0.0847 
     89 H89        19.0260  -27.1562  -40.3836 H         1 UNK         0.0847 
     90 H90        22.0635  -26.9466  -40.9643 H         1 UNK         0.3040 
     91 H91        23.3573  -27.3711  -38.2968 H         1 UNK         0.1015 
     92 H92        23.3630  -24.9312  -40.1580 H         1 UNK         0.0786 
     93 H93        24.2244  -25.0609  -38.6300 H         1 UNK         0.0786 
     94 H94        22.4687  -25.0851  -38.6484 H         1 UNK         0.0786 
     95 H95        24.0557  -26.6879  -41.7634 H         1 UNK         0.3172 
     96 H96        26.8533  -26.8952  -41.5161 H         1 UNK         0.0595 
     97 H97        25.1026  -27.0991  -44.0224 H         1 UNK         0.0839 
     98 H98        26.8295  -26.7782  -44.0020 H         1 UNK         0.0839 
     99 H99        25.7173  -25.6129  -43.3043 H         1 UNK         0.0839 
    100 H100       24.4802  -29.4299  -42.3594 H         1 UNK         0.2998 
    101 H101       26.6965  -31.4357  -42.5761 H         1 UNK         0.0822 
    102 H102       25.1442  -32.7426  -43.9630 H         1 UNK         0.0787 
    103 H103       23.8717  -31.5501  -43.7675 H         1 UNK         0.0787 
    104 H104       25.3298  -31.1483  -44.6726 H         1 UNK         0.0787 
    105 H105       24.6118  -30.1934  -40.3949 H         1 UNK         0.3055 
    106 H106       23.5542  -30.7796  -38.5424 H         1 UNK         0.1106 
    107 H107       25.8086  -31.6859  -37.9376 H         1 UNK         0.0828 
    108 H108       24.5129  -32.5685  -37.1497 H         1 UNK         0.0828 
    109 H109       25.3301  -33.2746  -38.5354 H         1 UNK         0.0828 
    110 H110       22.2363  -31.4759  -40.9796 H         1 UNK         0.2931 
    111 H111       21.0793  -34.0454  -40.9074 H         1 UNK         0.0412 
    112 H112       19.1056  -34.8860  -40.0730 H         1 UNK         0.3472 
    113 H113       18.1206  -33.9947  -38.9410 H         1 UNK         0.3472 
    114 H114       19.8244  -31.5839  -42.2292 H         1 UNK         0.0970 
    115 H115       21.2123  -32.4010  -42.8838 H         1 UNK         0.0970 
    116 H116       16.9191  -33.6639  -43.3930 H         1 UNK         0.0612 
    117 H117       17.4480  -32.6086  -42.1056 H         1 UNK         0.0612 
@<TRIPOS>BOND
     1    1    2 1    
     2    1   62 1    
     3    1   63 1    
     4    1   64 1    
     5    2    3 2    
     6    2    4 am   BACKBONE|DICT|INTERRES
     7    4    5 1    
     8    4   65 1    
     9    5    6 1    
    10    5   25 1    
    11    5   66 1    
    12    6    7 1    
    13    6   67 1    
    14    6   68 1    
    15    7    8 1    
    16    8    9 1    
    17    8   69 1    
    18    8   70 1    
    19    9   10 ar   
    20    9   14 ar   
    21   10   11 ar   
    22   10   71 1    
    23   11   12 ar   
    24   11   61 1    
    25   12   13 ar   
    26   12   72 1    
    27   13   14 ar   
    28   13   15 1    
    29   14   73 1    
    30   15   16 1    
    31   15   74 1    
    32   15   75 1    
    33   16   17 1    
    34   17   18 1    
    35   17   76 1    
    36   17   77 1    
    37   18   19 1    
    38   18   27 1    
    39   18   78 1    
    40   19   20 am   BACKBONE|DICT|INTERRES
    41   19   79 1    
    42   20   21 2    
    43   20   22 1    
    44   22   23 1    
    45   22   24 1    
    46   22   80 1    
    47   23   81 1    
    48   23   82 1    
    49   23   83 1    
    50   24   25 am   BACKBONE|DICT|INTERRES
    51   24   84 1    
    52   25   26 2    
    53   27   28 2    
    54   27   29 am   BACKBONE|DICT|INTERRES
    55   29   30 1    
    56   29   85 1    
    57   30   31 1    
    58   30   32 1    
    59   30   86 1    
    60   31   87 1    
    61   31   88 1    
    62   31   89 1    
    63   32   33 2    
    64   32   34 am   BACKBONE|DICT|INTERRES
    65   34   35 1    
    66   34   90 1    
    67   35   36 1    
    68   35   37 1    
    69   35   91 1    
    70   36   92 1    
    71   36   93 1    
    72   36   94 1    
    73   37   38 2    
    74   37   39 am   BACKBONE|DICT|INTERRES
    75   39   40 1    
    76   39   95 1    
    77   40   41 1    
    78   40   42 1    
    79   40   96 1    
    80   41   97 1    
    81   41   98 1    
    82   41   99 1    
    83   42   43 2    
    84   42   44 am   BACKBONE|DICT|INTERRES
    85   44   45 1    
    86   44  100 1    
    87   45   46 1    
    88   45   47 1    
    89   45  101 1    
    90   46  102 1    
    91   46  103 1    
    92   46  104 1    
    93   47   48 2    
    94   47   49 am   BACKBONE|DICT|INTERRES
    95   49   50 1    
    96   49  105 1    
    97   50   51 1    
    98   50   52 1    
    99   50  106 1    
   100   51  107 1    
   101   51  108 1    
   102   51  109 1    
   103   52   53 2    
   104   52   54 am   BACKBONE|DICT|INTERRES
   105   54   55 1    
   106   54  110 1    
   107   55   56 1    
   108   55   59 1    
   109   55  111 1    
   110   56   57 am   BACKBONE|DICT|INTERRES
   111   56   58 2    
   112   57  112 1    
   113   57  113 1    
   114   59   60 1    
   115   59  114 1    
   116   59  115 1    
   117   60   61 1    
   118   61  116 1    
   119   61  117 1    
@<TRIPOS>SUBSTRUCTURE
     1 UNK         1 GROUP             0       ****    0 ROOT    
