@<TRIPOS>MOLECULE
3R8
117   119    1
SMALL
USER_CHARGES


@<TRIPOS>ATOM
      1 CA         14.8250  -22.5789  -41.6900 C.3       0 UNK        -0.2013 
      2 C          15.6510  -23.2351  -42.7863 C.2       0 UNK         0.4866 
      3 O          16.2863  -22.5361  -43.5767 O.2       0 UNK        -0.5176 
      4 N          15.6398  -24.5720  -42.8468 N.am      1 UNK        -0.4884 
      5 CA         16.4345  -25.3752  -43.7808 C.3       1 UNK         0.0853 
      6 C6         15.8423  -26.8013  -43.9541 C.3       10 UNK        -0.0849 
      7 S7         15.6408  -27.7571  -42.4035 S.3       10 UNK        -0.2776 
      8 C8         17.2347  -28.6319  -42.2419 C.3       10 UNK         0.0316 
      9 C9         17.2499  -29.9856  -42.9345 C.ar      10 UNK        -0.0863 
     10 C10        17.1470  -31.1521  -42.1754 C.ar      10 UNK        -0.1009 
     11 C11        17.2656  -32.4059  -42.7796 C.ar      10 UNK        -0.0712 
     12 C12        17.4359  -32.4912  -44.1648 C.ar      10 UNK        -0.0894 
     13 C13        17.5400  -31.3322  -44.9410 C.ar      10 UNK        -0.0745 
     14 C14        17.4457  -30.0832  -44.3150 C.ar      10 UNK        -0.0972 
     15 C15        17.7512  -31.4618  -46.4491 C.3       10 UNK         0.0209 
     16 S16        18.7415  -30.1259  -47.2052 S.3       10 UNK        -0.2568 
     17 C17        20.3819  -30.3888  -46.4532 C.3       10 UNK        -0.0983 
     18 CA         21.1583  -29.0573  -46.3279 C.3       3 UNK         0.0876 
     19 N          20.5723  -28.1590  -45.3225 N.am      3 UNK        -0.4424 
     20 C          20.7272  -26.8291  -45.3395 C.2       2 UNK         0.4918 
     21 O          21.2229  -26.2098  -46.2825 O.2       2 UNK        -0.4875 
     22 CA         20.2071  -26.0595  -44.1202 C.3       2 UNK         0.0481 
     23 CB         20.9926  -24.7532  -43.8784 C.3       2 UNK        -0.1831 
     24 N          18.7867  -25.7872  -44.3270 N.am      2 UNK        -0.4498 
     25 C          17.9233  -25.4222  -43.3710 C.2       1 UNK         0.5027 
     26 O          18.2521  -25.1991  -42.2022 O.2       1 UNK        -0.4969 
     27 C          22.6547  -29.2940  -46.0310 C.2       3 UNK         0.5005 
     28 O          23.4466  -29.4381  -46.9639 O.2       3 UNK        -0.5279 
     29 N          23.0156  -29.2692  -44.7441 N.am      4 UNK        -0.4463 
     30 CA         24.3717  -29.1397  -44.2231 C.3       4 UNK         0.0283 
     31 CB         24.7734  -30.4520  -43.5325 C.3       4 UNK        -0.1875 
     32 C          24.3914  -27.9659  -43.2321 C.2       4 UNK         0.4949 
     33 O          23.3384  -27.4001  -42.9288 O.2       4 UNK        -0.5039 
     34 N          25.5904  -27.6218  -42.7465 N.am      5 UNK        -0.4663 
     35 CA         25.8208  -26.5750  -41.7484 C.3       5 UNK         0.0242 
     36 CB         27.2820  -26.0916  -41.8549 C.3       5 UNK        -0.1982 
     37 C          25.4264  -27.0587  -40.3388 C.2       5 UNK         0.5017 
     38 O          24.2366  -27.1178  -40.0298 O.2       5 UNK        -0.5012 
     39 N          26.4181  -27.4087  -39.5066 N.am      6 UNK        -0.4439 
     40 CA         26.2389  -27.8382  -38.1130 C.3       6 UNK         0.0297 
     41 CB         27.6162  -27.9959  -37.4486 C.3       6 UNK        -0.2006 
     42 C          25.4110  -29.1265  -37.9440 C.2       6 UNK         0.4892 
     43 O          24.7461  -29.2842  -36.9197 O.2       6 UNK        -0.5089 
     44 N          25.4578  -30.0131  -38.9478 N.am      7 UNK        -0.4243 
     45 CA         24.6811  -31.2539  -38.9944 C.3       7 UNK         0.0196 
     46 CB         25.3709  -32.2407  -39.9512 C.3       7 UNK        -0.2007 
     47 C          23.2115  -31.0465  -39.4061 C.2       7 UNK         0.5020 
     48 O          22.4057  -31.9488  -39.1763 O.2       7 UNK        -0.5147 
     49 N          22.8900  -29.8946  -40.0188 N.am      8 UNK        -0.4734 
     50 CA         21.5996  -29.4753  -40.5907 C.3       8 UNK         0.0238 
     51 CB         20.5047  -29.3717  -39.5116 C.3       8 UNK        -0.1912 
     52 C          21.1273  -30.3226  -41.7868 C.2       8 UNK         0.5038 
     53 O          20.8654  -29.7602  -42.8523 O.2       8 UNK        -0.5046 
     54 N          21.0369  -31.6416  -41.5901 N.am      9 UNK        -0.4200 
     55 CA         20.6953  -32.6402  -42.6066 C.3       9 UNK         0.0839 
     56 C          21.9182  -32.9840  -43.4925 C.2       9 UNK         0.5513 
     57 N          21.7162  -33.1722  -44.7891 N.am      9 UNK        -0.7519 
     58 O          23.0332  -33.1477  -43.0036 O.2       9 UNK        -0.4960 
     59 C59        20.1071  -33.9404  -41.9880 C.3       10 UNK        -0.0876 
     60 S60        18.7284  -33.6836  -40.8158 S.3       10 UNK        -0.2414 
     61 C61        17.2761  -33.6586  -41.9186 C.3       10 UNK         0.0169 
     62 H62        14.3068  -23.3141  -41.0744 H         1 UNK         0.0903 
     63 H63        14.0785  -21.9165  -42.1275 H         1 UNK         0.0903 
     64 H64        15.4683  -21.9860  -41.0402 H         1 UNK         0.0903 
     65 H65        15.1331  -25.1032  -42.1521 H         1 UNK         0.3096 
     66 H66        16.3913  -24.8810  -44.7546 H         1 UNK         0.1121 
     67 H67        14.8506  -26.7135  -44.4006 H         1 UNK         0.0849 
     68 H68        16.4186  -27.3726  -44.6790 H         1 UNK         0.0849 
     69 H69        18.0612  -28.0323  -42.6170 H         1 UNK         0.0865 
     70 H70        17.4351  -28.7600  -41.1774 H         1 UNK         0.0865 
     71 H71        17.0271  -31.0892  -41.1024 H         1 UNK         0.1346 
     72 H72        17.5230  -33.4616  -44.6341 H         1 UNK         0.1412 
     73 H73        17.5487  -29.1860  -44.9039 H         1 UNK         0.1426 
     74 H74        18.2284  -32.4143  -46.6850 H         1 UNK         0.0716 
     75 H75        16.7727  -31.4794  -46.9304 H         1 UNK         0.0716 
     76 H76        20.9219  -31.1008  -47.0804 H         1 UNK         0.0695 
     77 H77        20.2712  -30.8543  -45.4731 H         1 UNK         0.0695 
     78 H78        21.1183  -28.5621  -47.3012 H         1 UNK         0.0983 
     79 H79        20.1975  -28.6080  -44.4942 H         1 UNK         0.3095 
     80 H80        20.3254  -26.7004  -43.2433 H         1 UNK         0.0454 
     81 H81        20.6935  -24.2703  -42.9485 H         1 UNK         0.0851 
     82 H82        20.8488  -24.0377  -44.6886 H         1 UNK         0.0851 
     83 H83        22.0622  -24.9544  -43.8035 H         1 UNK         0.0851 
     84 H84        18.4490  -25.9579  -45.2653 H         1 UNK         0.2976 
     85 H85        22.2860  -29.1317  -44.0492 H         1 UNK         0.3116 
     86 H86        25.0734  -28.9180  -45.0298 H         1 UNK         0.0646 
     87 H87        24.7104  -31.2938  -44.2221 H         1 UNK         0.0847 
     88 H88        25.7993  -30.4151  -43.1657 H         1 UNK         0.0847 
     89 H89        24.1269  -30.6699  -42.6822 H         1 UNK         0.0847 
     90 H90        26.4024  -28.1393  -43.0517 H         1 UNK         0.3040 
     91 H91        25.1738  -25.7247  -41.9772 H         1 UNK         0.1015 
     92 H92        28.0004  -26.9023  -41.7277 H         1 UNK         0.0786 
     93 H93        27.5012  -25.3278  -41.1070 H         1 UNK         0.0786 
     94 H94        27.4701  -25.6401  -42.8295 H         1 UNK         0.0786 
     95 H95        27.3686  -27.3307  -39.8393 H         1 UNK         0.3172 
     96 H96        25.7023  -27.0412  -37.5939 H         1 UNK         0.0595 
     97 H97        28.2191  -28.7593  -37.9420 H         1 UNK         0.0839 
     98 H98        27.5135  -28.2890  -36.4027 H         1 UNK         0.0839 
     99 H99        28.1763  -27.0607  -37.4654 H         1 UNK         0.0839 
    100 H100       26.0452  -29.8065  -39.7423 H         1 UNK         0.2998 
    101 H101       24.6760  -31.6997  -37.9971 H         1 UNK         0.0822 
    102 H102       25.4281  -31.8503  -40.9671 H         1 UNK         0.0787 
    103 H103       24.8258  -33.1848  -39.9991 H         1 UNK         0.0787 
    104 H104       26.3843  -32.4706  -39.6215 H         1 UNK         0.0787 
    105 H105       23.6208  -29.1980  -40.1089 H         1 UNK         0.3055 
    106 H106       21.7675  -28.4673  -40.9755 H         1 UNK         0.1106 
    107 H107       20.8113  -28.7106  -38.7011 H         1 UNK         0.0828 
    108 H108       19.5852  -28.9636  -39.9320 H         1 UNK         0.0828 
    109 H109       20.2589  -30.3417  -39.0786 H         1 UNK         0.0828 
    110 H110       21.3398  -31.9993  -40.6882 H         1 UNK         0.2931 
    111 H111       19.9410  -32.1933  -43.2516 H         1 UNK         0.0412 
    112 H112       22.4988  -33.4274  -45.3705 H         1 UNK         0.3472 
    113 H113       20.7971  -33.0908  -45.1920 H         1 UNK         0.3472 
    114 H114       19.7725  -34.6160  -42.7774 H         1 UNK         0.0970 
    115 H115       20.8864  -34.4805  -41.4464 H         1 UNK         0.0970 
    116 H116       17.2652  -34.5622  -42.5300 H         1 UNK         0.0612 
    117 H117       16.3700  -33.6826  -41.3117 H         1 UNK         0.0612 
@<TRIPOS>BOND
     1    1    2 1    
     2    1   62 1    
     3    1   63 1    
     4    1   64 1    
     5    2    3 2    
     6    2    4 am   BACKBONE|DICT|INTERRES
     7    4    5 1    
     8    4   65 1    
     9    5    6 1    
    10    5   25 1    
    11    5   66 1    
    12    6    7 1    
    13    6   67 1    
    14    6   68 1    
    15    7    8 1    
    16    8    9 1    
    17    8   69 1    
    18    8   70 1    
    19    9   10 ar   
    20    9   14 ar   
    21   10   11 ar   
    22   10   71 1    
    23   11   12 ar   
    24   11   61 1    
    25   12   13 ar   
    26   12   72 1    
    27   13   14 ar   
    28   13   15 1    
    29   14   73 1    
    30   15   16 1    
    31   15   74 1    
    32   15   75 1    
    33   16   17 1    
    34   17   18 1    
    35   17   76 1    
    36   17   77 1    
    37   18   19 1    
    38   18   27 1    
    39   18   78 1    
    40   19   20 am   BACKBONE|DICT|INTERRES
    41   19   79 1    
    42   20   21 2    
    43   20   22 1    
    44   22   23 1    
    45   22   24 1    
    46   22   80 1    
    47   23   81 1    
    48   23   82 1    
    49   23   83 1    
    50   24   25 am   BACKBONE|DICT|INTERRES
    51   24   84 1    
    52   25   26 2    
    53   27   28 2    
    54   27   29 am   BACKBONE|DICT|INTERRES
    55   29   30 1    
    56   29   85 1    
    57   30   31 1    
    58   30   32 1    
    59   30   86 1    
    60   31   87 1    
    61   31   88 1    
    62   31   89 1    
    63   32   33 2    
    64   32   34 am   BACKBONE|DICT|INTERRES
    65   34   35 1    
    66   34   90 1    
    67   35   36 1    
    68   35   37 1    
    69   35   91 1    
    70   36   92 1    
    71   36   93 1    
    72   36   94 1    
    73   37   38 2    
    74   37   39 am   BACKBONE|DICT|INTERRES
    75   39   40 1    
    76   39   95 1    
    77   40   41 1    
    78   40   42 1    
    79   40   96 1    
    80   41   97 1    
    81   41   98 1    
    82   41   99 1    
    83   42   43 2    
    84   42   44 am   BACKBONE|DICT|INTERRES
    85   44   45 1    
    86   44  100 1    
    87   45   46 1    
    88   45   47 1    
    89   45  101 1    
    90   46  102 1    
    91   46  103 1    
    92   46  104 1    
    93   47   48 2    
    94   47   49 am   BACKBONE|DICT|INTERRES
    95   49   50 1    
    96   49  105 1    
    97   50   51 1    
    98   50   52 1    
    99   50  106 1    
   100   51  107 1    
   101   51  108 1    
   102   51  109 1    
   103   52   53 2    
   104   52   54 am   BACKBONE|DICT|INTERRES
   105   54   55 1    
   106   54  110 1    
   107   55   56 1    
   108   55   59 1    
   109   55  111 1    
   110   56   57 am   BACKBONE|DICT|INTERRES
   111   56   58 2    
   112   57  112 1    
   113   57  113 1    
   114   59   60 1    
   115   59  114 1    
   116   59  115 1    
   117   60   61 1    
   118   61  116 1    
   119   61  117 1    
@<TRIPOS>SUBSTRUCTURE
     1 UNK         1 GROUP             0       ****    0 ROOT    
