@<TRIPOS>MOLECULE
3R8
117   119    1
SMALL
USER_CHARGES


@<TRIPOS>ATOM
      1 CA         18.8112  -22.3539  -40.2740 C.3       0 UNK        -0.2013 
      2 C          18.4266  -23.6208  -41.0233 C.2       0 UNK         0.4866 
      3 O          17.3343  -24.1492  -40.8148 O.2       0 UNK        -0.5176 
      4 N          19.3132  -24.1113  -41.8939 N.am      1 UNK        -0.4884 
      5 CA         19.1272  -25.3096  -42.7070 C.3       1 UNK         0.0853 
      6 C6         19.4080  -26.5937  -41.8850 C.3       10 UNK        -0.0849 
      7 S7         19.4030  -28.1405  -42.8522 S.3       10 UNK        -0.2776 
      8 C8         17.7619  -28.8244  -42.4633 C.3       10 UNK         0.0316 
      9 C9         17.5654  -30.1434  -43.1933 C.ar      10 UNK        -0.0863 
     10 C10        17.3601  -31.3337  -42.4894 C.ar      10 UNK        -0.1009 
     11 C11        17.2378  -32.5461  -43.1761 C.ar      10 UNK        -0.0712 
     12 C12        17.3609  -32.5628  -44.5701 C.ar      10 UNK        -0.0894 
     13 C13        17.5917  -31.3837  -45.2838 C.ar      10 UNK        -0.0745 
     14 C14        17.6348  -30.1722  -44.5879 C.ar      10 UNK        -0.0972 
     15 C15        17.8133  -31.4536  -46.7951 C.3       10 UNK         0.0209 
     16 S16        18.8818  -30.1372  -47.4876 S.3       10 UNK        -0.2568 
     17 C17        20.4246  -30.3069  -46.5182 C.3       10 UNK        -0.0983 
     18 CA         21.3457  -29.0705  -46.6744 C.3       3 UNK         0.0876 
     19 N          20.6766  -27.8091  -46.3214 N.am      3 UNK        -0.4424 
     20 C          21.0779  -26.6041  -46.7523 C.2       2 UNK         0.4918 
     21 O          22.0906  -26.4234  -47.4290 O.2       2 UNK        -0.4875 
     22 CA         20.1932  -25.3953  -46.4068 C.3       2 UNK         0.0481 
     23 CB         19.1470  -25.1785  -47.5123 C.3       2 UNK        -0.1831 
     24 N          19.5096  -25.5274  -45.1186 N.am      2 UNK        -0.4498 
     25 C          20.0309  -25.1486  -43.9435 C.2       1 UNK         0.5027 
     26 O          21.1598  -24.6674  -43.8110 O.2       1 UNK        -0.4969 
     27 C          22.6684  -29.2553  -45.9030 C.2       3 UNK         0.5005 
     28 O          23.6124  -29.8293  -46.4486 O.2       3 UNK        -0.5279 
     29 N          22.7269  -28.7383  -44.6702 N.am      4 UNK        -0.4463 
     30 CA         23.9185  -28.6508  -43.8359 C.3       4 UNK         0.0283 
     31 CB         24.1667  -29.9845  -43.1078 C.3       4 UNK        -0.1875 
     32 C          23.6717  -27.5153  -42.8440 C.2       4 UNK         0.4949 
     33 O          22.6375  -27.5303  -42.1792 O.2       4 UNK        -0.5039 
     34 N          24.6092  -26.5650  -42.7376 N.am      5 UNK        -0.4663 
     35 CA         24.4685  -25.3414  -41.9311 C.3       5 UNK         0.0242 
     36 CB         25.6921  -24.4401  -42.1630 C.3       5 UNK        -0.1982 
     37 C          24.2527  -25.5769  -40.4234 C.2       5 UNK         0.5017 
     38 O          23.6421  -24.7383  -39.7606 O.2       5 UNK        -0.5012 
     39 N          24.7365  -26.7196  -39.9198 N.am      6 UNK        -0.4439 
     40 CA         24.5470  -27.1880  -38.5452 C.3       6 UNK         0.0297 
     41 CB         25.6959  -28.1514  -38.1975 C.3       6 UNK        -0.2006 
     42 C          23.1821  -27.8663  -38.2998 C.2       6 UNK         0.4892 
     43 O          22.9223  -28.2604  -37.1624 O.2       6 UNK        -0.5089 
     44 N          22.3595  -28.0293  -39.3508 N.am      7 UNK        -0.4243 
     45 CA         21.0995  -28.7860  -39.3855 C.3       7 UNK         0.0196 
     46 CB         20.0253  -28.1509  -38.4777 C.3       7 UNK        -0.2007 
     47 C          21.3093  -30.2913  -39.1366 C.2       7 UNK         0.5020 
     48 O          20.4807  -30.9442  -38.5014 O.2       7 UNK        -0.5147 
     49 N          22.4312  -30.8125  -39.6510 N.am      8 UNK        -0.4734 
     50 CA         22.8816  -32.1946  -39.4734 C.3       8 UNK         0.0238 
     51 CB         24.3988  -32.2516  -39.7229 C.3       8 UNK        -0.1912 
     52 C          22.1503  -33.2218  -40.3571 C.2       8 UNK         0.5038 
     53 O          22.3328  -34.4191  -40.1332 O.2       8 UNK        -0.5046 
     54 N          21.3634  -32.7586  -41.3416 N.am      9 UNK        -0.4200 
     55 CA         20.6469  -33.5922  -42.3259 C.3       9 UNK         0.0839 
     56 C          21.5900  -34.3072  -43.3476 C.2       9 UNK         0.5513 
     57 N          22.8092  -33.8236  -43.5586 N.am      9 UNK        -0.7519 
     58 O          21.2224  -35.2963  -43.9751 O.2       9 UNK        -0.4960 
     59 C59        19.6092  -34.5296  -41.6349 C.3       10 UNK        -0.0876 
     60 S60        18.2474  -35.0975  -42.7098 S.3       10 UNK        -0.2414 
     61 C61        16.9643  -33.8386  -42.4188 C.3       10 UNK         0.0169 
     62 H62        19.8064  -22.0041  -40.5482 H         1 UNK         0.0903 
     63 H63        18.0995  -21.5580  -40.4919 H         1 UNK         0.0903 
     64 H64        18.8007  -22.5361  -39.1997 H         1 UNK         0.0903 
     65 H65        20.1920  -23.6368  -42.0655 H         1 UNK         0.3096 
     66 H66        18.0901  -25.3358  -43.0493 H         1 UNK         0.1121 
     67 H67        18.6867  -26.6789  -41.0710 H         1 UNK         0.0849 
     68 H68        20.3821  -26.5084  -41.4015 H         1 UNK         0.0849 
     69 H69        16.9854  -28.1197  -42.7641 H         1 UNK         0.0865 
     70 H70        17.6712  -28.9581  -41.3840 H         1 UNK         0.0865 
     71 H71        17.2962  -31.3175  -41.4098 H         1 UNK         0.1346 
     72 H72        17.2953  -33.5049  -45.0976 H         1 UNK         0.1412 
     73 H73        17.7896  -29.2465  -45.1229 H         1 UNK         0.1426 
     74 H74        16.8428  -31.4106  -47.2907 H         1 UNK         0.0716 
     75 H75        18.2544  -32.4160  -47.0595 H         1 UNK         0.0716 
     76 H76        20.9363  -31.2097  -46.8573 H         1 UNK         0.0695 
     77 H77        20.1898  -30.4684  -45.4655 H         1 UNK         0.0695 
     78 H78        21.6165  -29.0086  -47.7313 H         1 UNK         0.0983 
     79 H79        19.8363  -27.8820  -45.7686 H         1 UNK         0.3095 
     80 H80        20.8352  -24.5119  -46.3818 H         1 UNK         0.0454 
     81 H81        18.4653  -26.0255  -47.5997 H         1 UNK         0.0851 
     82 H82        19.6273  -25.0472  -48.4831 H         1 UNK         0.0851 
     83 H83        18.5513  -24.2849  -47.3256 H         1 UNK         0.0851 
     84 H84        18.5732  -25.9053  -45.1390 H         1 UNK         0.2976 
     85 H85        21.9115  -28.2758  -44.2850 H         1 UNK         0.3116 
     86 H86        24.7820  -28.4063  -44.4582 H         1 UNK         0.0646 
     87 H87        24.3787  -30.7867  -43.8147 H         1 UNK         0.0847 
     88 H88        23.3027  -30.2831  -42.5140 H         1 UNK         0.0847 
     89 H89        25.0227  -29.9111  -42.4361 H         1 UNK         0.0847 
     90 H90        25.4389  -26.6337  -43.3104 H         1 UNK         0.3040 
     91 H91        23.5826  -24.8156  -42.2956 H         1 UNK         0.1015 
     92 H92        25.6060  -23.5108  -41.5977 H         1 UNK         0.0786 
     93 H93        25.7916  -24.1676  -43.2139 H         1 UNK         0.0786 
     94 H94        26.6172  -24.9266  -41.8512 H         1 UNK         0.0786 
     95 H95        25.2307  -27.3350  -40.5494 H         1 UNK         0.3172 
     96 H96        24.6073  -26.3311  -37.8709 H         1 UNK         0.0595 
     97 H97        26.6672  -27.6700  -38.3128 H         1 UNK         0.0839 
     98 H98        25.6273  -28.4874  -37.1618 H         1 UNK         0.0839 
     99 H99        25.6838  -29.0410  -38.8284 H         1 UNK         0.0839 
    100 H100       22.6510  -27.6637  -40.2538 H         1 UNK         0.2998 
    101 H101       20.7418  -28.7164  -40.4106 H         1 UNK         0.0822 
    102 H102       19.9043  -27.0889  -38.6910 H         1 UNK         0.0787 
    103 H103       19.0556  -28.6250  -38.6339 H         1 UNK         0.0787 
    104 H104       20.2713  -28.2563  -37.4209 H         1 UNK         0.0787 
    105 H105       23.0523  -30.1919  -40.1479 H         1 UNK         0.3055 
    106 H106       22.6963  -32.4837  -38.4361 H         1 UNK         0.1106 
    107 H107       24.6539  -31.9746  -40.7461 H         1 UNK         0.0828 
    108 H108       24.7856  -33.2577  -39.5540 H         1 UNK         0.0828 
    109 H109       24.9377  -31.5860  -39.0483 H         1 UNK         0.0828 
    110 H110       21.2705  -31.7602  -41.4519 H         1 UNK         0.2931 
    111 H111       20.0853  -32.8762  -42.9264 H         1 UNK         0.0412 
    112 H112       23.4118  -34.2844  -44.2223 H         1 UNK         0.3472 
    113 H113       23.1341  -33.0138  -43.0580 H         1 UNK         0.3472 
    114 H114       20.1080  -35.4114  -41.2296 H         1 UNK         0.0970 
    115 H115       19.1672  -34.0251  -40.7744 H         1 UNK         0.0970 
    116 H116       16.0062  -34.2383  -42.7534 H         1 UNK         0.0612 
    117 H117       16.8625  -33.6589  -41.3475 H         1 UNK         0.0612 
@<TRIPOS>BOND
     1    1    2 1    
     2    1   62 1    
     3    1   63 1    
     4    1   64 1    
     5    2    3 2    
     6    2    4 am   BACKBONE|DICT|INTERRES
     7    4    5 1    
     8    4   65 1    
     9    5    6 1    
    10    5   25 1    
    11    5   66 1    
    12    6    7 1    
    13    6   67 1    
    14    6   68 1    
    15    7    8 1    
    16    8    9 1    
    17    8   69 1    
    18    8   70 1    
    19    9   10 ar   
    20    9   14 ar   
    21   10   11 ar   
    22   10   71 1    
    23   11   12 ar   
    24   11   61 1    
    25   12   13 ar   
    26   12   72 1    
    27   13   14 ar   
    28   13   15 1    
    29   14   73 1    
    30   15   16 1    
    31   15   74 1    
    32   15   75 1    
    33   16   17 1    
    34   17   18 1    
    35   17   76 1    
    36   17   77 1    
    37   18   19 1    
    38   18   27 1    
    39   18   78 1    
    40   19   20 am   BACKBONE|DICT|INTERRES
    41   19   79 1    
    42   20   21 2    
    43   20   22 1    
    44   22   23 1    
    45   22   24 1    
    46   22   80 1    
    47   23   81 1    
    48   23   82 1    
    49   23   83 1    
    50   24   25 am   BACKBONE|DICT|INTERRES
    51   24   84 1    
    52   25   26 2    
    53   27   28 2    
    54   27   29 am   BACKBONE|DICT|INTERRES
    55   29   30 1    
    56   29   85 1    
    57   30   31 1    
    58   30   32 1    
    59   30   86 1    
    60   31   87 1    
    61   31   88 1    
    62   31   89 1    
    63   32   33 2    
    64   32   34 am   BACKBONE|DICT|INTERRES
    65   34   35 1    
    66   34   90 1    
    67   35   36 1    
    68   35   37 1    
    69   35   91 1    
    70   36   92 1    
    71   36   93 1    
    72   36   94 1    
    73   37   38 2    
    74   37   39 am   BACKBONE|DICT|INTERRES
    75   39   40 1    
    76   39   95 1    
    77   40   41 1    
    78   40   42 1    
    79   40   96 1    
    80   41   97 1    
    81   41   98 1    
    82   41   99 1    
    83   42   43 2    
    84   42   44 am   BACKBONE|DICT|INTERRES
    85   44   45 1    
    86   44  100 1    
    87   45   46 1    
    88   45   47 1    
    89   45  101 1    
    90   46  102 1    
    91   46  103 1    
    92   46  104 1    
    93   47   48 2    
    94   47   49 am   BACKBONE|DICT|INTERRES
    95   49   50 1    
    96   49  105 1    
    97   50   51 1    
    98   50   52 1    
    99   50  106 1    
   100   51  107 1    
   101   51  108 1    
   102   51  109 1    
   103   52   53 2    
   104   52   54 am   BACKBONE|DICT|INTERRES
   105   54   55 1    
   106   54  110 1    
   107   55   56 1    
   108   55   59 1    
   109   55  111 1    
   110   56   57 am   BACKBONE|DICT|INTERRES
   111   56   58 2    
   112   57  112 1    
   113   57  113 1    
   114   59   60 1    
   115   59  114 1    
   116   59  115 1    
   117   60   61 1    
   118   61  116 1    
   119   61  117 1    
@<TRIPOS>SUBSTRUCTURE
     1 UNK         1 GROUP             0       ****    0 ROOT    
