@<TRIPOS>MOLECULE
3R8
117   119    1
SMALL
USER_CHARGES


@<TRIPOS>ATOM
      1 CA         11.6224  -26.4229  -44.2175 C.3       0 UNK        -0.2013 
      2 C          13.0950  -26.0425  -44.2547 C.2       0 UNK         0.4866 
      3 O          13.5241  -25.1771  -43.4907 O.2       0 UNK        -0.5176 
      4 N          13.8704  -26.6747  -45.1434 N.am      1 UNK        -0.4884 
      5 CA         15.3210  -26.5019  -45.2643 C.3       1 UNK         0.0853 
      6 C6         15.8419  -26.9995  -46.6387 C.3       10 UNK        -0.0849 
      7 S7         15.4245  -28.7439  -47.0030 S.3       10 UNK        -0.2776 
      8 C8         16.9645  -29.3688  -47.7499 C.3       10 UNK         0.0316 
      9 C9         18.1631  -29.3568  -46.8053 C.ar      10 UNK        -0.0863 
     10 C10        18.1276  -30.0411  -45.5851 C.ar      10 UNK        -0.1009 
     11 C11        19.2568  -30.0948  -44.7586 C.ar      10 UNK        -0.0712 
     12 C12        20.4373  -29.4723  -45.1807 C.ar      10 UNK        -0.0894 
     13 C13        20.4777  -28.7604  -46.3823 C.ar      10 UNK        -0.0745 
     14 C14        19.3376  -28.7037  -47.1872 C.ar      10 UNK        -0.0972 
     15 C15        21.7558  -28.0703  -46.8318 C.3       10 UNK         0.0209 
     16 S16        21.8650  -26.3750  -46.1785 S.3       10 UNK        -0.2568 
     17 C17        22.5684  -26.6600  -44.5212 C.3       10 UNK        -0.0983 
     18 CA         21.6786  -26.1138  -43.3782 C.3       3 UNK         0.0876 
     19 N          20.3398  -26.7184  -43.3448 N.am      3 UNK        -0.4424 
     20 C          19.3288  -26.2449  -42.6052 C.2       2 UNK         0.4918 
     21 O          19.3805  -25.1925  -41.9669 O.2       2 UNK        -0.4875 
     22 CA         18.0368  -27.0656  -42.5959 C.3       2 UNK         0.0481 
     23 CB         17.3552  -27.0374  -41.2110 C.3       2 UNK        -0.1831 
     24 N          17.1559  -26.5533  -43.6391 N.am      2 UNK        -0.4498 
     25 C          16.0591  -27.1749  -44.0869 C.2       1 UNK         0.5027 
     26 O          15.6364  -28.2393  -43.6254 O.2       1 UNK        -0.4969 
     27 C          22.4144  -26.2797  -42.0332 C.2       3 UNK         0.5005 
     28 O          23.1150  -25.3583  -41.6107 O.2       3 UNK        -0.5279 
     29 N          22.2509  -27.4554  -41.4032 N.am      4 UNK        -0.4463 
     30 CA         22.8549  -27.9328  -40.1509 C.3       4 UNK         0.0283 
     31 CB         22.4159  -27.0778  -38.9482 C.3       4 UNK        -0.1875 
     32 C          24.3862  -28.0902  -40.1983 C.2       4 UNK         0.4949 
     33 O          24.8878  -29.1678  -39.8747 O.2       4 UNK        -0.5039 
     34 N          25.1011  -27.0395  -40.6170 N.am      5 UNK        -0.4663 
     35 CA         26.5550  -26.9858  -40.7815 C.3       5 UNK         0.0242 
     36 CB         26.9572  -25.5708  -41.2305 C.3       5 UNK        -0.1982 
     37 C          27.0481  -28.0496  -41.7768 C.2       5 UNK         0.5017 
     38 O          26.7966  -27.9208  -42.9762 O.2       5 UNK        -0.5012 
     39 N          27.6886  -29.0990  -41.2400 N.am      6 UNK        -0.4439 
     40 CA         28.1575  -30.3092  -41.9302 C.3       6 UNK         0.0297 
     41 CB         29.2654  -29.9700  -42.9509 C.3       6 UNK        -0.2006 
     42 C          27.0272  -31.1648  -42.5462 C.2       6 UNK         0.4892 
     43 O          27.3033  -31.9775  -43.4306 O.2       6 UNK        -0.5089 
     44 N          25.7888  -30.9849  -42.0664 N.am      7 UNK        -0.4243 
     45 CA         24.5940  -31.6957  -42.5302 C.3       7 UNK         0.0196 
     46 CB         23.6941  -30.7177  -43.3039 C.3       7 UNK        -0.2007 
     47 C          23.8101  -32.3412  -41.3782 C.2       7 UNK         0.5020 
     48 O          23.1056  -33.3221  -41.6186 O.2       7 UNK        -0.5147 
     49 N          23.9192  -31.7827  -40.1624 N.am      8 UNK        -0.4734 
     50 CA         23.2230  -32.1307  -38.9151 C.3       8 UNK         0.0238 
     51 CB         23.4981  -33.5839  -38.4799 C.3       8 UNK        -0.1912 
     52 C          21.7167  -31.8192  -38.9438 C.2       8 UNK         0.5038 
     53 O          21.2364  -31.1104  -38.0586 O.2       8 UNK        -0.5046 
     54 N          21.0190  -32.3246  -39.9676 N.am      9 UNK        -0.4200 
     55 CA         19.5810  -32.1591  -40.2275 C.3       9 UNK         0.0839 
     56 C          18.6772  -32.7643  -39.1077 C.2       9 UNK         0.5513 
     57 N          17.4043  -32.3956  -39.0378 N.am      9 UNK        -0.7519 
     58 O          19.1000  -33.6177  -38.3296 O.2       9 UNK        -0.4960 
     59 C59        19.2161  -30.6971  -40.6243 C.3       10 UNK        -0.0876 
     60 S60        20.1435  -30.1011  -42.0800 S.3       10 UNK        -0.2414 
     61 C61        19.1833  -30.8604  -43.4383 C.3       10 UNK         0.0169 
     62 H62        11.0035  -25.5494  -44.4208 H         1 UNK         0.0903 
     63 H63        11.3803  -27.1888  -44.9542 H         1 UNK         0.0903 
     64 H64        11.3590  -26.8057  -43.2318 H         1 UNK         0.0903 
     65 H65        13.4814  -27.4082  -45.7197 H         1 UNK         0.3096 
     66 H66        15.5235  -25.4296  -45.2080 H         1 UNK         0.1121 
     67 H67        15.4142  -26.3846  -47.4321 H         1 UNK         0.0849 
     68 H68        16.9209  -26.8506  -46.7084 H         1 UNK         0.0849 
     69 H69        16.7973  -30.3942  -48.0821 H         1 UNK         0.0865 
     70 H70        17.1721  -28.7902  -48.6515 H         1 UNK         0.0865 
     71 H71        17.2164  -30.5410  -45.2851 H         1 UNK         0.1346 
     72 H72        21.3276  -29.5396  -44.5737 H         1 UNK         0.1412 
     73 H73        19.3760  -28.1688  -48.1267 H         1 UNK         0.1426 
     74 H74        21.7855  -28.0228  -47.9215 H         1 UNK         0.0716 
     75 H75        22.6320  -28.6493  -46.5358 H         1 UNK         0.0716 
     76 H76        23.5436  -26.1684  -44.5046 H         1 UNK         0.0695 
     77 H77        22.7741  -27.7215  -44.3775 H         1 UNK         0.0695 
     78 H78        21.5506  -25.0407  -43.5398 H         1 UNK         0.0983 
     79 H79        20.1979  -27.5475  -43.9055 H         1 UNK         0.3095 
     80 H80        18.2803  -28.0993  -42.8377 H         1 UNK         0.0454 
     81 H81        16.9878  -26.0414  -40.9616 H         1 UNK         0.0851 
     82 H82        18.0547  -27.3345  -40.4284 H         1 UNK         0.0851 
     83 H83        16.5124  -27.7262  -41.1613 H         1 UNK         0.0851 
     84 H84        17.4473  -25.6824  -44.0633 H         1 UNK         0.2976 
     85 H85        21.6419  -28.1279  -41.8508 H         1 UNK         0.3116 
     86 H86        22.4465  -28.9332  -39.9978 H         1 UNK         0.0646 
     87 H87        22.7992  -27.4943  -38.0157 H         1 UNK         0.0847 
     88 H88        21.3297  -27.0438  -38.8644 H         1 UNK         0.0847 
     89 H89        22.7784  -26.0519  -39.0184 H         1 UNK         0.0847 
     90 H90        24.5726  -26.2228  -40.9180 H         1 UNK         0.3040 
     91 H91        27.0086  -27.1722  -39.8058 H         1 UNK         0.1015 
     92 H92        26.6735  -24.8239  -40.4887 H         1 UNK         0.0786 
     93 H93        26.4863  -25.2977  -42.1760 H         1 UNK         0.0786 
     94 H94        28.0367  -25.4968  -41.3692 H         1 UNK         0.0786 
     95 H95        27.8024  -29.1114  -40.2350 H         1 UNK         0.3172 
     96 H96        28.6089  -30.9335  -41.1579 H         1 UNK         0.0595 
     97 H97        28.8752  -29.4119  -43.8025 H         1 UNK         0.0839 
     98 H98        29.7278  -30.8763  -43.3438 H         1 UNK         0.0839 
     99 H99        30.0583  -29.3770  -42.4953 H         1 UNK         0.0839 
    100 H100       25.6571  -30.2941  -41.3357 H         1 UNK         0.2998 
    101 H101       24.8749  -32.5066  -43.2056 H         1 UNK         0.0822 
    102 H102       23.3689  -29.8873  -42.6774 H         1 UNK         0.0787 
    103 H103       24.2121  -30.3021  -44.1685 H         1 UNK         0.0787 
    104 H104       22.8000  -31.2233  -43.6712 H         1 UNK         0.0787 
    105 H105       24.4613  -30.9256  -40.0868 H         1 UNK         0.3055 
    106 H106       23.6554  -31.4795  -38.1530 H         1 UNK         0.1106 
    107 H107       23.0785  -34.3112  -39.1751 H         1 UNK         0.0828 
    108 H108       24.5677  -33.7766  -38.3984 H         1 UNK         0.0828 
    109 H109       23.0572  -33.7839  -37.5025 H         1 UNK         0.0828 
    110 H110       21.5359  -32.8775  -40.6450 H         1 UNK         0.2931 
    111 H111       19.3849  -32.7878  -41.0965 H         1 UNK         0.0412 
    112 H112       17.0119  -31.7260  -39.6797 H         1 UNK         0.3472 
    113 H113       16.8188  -32.8064  -38.3269 H         1 UNK         0.3472 
    114 H114       18.1526  -30.5934  -40.8406 H         1 UNK         0.0970 
    115 H115       19.4143  -30.0193  -39.7924 H         1 UNK         0.0970 
    116 H116       19.5428  -31.8776  -43.5972 H         1 UNK         0.0612 
    117 H117       18.1400  -30.9431  -43.1304 H         1 UNK         0.0612 
@<TRIPOS>BOND
     1    1    2 1    
     2    1   62 1    
     3    1   63 1    
     4    1   64 1    
     5    2    3 2    
     6    2    4 am   BACKBONE|DICT|INTERRES
     7    4    5 1    
     8    4   65 1    
     9    5    6 1    
    10    5   25 1    
    11    5   66 1    
    12    6    7 1    
    13    6   67 1    
    14    6   68 1    
    15    7    8 1    
    16    8    9 1    
    17    8   69 1    
    18    8   70 1    
    19    9   10 ar   
    20    9   14 ar   
    21   10   11 ar   
    22   10   71 1    
    23   11   12 ar   
    24   11   61 1    
    25   12   13 ar   
    26   12   72 1    
    27   13   14 ar   
    28   13   15 1    
    29   14   73 1    
    30   15   16 1    
    31   15   74 1    
    32   15   75 1    
    33   16   17 1    
    34   17   18 1    
    35   17   76 1    
    36   17   77 1    
    37   18   19 1    
    38   18   27 1    
    39   18   78 1    
    40   19   20 am   BACKBONE|DICT|INTERRES
    41   19   79 1    
    42   20   21 2    
    43   20   22 1    
    44   22   23 1    
    45   22   24 1    
    46   22   80 1    
    47   23   81 1    
    48   23   82 1    
    49   23   83 1    
    50   24   25 am   BACKBONE|DICT|INTERRES
    51   24   84 1    
    52   25   26 2    
    53   27   28 2    
    54   27   29 am   BACKBONE|DICT|INTERRES
    55   29   30 1    
    56   29   85 1    
    57   30   31 1    
    58   30   32 1    
    59   30   86 1    
    60   31   87 1    
    61   31   88 1    
    62   31   89 1    
    63   32   33 2    
    64   32   34 am   BACKBONE|DICT|INTERRES
    65   34   35 1    
    66   34   90 1    
    67   35   36 1    
    68   35   37 1    
    69   35   91 1    
    70   36   92 1    
    71   36   93 1    
    72   36   94 1    
    73   37   38 2    
    74   37   39 am   BACKBONE|DICT|INTERRES
    75   39   40 1    
    76   39   95 1    
    77   40   41 1    
    78   40   42 1    
    79   40   96 1    
    80   41   97 1    
    81   41   98 1    
    82   41   99 1    
    83   42   43 2    
    84   42   44 am   BACKBONE|DICT|INTERRES
    85   44   45 1    
    86   44  100 1    
    87   45   46 1    
    88   45   47 1    
    89   45  101 1    
    90   46  102 1    
    91   46  103 1    
    92   46  104 1    
    93   47   48 2    
    94   47   49 am   BACKBONE|DICT|INTERRES
    95   49   50 1    
    96   49  105 1    
    97   50   51 1    
    98   50   52 1    
    99   50  106 1    
   100   51  107 1    
   101   51  108 1    
   102   51  109 1    
   103   52   53 2    
   104   52   54 am   BACKBONE|DICT|INTERRES
   105   54   55 1    
   106   54  110 1    
   107   55   56 1    
   108   55   59 1    
   109   55  111 1    
   110   56   57 am   BACKBONE|DICT|INTERRES
   111   56   58 2    
   112   57  112 1    
   113   57  113 1    
   114   59   60 1    
   115   59  114 1    
   116   59  115 1    
   117   60   61 1    
   118   61  116 1    
   119   61  117 1    
@<TRIPOS>SUBSTRUCTURE
     1 UNK         1 GROUP             0       ****    0 ROOT    
