@<TRIPOS>MOLECULE
3R8
117   119    1
SMALL
USER_CHARGES


@<TRIPOS>ATOM
      1 CA         12.2466  -26.8510  -47.4492 C.3       0 UNK        -0.2013 
      2 C          13.4194  -27.7183  -47.0164 C.2       0 UNK         0.4866 
      3 O          13.5521  -28.8486  -47.4875 O.2       0 UNK        -0.5176 
      4 N          14.2654  -27.2034  -46.1160 N.am      1 UNK        -0.4884 
      5 CA         15.4706  -27.8760  -45.6219 C.3       1 UNK         0.0853 
      6 C6         16.0843  -27.1395  -44.4064 C.3       10 UNK        -0.0849 
      7 S7         15.0046  -27.0818  -42.9380 S.3       10 UNK        -0.2776 
      8 C8         16.0454  -27.9060  -41.6739 C.3       10 UNK         0.0316 
      9 C9         17.4351  -27.3005  -41.4350 C.ar      10 UNK        -0.0863 
     10 C10        18.3874  -28.0685  -40.7561 C.ar      10 UNK        -0.1009 
     11 C11        19.6816  -27.5840  -40.5327 C.ar      10 UNK        -0.0712 
     12 C12        20.0191  -26.3065  -40.9874 C.ar      10 UNK        -0.0894 
     13 C13        19.0809  -25.5205  -41.6624 C.ar      10 UNK        -0.0745 
     14 C14        17.7903  -26.0151  -41.8668 C.ar      10 UNK        -0.0972 
     15 C15        19.4517  -24.1288  -42.1579 C.3       10 UNK         0.0209 
     16 S16        20.7957  -24.1571  -43.3878 S.3       10 UNK        -0.2568 
     17 C17        20.0503  -25.0589  -44.7938 C.3       10 UNK        -0.0983 
     18 CA         20.4638  -26.5520  -44.8829 C.3       3 UNK         0.0876 
     19 N          19.7140  -27.2394  -45.9378 N.am      3 UNK        -0.4424 
     20 C          19.6808  -28.5656  -46.1236 C.2       2 UNK         0.4918 
     21 O          20.2824  -29.3771  -45.4187 O.2       2 UNK        -0.4875 
     22 CA         18.7145  -29.0698  -47.2083 C.3       2 UNK         0.0481 
     23 CB         19.0276  -30.5080  -47.6598 C.3       2 UNK        -0.1831 
     24 N          17.3716  -29.0235  -46.6336 N.am      2 UNK        -0.4498 
     25 C          16.5579  -27.9638  -46.7100 C.2       1 UNK         0.5027 
     26 O          16.7208  -27.0267  -47.4965 O.2       1 UNK        -0.4969 
     27 C          21.9877  -26.7417  -45.0579 C.2       3 UNK         0.5005 
     28 O          22.4928  -26.7127  -46.1835 O.2       3 UNK        -0.5279 
     29 N          22.6760  -26.9096  -43.9262 N.am      4 UNK        -0.4463 
     30 CA         24.1137  -27.0811  -43.7516 C.3       4 UNK         0.0283 
     31 CB         24.5928  -28.4274  -44.3413 C.3       4 UNK        -0.1875 
     32 C          24.3794  -26.9707  -42.2401 C.2       4 UNK         0.4949 
     33 O          23.5296  -26.4496  -41.5113 O.2       4 UNK        -0.5039 
     34 N          25.5282  -27.4818  -41.7809 N.am      5 UNK        -0.4663 
     35 CA         25.8454  -27.6416  -40.3583 C.3       5 UNK         0.0242 
     36 CB         27.3183  -28.0615  -40.2206 C.3       5 UNK        -0.1982 
     37 C          24.9255  -28.6726  -39.6760 C.2       5 UNK         0.5017 
     38 O          24.3860  -29.5549  -40.3492 O.2       5 UNK        -0.5012 
     39 N          24.7861  -28.5616  -38.3479 N.am      6 UNK        -0.4439 
     40 CA         23.9840  -29.4599  -37.5113 C.3       6 UNK         0.0297 
     41 CB         24.0707  -29.0102  -36.0442 C.3       6 UNK        -0.2006 
     42 C          24.4175  -30.9291  -37.6574 C.2       6 UNK         0.4892 
     43 O          25.6091  -31.2225  -37.5459 O.2       6 UNK        -0.5089 
     44 N          23.4396  -31.7982  -37.9449 N.am      7 UNK        -0.4243 
     45 CA         23.5475  -33.2334  -38.2482 C.3       7 UNK         0.0196 
     46 CB         24.2604  -34.0096  -37.1212 C.3       7 UNK        -0.2007 
     47 C          24.1432  -33.5654  -39.6323 C.2       7 UNK         0.5020 
     48 O          23.9809  -34.7011  -40.0801 O.2       7 UNK        -0.5147 
     49 N          24.7817  -32.6000  -40.3082 N.am      8 UNK        -0.4734 
     50 CA         25.2055  -32.7193  -41.7077 C.3       8 UNK         0.0238 
     51 CB         26.4293  -31.8224  -41.9574 C.3       8 UNK        -0.1912 
     52 C          24.0615  -32.3530  -42.6681 C.2       8 UNK         0.5038 
     53 O          23.9996  -32.8980  -43.7708 O.2       8 UNK        -0.5046 
     54 N          23.1891  -31.4380  -42.2279 N.am      9 UNK        -0.4200 
     55 CA         21.9654  -30.9982  -42.9051 C.3       9 UNK         0.0839 
     56 C          20.9306  -32.1291  -43.1666 C.2       9 UNK         0.5513 
     57 N          20.0493  -31.9291  -44.1358 N.am      9 UNK        -0.7519 
     58 O          20.8967  -33.1574  -42.4929 O.2       9 UNK        -0.4960 
     59 C59        21.3358  -29.7887  -42.1666 C.3       10 UNK        -0.0876 
     60 S60        20.8711  -30.1211  -40.4311 S.3       10 UNK        -0.2414 
     61 C61        20.7159  -28.4231  -39.7863 C.3       10 UNK         0.0169 
     62 H62        12.2892  -26.6717  -48.5231 H         1 UNK         0.0903 
     63 H63        11.3057  -27.3525  -47.2241 H         1 UNK         0.0903 
     64 H64        12.2450  -25.8852  -46.9440 H         1 UNK         0.0903 
     65 H65        14.1130  -26.2689  -45.7641 H         1 UNK         0.3096 
     66 H66        15.1929  -28.8891  -45.3213 H         1 UNK         0.1121 
     67 H67        17.0270  -27.6121  -44.1227 H         1 UNK         0.0849 
     68 H68        16.3394  -26.1114  -44.6728 H         1 UNK         0.0849 
     69 H69        15.5018  -27.9031  -40.7283 H         1 UNK         0.0865 
     70 H70        16.1550  -28.9533  -41.9602 H         1 UNK         0.0865 
     71 H71        18.1244  -29.0570  -40.4044 H         1 UNK         0.1346 
     72 H72        21.0141  -25.9177  -40.8167 H         1 UNK         0.1412 
     73 H73        17.0678  -25.3908  -42.3720 H         1 UNK         0.1426 
     74 H74        19.7694  -23.5256  -41.3064 H         1 UNK         0.0716 
     75 H75        18.5877  -23.6194  -42.5876 H         1 UNK         0.0716 
     76 H76        20.3257  -24.5367  -45.7119 H         1 UNK         0.0695 
     77 H77        18.9645  -24.9779  -44.7192 H         1 UNK         0.0695 
     78 H78        20.1739  -27.0323  -43.9453 H         1 UNK         0.0983 
     79 H79        19.1867  -26.6528  -46.5687 H         1 UNK         0.3095 
     80 H80        18.7928  -28.4159  -48.0795 H         1 UNK         0.0454 
     81 H81        20.0456  -30.5816  -48.0442 H         1 UNK         0.0851 
     82 H82        18.3562  -30.8243  -48.4581 H         1 UNK         0.0851 
     83 H83        18.9344  -31.2256  -46.8442 H         1 UNK         0.0851 
     84 H84        17.1710  -29.7345  -45.9440 H         1 UNK         0.2976 
     85 H85        22.1969  -26.7981  -43.0391 H         1 UNK         0.3116 
     86 H86        24.6244  -26.2562  -44.2515 H         1 UNK         0.0646 
     87 H87        24.2296  -29.2728  -43.7586 H         1 UNK         0.0847 
     88 H88        24.2593  -28.5662  -45.3693 H         1 UNK         0.0847 
     89 H89        25.6811  -28.4867  -44.3577 H         1 UNK         0.0847 
     90 H90        26.1631  -27.9124  -42.4362 H         1 UNK         0.3040 
     91 H91        25.7034  -26.6755  -39.8687 H         1 UNK         0.1015 
     92 H92        27.6034  -28.1581  -39.1721 H         1 UNK         0.0786 
     93 H93        27.9849  -27.3238  -40.6678 H         1 UNK         0.0786 
     94 H94        27.5123  -29.0226  -40.6979 H         1 UNK         0.0786 
     95 H95        25.2942  -27.8340  -37.8666 H         1 UNK         0.3172 
     96 H96        22.9461  -29.3629  -37.8368 H         1 UNK         0.0595 
     97 H97        25.0944  -29.0516  -35.6695 H         1 UNK         0.0839 
     98 H98        23.4643  -29.6520  -35.4034 H         1 UNK         0.0839 
     99 H99        23.7057  -27.9909  -35.9168 H         1 UNK         0.0839 
    100 H100       22.5058  -31.4223  -38.0434 H         1 UNK         0.2998 
    101 H101       22.5175  -33.5924  -38.2815 H         1 UNK         0.0822 
    102 H102       24.1833  -35.0854  -37.2837 H         1 UNK         0.0787 
    103 H103       23.8167  -33.7968  -36.1486 H         1 UNK         0.0787 
    104 H104       25.3227  -33.7707  -37.0675 H         1 UNK         0.0787 
    105 H105       24.8718  -31.6852  -39.8824 H         1 UNK         0.3055 
    106 H106       25.4953  -33.7526  -41.9124 H         1 UNK         0.1106 
    107 H107       27.2424  -32.0575  -41.2705 H         1 UNK         0.0828 
    108 H108       26.8094  -31.9608  -42.9703 H         1 UNK         0.0828 
    109 H109       26.1888  -30.7655  -41.8458 H         1 UNK         0.0828 
    110 H110       23.3703  -30.9988  -41.3326 H         1 UNK         0.2931 
    111 H111       22.2831  -30.6455  -43.8880 H         1 UNK         0.0412 
    112 H112       19.3549  -32.6321  -44.3309 H         1 UNK         0.3472 
    113 H113       20.0788  -31.0667  -44.6737 H         1 UNK         0.3472 
    114 H114       22.0480  -28.9644  -42.1673 H         1 UNK         0.0970 
    115 H115       20.4577  -29.4239  -42.7020 H         1 UNK         0.0970 
    116 H116       20.4353  -28.4722  -38.7337 H         1 UNK         0.0612 
    117 H117       21.6991  -27.9505  -39.8227 H         1 UNK         0.0612 
@<TRIPOS>BOND
     1    1    2 1    
     2    1   62 1    
     3    1   63 1    
     4    1   64 1    
     5    2    3 2    
     6    2    4 am   BACKBONE|DICT|INTERRES
     7    4    5 1    
     8    4   65 1    
     9    5    6 1    
    10    5   25 1    
    11    5   66 1    
    12    6    7 1    
    13    6   67 1    
    14    6   68 1    
    15    7    8 1    
    16    8    9 1    
    17    8   69 1    
    18    8   70 1    
    19    9   10 ar   
    20    9   14 ar   
    21   10   11 ar   
    22   10   71 1    
    23   11   12 ar   
    24   11   61 1    
    25   12   13 ar   
    26   12   72 1    
    27   13   14 ar   
    28   13   15 1    
    29   14   73 1    
    30   15   16 1    
    31   15   74 1    
    32   15   75 1    
    33   16   17 1    
    34   17   18 1    
    35   17   76 1    
    36   17   77 1    
    37   18   19 1    
    38   18   27 1    
    39   18   78 1    
    40   19   20 am   BACKBONE|DICT|INTERRES
    41   19   79 1    
    42   20   21 2    
    43   20   22 1    
    44   22   23 1    
    45   22   24 1    
    46   22   80 1    
    47   23   81 1    
    48   23   82 1    
    49   23   83 1    
    50   24   25 am   BACKBONE|DICT|INTERRES
    51   24   84 1    
    52   25   26 2    
    53   27   28 2    
    54   27   29 am   BACKBONE|DICT|INTERRES
    55   29   30 1    
    56   29   85 1    
    57   30   31 1    
    58   30   32 1    
    59   30   86 1    
    60   31   87 1    
    61   31   88 1    
    62   31   89 1    
    63   32   33 2    
    64   32   34 am   BACKBONE|DICT|INTERRES
    65   34   35 1    
    66   34   90 1    
    67   35   36 1    
    68   35   37 1    
    69   35   91 1    
    70   36   92 1    
    71   36   93 1    
    72   36   94 1    
    73   37   38 2    
    74   37   39 am   BACKBONE|DICT|INTERRES
    75   39   40 1    
    76   39   95 1    
    77   40   41 1    
    78   40   42 1    
    79   40   96 1    
    80   41   97 1    
    81   41   98 1    
    82   41   99 1    
    83   42   43 2    
    84   42   44 am   BACKBONE|DICT|INTERRES
    85   44   45 1    
    86   44  100 1    
    87   45   46 1    
    88   45   47 1    
    89   45  101 1    
    90   46  102 1    
    91   46  103 1    
    92   46  104 1    
    93   47   48 2    
    94   47   49 am   BACKBONE|DICT|INTERRES
    95   49   50 1    
    96   49  105 1    
    97   50   51 1    
    98   50   52 1    
    99   50  106 1    
   100   51  107 1    
   101   51  108 1    
   102   51  109 1    
   103   52   53 2    
   104   52   54 am   BACKBONE|DICT|INTERRES
   105   54   55 1    
   106   54  110 1    
   107   55   56 1    
   108   55   59 1    
   109   55  111 1    
   110   56   57 am   BACKBONE|DICT|INTERRES
   111   56   58 2    
   112   57  112 1    
   113   57  113 1    
   114   59   60 1    
   115   59  114 1    
   116   59  115 1    
   117   60   61 1    
   118   61  116 1    
   119   61  117 1    
@<TRIPOS>SUBSTRUCTURE
     1 UNK         1 GROUP             0       ****    0 ROOT    
