@<TRIPOS>MOLECULE
3R8
117   119    1
SMALL
USER_CHARGES


@<TRIPOS>ATOM
      1 CA         14.5092  -24.0277  -42.1195 C.3       0 UNK        -0.2013 
      2 C          15.5500  -24.0006  -43.2290 C.2       0 UNK         0.4866 
      3 O          15.8490  -22.9314  -43.7624 O.2       0 UNK        -0.5176 
      4 N          16.0964  -25.1687  -43.5870 N.am      1 UNK        -0.4884 
      5 CA         17.1473  -25.3249  -44.5975 C.3       1 UNK         0.0853 
      6 C6         17.3454  -26.8051  -44.9918 C.3       10 UNK        -0.0849 
      7 S7         15.8896  -27.5626  -45.7918 S.3       10 UNK        -0.2776 
      8 C8         15.8175  -29.2142  -44.9956 C.3       10 UNK         0.0316 
      9 C9         17.1425  -29.9820  -44.9419 C.ar      10 UNK        -0.0863 
     10 C10        17.3473  -30.9166  -43.9224 C.ar      10 UNK        -0.1009 
     11 C11        18.5618  -31.6005  -43.8107 C.ar      10 UNK        -0.0712 
     12 C12        19.5960  -31.3191  -44.7096 C.ar      10 UNK        -0.0894 
     13 C13        19.4096  -30.3910  -45.7397 C.ar      10 UNK        -0.0745 
     14 C14        18.1636  -29.7693  -45.8748 C.ar      10 UNK        -0.0972 
     15 C15        20.5491  -30.0810  -46.7093 C.3       10 UNK         0.0209 
     16 S16        20.6280  -28.3137  -47.1846 S.3       10 UNK        -0.2568 
     17 C17        22.3252  -27.8257  -46.7214 C.3       10 UNK        -0.0983 
     18 CA         22.4221  -27.0030  -45.4118 C.3       3 UNK         0.0876 
     19 N          21.5327  -25.8344  -45.4039 N.am      3 UNK        -0.4424 
     20 C          21.6447  -24.7949  -44.5634 C.2       2 UNK         0.4918 
     21 O          22.4956  -24.7225  -43.6768 O.2       2 UNK        -0.4875 
     22 CA         20.6204  -23.6579  -44.7248 C.3       2 UNK         0.0481 
     23 CB         21.0590  -22.6908  -45.8357 C.3       2 UNK        -0.1831 
     24 N          19.2681  -24.1519  -45.0035 N.am      2 UNK        -0.4498 
     25 C          18.4918  -24.7598  -44.0952 C.2       1 UNK         0.5027 
     26 O          18.8276  -24.9410  -42.9225 O.2       1 UNK        -0.4969 
     27 C          22.2810  -27.8946  -44.1628 C.2       3 UNK         0.5005 
     28 O          23.2397  -28.5860  -43.8189 O.2       3 UNK        -0.5279 
     29 N          21.1319  -27.8338  -43.4725 N.am      4 UNK        -0.4463 
     30 CA         20.8604  -28.5638  -42.2293 C.3       4 UNK         0.0283 
     31 CB         19.4120  -28.3134  -41.7853 C.3       4 UNK        -0.1875 
     32 C          21.8374  -28.2318  -41.0878 C.2       4 UNK         0.4949 
     33 O          22.1302  -29.1040  -40.2719 O.2       4 UNK        -0.5039 
     34 N          22.3631  -26.9983  -41.0735 N.am      5 UNK        -0.4663 
     35 CA         23.3898  -26.5499  -40.1295 C.3       5 UNK         0.0242 
     36 CB         23.5208  -25.0211  -40.2169 C.3       5 UNK        -0.1982 
     37 C          24.7582  -27.2218  -40.3502 C.2       5 UNK         0.5017 
     38 O          25.5210  -27.3490  -39.3921 O.2       5 UNK        -0.5012 
     39 N          25.0429  -27.6362  -41.5927 N.am      6 UNK        -0.4439 
     40 CA         26.2598  -28.3547  -41.9716 C.3       6 UNK         0.0297 
     41 CB         26.6914  -27.9244  -43.3836 C.3       6 UNK        -0.2006 
     42 C          26.0494  -29.8747  -41.9088 C.2       6 UNK         0.4892 
     43 O          26.9296  -30.5861  -41.4240 O.2       6 UNK        -0.5089 
     44 N          24.8938  -30.3431  -42.4014 N.am      7 UNK        -0.4243 
     45 CA         24.5163  -31.7563  -42.4583 C.3       7 UNK         0.0196 
     46 CB         23.3034  -31.9138  -43.3905 C.3       7 UNK        -0.2007 
     47 C          24.2052  -32.3724  -41.0852 C.2       7 UNK         0.5020 
     48 O          24.3267  -33.5884  -40.9399 O.2       7 UNK        -0.5147 
     49 N          23.7568  -31.5493  -40.1256 N.am      8 UNK        -0.4734 
     50 CA         23.3182  -31.8713  -38.7565 C.3       8 UNK         0.0238 
     51 CB         24.4347  -32.5588  -37.9460 C.3       8 UNK        -0.1912 
     52 C          21.9952  -32.6580  -38.6706 C.2       8 UNK         0.5038 
     53 O          21.2791  -32.5082  -37.6797 O.2       8 UNK        -0.5046 
     54 N          21.6849  -33.4513  -39.7030 N.am      9 UNK        -0.4200 
     55 CA         20.4355  -34.2010  -39.9113 C.3       9 UNK         0.0839 
     56 C          20.2280  -35.4038  -38.9421 C.2       9 UNK         0.5513 
     57 N          21.2540  -35.8738  -38.2426 N.am      9 UNK        -0.7519 
     58 O          19.1286  -35.9435  -38.8438 O.2       9 UNK        -0.4960 
     59 C59        19.1787  -33.2870  -40.0105 C.3       10 UNK        -0.0876 
     60 S60        19.3676  -31.9026  -41.1880 S.3       10 UNK        -0.2414 
     61 C61        18.7447  -32.6473  -42.7219 C.3       10 UNK         0.0169 
     62 H62        13.5619  -23.6307  -42.4837 H         1 UNK         0.0903 
     63 H63        14.3334  -25.0376  -41.7494 H         1 UNK         0.0903 
     64 H64        14.8376  -23.4123  -41.2824 H         1 UNK         0.0903 
     65 H65        15.8204  -26.0151  -43.1108 H         1 UNK         0.3096 
     66 H66        16.8456  -24.7635  -45.4849 H         1 UNK         0.1121 
     67 H67        17.6173  -27.3890  -44.1117 H         1 UNK         0.0849 
     68 H68        18.1788  -26.9023  -45.6903 H         1 UNK         0.0849 
     69 H69        15.4341  -29.0789  -43.9830 H         1 UNK         0.0865 
     70 H70        15.0825  -29.8236  -45.5229 H         1 UNK         0.0865 
     71 H71        16.5600  -31.1125  -43.2070 H         1 UNK         0.1346 
     72 H72        20.5432  -31.8302  -44.6096 H         1 UNK         0.1412 
     73 H73        18.0042  -29.0822  -46.6928 H         1 UNK         0.1426 
     74 H74        21.5001  -30.3907  -46.2739 H         1 UNK         0.0716 
     75 H75        20.4134  -30.6795  -47.6108 H         1 UNK         0.0716 
     76 H76        22.9770  -28.7008  -46.6858 H         1 UNK         0.0695 
     77 H77        22.7128  -27.2210  -47.5426 H         1 UNK         0.0695 
     78 H78        23.4420  -26.6133  -45.3670 H         1 UNK         0.0983 
     79 H79        20.8090  -25.8256  -46.1076 H         1 UNK         0.3095 
     80 H80        20.5938  -23.0991  -43.7867 H         1 UNK         0.0454 
     81 H81        21.0904  -23.1764  -46.8118 H         1 UNK         0.0851 
     82 H82        20.3849  -21.8370  -45.9069 H         1 UNK         0.0851 
     83 H83        22.0565  -22.2963  -45.6367 H         1 UNK         0.0851 
     84 H84        18.9253  -24.0332  -45.9466 H         1 UNK         0.2976 
     85 H85        20.4023  -27.2271  -43.8143 H         1 UNK         0.3116 
     86 H86        20.9666  -29.6273  -42.4473 H         1 UNK         0.0646 
     87 H87        19.2081  -27.2534  -41.6345 H         1 UNK         0.0847 
     88 H88        18.7048  -28.7002  -42.5175 H         1 UNK         0.0847 
     89 H89        19.2004  -28.8213  -40.8434 H         1 UNK         0.0847 
     90 H90        22.0801  -26.3409  -41.7886 H         1 UNK         0.3040 
     91 H91        23.0587  -26.8097  -39.1214 H         1 UNK         0.1015 
     92 H92        23.8445  -24.6996  -41.2078 H         1 UNK         0.0786 
     93 H93        24.2531  -24.6503  -39.4983 H         1 UNK         0.0786 
     94 H94        22.5738  -24.5277  -39.9971 H         1 UNK         0.0786 
     95 H95        24.3301  -27.5447  -42.3062 H         1 UNK         0.3172 
     96 H96        27.0687  -28.0975  -41.2842 H         1 UNK         0.0595 
     97 H97        27.6085  -28.4342  -43.6817 H         1 UNK         0.0839 
     98 H98        26.8883  -26.8532  -43.4276 H         1 UNK         0.0839 
     99 H99        25.9330  -28.1561  -44.1324 H         1 UNK         0.0839 
    100 H100       24.2479  -29.6864  -42.8376 H         1 UNK         0.2998 
    101 H101       25.3537  -32.3116  -42.8861 H         1 UNK         0.0822 
    102 H102       23.0311  -32.9638  -43.5061 H         1 UNK         0.0787 
    103 H103       22.4295  -31.3917  -43.0006 H         1 UNK         0.0787 
    104 H104       23.5117  -31.5202  -44.3857 H         1 UNK         0.0787 
    105 H105       23.5862  -30.5840  -40.3894 H         1 UNK         0.3055 
    106 H106       23.1201  -30.9062  -38.2864 H         1 UNK         0.1106 
    107 H107       25.3530  -31.9718  -37.9602 H         1 UNK         0.0828 
    108 H108       24.1400  -32.6742  -36.9021 H         1 UNK         0.0828 
    109 H109       24.6659  -33.5539  -38.3263 H         1 UNK         0.0828 
    110 H110       22.3916  -33.5609  -40.4205 H         1 UNK         0.2931 
    111 H111       20.5582  -34.6657  -40.8901 H         1 UNK         0.0412 
    112 H112       21.1151  -36.6590  -37.6258 H         1 UNK         0.3472 
    113 H113       22.1632  -35.4474  -38.3236 H         1 UNK         0.3472 
    114 H114       18.3008  -33.8707  -40.2926 H         1 UNK         0.0970 
    115 H115       18.9464  -32.8628  -39.0324 H         1 UNK         0.0970 
    116 H116       19.4378  -33.4223  -43.0525 H         1 UNK         0.0612 
    117 H117       17.7929  -33.1441  -42.5279 H         1 UNK         0.0612 
@<TRIPOS>BOND
     1    1    2 1    
     2    1   62 1    
     3    1   63 1    
     4    1   64 1    
     5    2    3 2    
     6    2    4 am   BACKBONE|DICT|INTERRES
     7    4    5 1    
     8    4   65 1    
     9    5    6 1    
    10    5   25 1    
    11    5   66 1    
    12    6    7 1    
    13    6   67 1    
    14    6   68 1    
    15    7    8 1    
    16    8    9 1    
    17    8   69 1    
    18    8   70 1    
    19    9   10 ar   
    20    9   14 ar   
    21   10   11 ar   
    22   10   71 1    
    23   11   12 ar   
    24   11   61 1    
    25   12   13 ar   
    26   12   72 1    
    27   13   14 ar   
    28   13   15 1    
    29   14   73 1    
    30   15   16 1    
    31   15   74 1    
    32   15   75 1    
    33   16   17 1    
    34   17   18 1    
    35   17   76 1    
    36   17   77 1    
    37   18   19 1    
    38   18   27 1    
    39   18   78 1    
    40   19   20 am   BACKBONE|DICT|INTERRES
    41   19   79 1    
    42   20   21 2    
    43   20   22 1    
    44   22   23 1    
    45   22   24 1    
    46   22   80 1    
    47   23   81 1    
    48   23   82 1    
    49   23   83 1    
    50   24   25 am   BACKBONE|DICT|INTERRES
    51   24   84 1    
    52   25   26 2    
    53   27   28 2    
    54   27   29 am   BACKBONE|DICT|INTERRES
    55   29   30 1    
    56   29   85 1    
    57   30   31 1    
    58   30   32 1    
    59   30   86 1    
    60   31   87 1    
    61   31   88 1    
    62   31   89 1    
    63   32   33 2    
    64   32   34 am   BACKBONE|DICT|INTERRES
    65   34   35 1    
    66   34   90 1    
    67   35   36 1    
    68   35   37 1    
    69   35   91 1    
    70   36   92 1    
    71   36   93 1    
    72   36   94 1    
    73   37   38 2    
    74   37   39 am   BACKBONE|DICT|INTERRES
    75   39   40 1    
    76   39   95 1    
    77   40   41 1    
    78   40   42 1    
    79   40   96 1    
    80   41   97 1    
    81   41   98 1    
    82   41   99 1    
    83   42   43 2    
    84   42   44 am   BACKBONE|DICT|INTERRES
    85   44   45 1    
    86   44  100 1    
    87   45   46 1    
    88   45   47 1    
    89   45  101 1    
    90   46  102 1    
    91   46  103 1    
    92   46  104 1    
    93   47   48 2    
    94   47   49 am   BACKBONE|DICT|INTERRES
    95   49   50 1    
    96   49  105 1    
    97   50   51 1    
    98   50   52 1    
    99   50  106 1    
   100   51  107 1    
   101   51  108 1    
   102   51  109 1    
   103   52   53 2    
   104   52   54 am   BACKBONE|DICT|INTERRES
   105   54   55 1    
   106   54  110 1    
   107   55   56 1    
   108   55   59 1    
   109   55  111 1    
   110   56   57 am   BACKBONE|DICT|INTERRES
   111   56   58 2    
   112   57  112 1    
   113   57  113 1    
   114   59   60 1    
   115   59  114 1    
   116   59  115 1    
   117   60   61 1    
   118   61  116 1    
   119   61  117 1    
@<TRIPOS>SUBSTRUCTURE
     1 UNK         1 GROUP             0       ****    0 ROOT    
