@<TRIPOS>MOLECULE
3R8
117   119    1
SMALL
USER_CHARGES


@<TRIPOS>ATOM
      1 CA         21.1112  -22.3813  -47.1351 C.3       0 UNK        -0.2013 
      2 C          21.1856  -23.7839  -46.5517 C.2       0 UNK         0.4866 
      3 O          22.1427  -24.1055  -45.8463 O.2       0 UNK        -0.5176 
      4 N          20.1791  -24.6240  -46.8280 N.am      1 UNK        -0.4884 
      5 CA         20.0707  -26.0063  -46.3444 C.3       1 UNK         0.0853 
      6 C6         19.2334  -26.8811  -47.3240 C.3       10 UNK        -0.0849 
      7 S7         19.9314  -28.5547  -47.5251 S.3       10 UNK        -0.2776 
      8 C8         18.4488  -29.6093  -47.5732 C.3       10 UNK         0.0316 
      9 C9         18.1062  -30.1980  -46.2110 C.ar      10 UNK        -0.0863 
     10 C10        18.7545  -31.3556  -45.7656 C.ar      10 UNK        -0.1009 
     11 C11        18.3989  -31.9562  -44.5525 C.ar      10 UNK        -0.0712 
     12 C12        17.3746  -31.3839  -43.7880 C.ar      10 UNK        -0.0894 
     13 C13        16.7310  -30.2182  -44.2115 C.ar      10 UNK        -0.0745 
     14 C14        17.1043  -29.6259  -45.4220 C.ar      10 UNK        -0.0972 
     15 C15        15.6026  -29.6236  -43.3821 C.3       10 UNK         0.0209 
     16 S16        16.1443  -28.1805  -42.4171 S.3       10 UNK        -0.2568 
     17 C17        17.1557  -28.9353  -41.0932 C.3       10 UNK        -0.0983 
     18 CA         18.6868  -28.7270  -41.2625 C.3       3 UNK         0.0876 
     19 N          18.9867  -27.3339  -41.6244 N.am      3 UNK        -0.4424 
     20 C          20.1672  -26.7567  -41.8742 C.2       2 UNK         0.4918 
     21 O          21.2700  -27.2484  -41.6234 O.2       2 UNK        -0.4875 
     22 CA         20.0871  -25.3736  -42.5380 C.3       2 UNK         0.0481 
     23 CB         21.0550  -24.3704  -41.8930 C.3       2 UNK        -0.1831 
     24 N          20.3699  -25.4739  -43.9689 N.am      2 UNK        -0.4498 
     25 C          19.5594  -26.0229  -44.8851 C.2       1 UNK         0.5027 
     26 O          18.4398  -26.4611  -44.6201 O.2       1 UNK        -0.4969 
     27 C          19.4198  -29.2890  -40.0206 C.2       3 UNK         0.5005 
     28 O          19.3882  -30.5016  -39.8073 O.2       3 UNK        -0.5279 
     29 N          20.0215  -28.4217  -39.1970 N.am      4 UNK        -0.4463 
     30 CA         20.7480  -28.7805  -37.9771 C.3       4 UNK         0.0283 
     31 CB         19.8341  -28.5481  -36.7588 C.3       4 UNK        -0.1875 
     32 C          22.0835  -28.0250  -37.8556 C.2       4 UNK         0.4949 
     33 O          22.6240  -27.9436  -36.7518 O.2       4 UNK        -0.5039 
     34 N          22.5965  -27.4772  -38.9656 N.am      5 UNK        -0.4663 
     35 CA         23.8389  -26.7077  -39.0031 C.3       5 UNK         0.0242 
     36 CB         23.5355  -25.2089  -38.7948 C.3       5 UNK        -0.1982 
     37 C          24.5912  -27.0264  -40.2998 C.2       5 UNK         0.5017 
     38 O          25.2681  -28.0527  -40.3606 O.2       5 UNK        -0.5012 
     39 N          24.4634  -26.1537  -41.3097 N.am      6 UNK        -0.4439 
     40 CA         25.1304  -26.2543  -42.6139 C.3       6 UNK         0.0297 
     41 CB         24.8249  -24.9964  -43.4433 C.3       6 UNK        -0.2006 
     42 C          24.7778  -27.5202  -43.4170 C.2       6 UNK         0.4892 
     43 O          25.6029  -27.9715  -44.2123 O.2       6 UNK        -0.5089 
     44 N          23.5824  -28.0735  -43.1868 N.am      7 UNK        -0.4243 
     45 CA         23.1133  -29.3302  -43.7533 C.3       7 UNK         0.0196 
     46 CB         22.1216  -29.0363  -44.8908 C.3       7 UNK        -0.2007 
     47 C          22.4944  -30.1588  -42.6231 C.2       7 UNK         0.5020 
     48 O          21.2976  -30.4292  -42.6455 O.2       7 UNK        -0.5147 
     49 N          23.3237  -30.5473  -41.6440 N.am      8 UNK        -0.4734 
     50 CA         22.9382  -31.3257  -40.4552 C.3       8 UNK         0.0238 
     51 CB         24.0703  -31.2449  -39.4161 C.3       8 UNK        -0.1912 
     52 C          22.5233  -32.7921  -40.7187 C.2       8 UNK         0.5038 
     53 O          22.2393  -33.5139  -39.7614 O.2       8 UNK        -0.5046 
     54 N          22.4930  -33.2047  -41.9922 N.am      9 UNK        -0.4200 
     55 CA         21.9887  -34.4916  -42.5021 C.3       9 UNK         0.0839 
     56 C          22.9052  -35.7171  -42.2110 C.2       9 UNK         0.5513 
     57 N          24.1444  -35.5282  -41.7739 N.am      9 UNK        -0.7519 
     58 O          22.4997  -36.8588  -42.4146 O.2       9 UNK        -0.4960 
     59 C59        20.4929  -34.7723  -42.1540 C.3       10 UNK        -0.0876 
     60 S60        19.3839  -33.3283  -42.3125 S.3       10 UNK        -0.2414 
     61 C61        19.1016  -33.2411  -44.1111 C.3       10 UNK         0.0169 
     62 H62        21.9792  -22.1920  -47.7661 H         1 UNK         0.0903 
     63 H63        20.2152  -22.2366  -47.7385 H         1 UNK         0.0903 
     64 H64        21.1046  -21.6425  -46.3342 H         1 UNK         0.0903 
     65 H65        19.4002  -24.2931  -47.3804 H         1 UNK         0.3096 
     66 H66        21.0838  -26.4151  -46.3180 H         1 UNK         0.1121 
     67 H67        19.2408  -26.4400  -48.3221 H         1 UNK         0.0849 
     68 H68        18.1790  -26.9305  -47.0477 H         1 UNK         0.0849 
     69 H69        17.6026  -29.0544  -47.9811 H         1 UNK         0.0865 
     70 H70        18.6306  -30.4236  -48.2764 H         1 UNK         0.0865 
     71 H71        19.5291  -31.7987  -46.3766 H         1 UNK         0.1346 
     72 H72        17.0734  -31.8472  -42.8590 H         1 UNK         0.1412 
     73 H73        16.6017  -28.7278  -45.7548 H         1 UNK         0.1426 
     74 H74        15.1721  -30.3709  -42.7138 H         1 UNK         0.0716 
     75 H75        14.7948  -29.3136  -44.0467 H         1 UNK         0.0716 
     76 H76        16.8187  -28.4973  -40.1514 H         1 UNK         0.0695 
     77 H77        16.9229  -29.9997  -41.0268 H         1 UNK         0.0695 
     78 H78        19.0103  -29.3331  -42.1110 H         1 UNK         0.0983 
     79 H79        18.1656  -26.8227  -41.9189 H         1 UNK         0.3095 
     80 H80        19.0762  -24.9783  -42.4162 H         1 UNK         0.0454 
     81 H81        20.8447  -24.2591  -40.8288 H         1 UNK         0.0851 
     82 H82        22.0920  -24.6836  -41.9948 H         1 UNK         0.0851 
     83 H83        20.9599  -23.3828  -42.3447 H         1 UNK         0.0851 
     84 H84        21.2454  -25.0815  -44.2992 H         1 UNK         0.2976 
     85 H85        19.9990  -27.4408  -39.4389 H         1 UNK         0.3116 
     86 H86        21.0142  -29.8391  -38.0012 H         1 UNK         0.0646 
     87 H87        20.3193  -28.8629  -35.8340 H         1 UNK         0.0847 
     88 H88        18.9089  -29.1183  -36.8438 H         1 UNK         0.0847 
     89 H89        19.5711  -27.4955  -36.6490 H         1 UNK         0.0847 
     90 H90        22.1317  -27.6201  -39.8581 H         1 UNK         0.3040 
     91 H91        24.4995  -27.0307  -38.1947 H         1 UNK         0.1015 
     92 H92        23.1482  -25.0295  -37.7916 H         1 UNK         0.0786 
     93 H93        22.7943  -24.8345  -39.4994 H         1 UNK         0.0786 
     94 H94        24.4372  -24.6036  -38.8992 H         1 UNK         0.0786 
     95 H95        23.8936  -25.3363  -41.1544 H         1 UNK         0.3172 
     96 H96        26.2053  -26.2819  -42.4235 H         1 UNK         0.0595 
     97 H97        25.1186  -24.0872  -42.9185 H         1 UNK         0.0839 
     98 H98        23.7658  -24.9195  -43.6899 H         1 UNK         0.0839 
     99 H99        25.3713  -25.0124  -44.3875 H         1 UNK         0.0839 
    100 H100       22.9555  -27.6467  -42.5098 H         1 UNK         0.2998 
    101 H101       23.9464  -29.9077  -44.1596 H         1 UNK         0.0822 
    102 H102       22.5867  -28.4483  -45.6817 H         1 UNK         0.0787 
    103 H103       21.7597  -29.9615  -45.3413 H         1 UNK         0.0787 
    104 H104       21.2490  -28.4905  -44.5307 H         1 UNK         0.0787 
    105 H105       24.2885  -30.2472  -41.6883 H         1 UNK         0.3055 
    106 H106       22.0576  -30.8450  -40.0270 H         1 UNK         0.1106 
    107 H107       24.9974  -31.6755  -39.7955 H         1 UNK         0.0828 
    108 H108       24.2705  -30.2135  -39.1273 H         1 UNK         0.0828 
    109 H109       23.8100  -31.7820  -38.5030 H         1 UNK         0.0828 
    110 H110       22.7392  -32.5282  -42.6980 H         1 UNK         0.2931 
    111 H111       22.0353  -34.3800  -43.5855 H         1 UNK         0.0412 
    112 H112       24.7351  -36.3261  -41.5982 H         1 UNK         0.3472 
    113 H113       24.4887  -34.5963  -41.6071 H         1 UNK         0.3472 
    114 H114       20.4138  -35.1246  -41.1241 H         1 UNK         0.0970 
    115 H115       20.1031  -35.5808  -42.7750 H         1 UNK         0.0970 
    116 H116       18.5048  -34.0991  -44.4222 H         1 UNK         0.0612 
    117 H117       20.0656  -33.3253  -44.6144 H         1 UNK         0.0612 
@<TRIPOS>BOND
     1    1    2 1    
     2    1   62 1    
     3    1   63 1    
     4    1   64 1    
     5    2    3 2    
     6    2    4 am   BACKBONE|DICT|INTERRES
     7    4    5 1    
     8    4   65 1    
     9    5    6 1    
    10    5   25 1    
    11    5   66 1    
    12    6    7 1    
    13    6   67 1    
    14    6   68 1    
    15    7    8 1    
    16    8    9 1    
    17    8   69 1    
    18    8   70 1    
    19    9   10 ar   
    20    9   14 ar   
    21   10   11 ar   
    22   10   71 1    
    23   11   12 ar   
    24   11   61 1    
    25   12   13 ar   
    26   12   72 1    
    27   13   14 ar   
    28   13   15 1    
    29   14   73 1    
    30   15   16 1    
    31   15   74 1    
    32   15   75 1    
    33   16   17 1    
    34   17   18 1    
    35   17   76 1    
    36   17   77 1    
    37   18   19 1    
    38   18   27 1    
    39   18   78 1    
    40   19   20 am   BACKBONE|DICT|INTERRES
    41   19   79 1    
    42   20   21 2    
    43   20   22 1    
    44   22   23 1    
    45   22   24 1    
    46   22   80 1    
    47   23   81 1    
    48   23   82 1    
    49   23   83 1    
    50   24   25 am   BACKBONE|DICT|INTERRES
    51   24   84 1    
    52   25   26 2    
    53   27   28 2    
    54   27   29 am   BACKBONE|DICT|INTERRES
    55   29   30 1    
    56   29   85 1    
    57   30   31 1    
    58   30   32 1    
    59   30   86 1    
    60   31   87 1    
    61   31   88 1    
    62   31   89 1    
    63   32   33 2    
    64   32   34 am   BACKBONE|DICT|INTERRES
    65   34   35 1    
    66   34   90 1    
    67   35   36 1    
    68   35   37 1    
    69   35   91 1    
    70   36   92 1    
    71   36   93 1    
    72   36   94 1    
    73   37   38 2    
    74   37   39 am   BACKBONE|DICT|INTERRES
    75   39   40 1    
    76   39   95 1    
    77   40   41 1    
    78   40   42 1    
    79   40   96 1    
    80   41   97 1    
    81   41   98 1    
    82   41   99 1    
    83   42   43 2    
    84   42   44 am   BACKBONE|DICT|INTERRES
    85   44   45 1    
    86   44  100 1    
    87   45   46 1    
    88   45   47 1    
    89   45  101 1    
    90   46  102 1    
    91   46  103 1    
    92   46  104 1    
    93   47   48 2    
    94   47   49 am   BACKBONE|DICT|INTERRES
    95   49   50 1    
    96   49  105 1    
    97   50   51 1    
    98   50   52 1    
    99   50  106 1    
   100   51  107 1    
   101   51  108 1    
   102   51  109 1    
   103   52   53 2    
   104   52   54 am   BACKBONE|DICT|INTERRES
   105   54   55 1    
   106   54  110 1    
   107   55   56 1    
   108   55   59 1    
   109   55  111 1    
   110   56   57 am   BACKBONE|DICT|INTERRES
   111   56   58 2    
   112   57  112 1    
   113   57  113 1    
   114   59   60 1    
   115   59  114 1    
   116   59  115 1    
   117   60   61 1    
   118   61  116 1    
   119   61  117 1    
@<TRIPOS>SUBSTRUCTURE
     1 UNK         1 GROUP             0       ****    0 ROOT    
