@<TRIPOS>MOLECULE
3R8
117   119    1
SMALL
USER_CHARGES


@<TRIPOS>ATOM
      1 CA         14.1376  -29.7129  -41.2806 C.3       0 UNK        -0.2013 
      2 C          14.5089  -28.2392  -41.3545 C.2       0 UNK         0.4866 
      3 O          13.6760  -27.3838  -41.0542 O.2       0 UNK        -0.5176 
      4 N          15.7515  -27.9390  -41.7472 N.am      1 UNK        -0.4884 
      5 CA         16.3128  -26.5855  -41.8273 C.3       1 UNK         0.0853 
      6 C6         15.6835  -25.7022  -42.9506 C.3       10 UNK        -0.0849 
      7 S7         16.4242  -25.7643  -44.6234 S.3       10 UNK        -0.2776 
      8 C8         15.6646  -27.2437  -45.3645 C.3       10 UNK         0.0316 
      9 C9         16.6874  -28.3620  -45.5057 C.ar      10 UNK        -0.0863 
     10 C10        16.6453  -29.4735  -44.6604 C.ar      10 UNK        -0.1009 
     11 C11        17.6154  -30.4754  -44.7550 C.ar      10 UNK        -0.0712 
     12 C12        18.5972  -30.3895  -45.7480 C.ar      10 UNK        -0.0894 
     13 C13        18.6239  -29.3055  -46.6318 C.ar      10 UNK        -0.0745 
     14 C14        17.6763  -28.2866  -46.4930 C.ar      10 UNK        -0.0972 
     15 C15        19.6285  -29.2724  -47.7785 C.3       10 UNK         0.0209 
     16 S16        21.3613  -29.1843  -47.2242 S.3       10 UNK        -0.2568 
     17 C17        21.5648  -27.4059  -46.8443 C.3       10 UNK        -0.0983 
     18 CA         22.2696  -27.1244  -45.4882 C.3       3 UNK         0.0876 
     19 N          21.5376  -27.7091  -44.3702 N.am      3 UNK        -0.4424 
     20 C          20.4888  -27.1547  -43.7618 C.2       2 UNK         0.4918 
     21 O          20.0845  -26.0153  -44.0009 O.2       2 UNK        -0.4875 
     22 CA         19.7788  -28.0553  -42.7386 C.3       2 UNK         0.0481 
     23 CB         20.5405  -28.1624  -41.4037 C.3       2 UNK        -0.1831 
     24 N          18.3755  -27.6869  -42.5406 N.am      2 UNK        -0.4498 
     25 C          17.8521  -26.6629  -41.8467 C.2       1 UNK         0.5027 
     26 O          18.5064  -25.8467  -41.1962 O.2       1 UNK        -0.4969 
     27 C          23.7245  -27.6275  -45.4434 C.2       3 UNK         0.5005 
     28 O          24.0357  -28.5259  -44.6524 O.2       3 UNK        -0.5279 
     29 N          24.5891  -27.0395  -46.2851 N.am      4 UNK        -0.4463 
     30 CA         26.0228  -27.3279  -46.4247 C.3       4 UNK         0.0283 
     31 CB         26.2451  -28.7321  -47.0328 C.3       4 UNK        -0.1875 
     32 C          26.7731  -27.0923  -45.1005 C.2       4 UNK         0.4949 
     33 O          27.0134  -25.9376  -44.7472 O.2       4 UNK        -0.5039 
     34 N          27.0934  -28.1745  -44.3782 N.am      5 UNK        -0.4663 
     35 CA         27.6709  -28.1432  -43.0306 C.3       5 UNK         0.0242 
     36 CB         28.2058  -29.5430  -42.6846 C.3       5 UNK        -0.1982 
     37 C          26.6819  -27.6663  -41.9483 C.2       5 UNK         0.5017 
     38 O          27.1271  -27.2738  -40.8696 O.2       5 UNK        -0.5012 
     39 N          25.3735  -27.7189  -42.2486 N.am      6 UNK        -0.4439 
     40 CA         24.2419  -27.3222  -41.4027 C.3       6 UNK         0.0297 
     41 CB         24.2595  -25.8052  -41.1231 C.3       6 UNK        -0.2006 
     42 C          24.1081  -28.1709  -40.1226 C.2       6 UNK         0.4892 
     43 O          23.6518  -27.6701  -39.0937 O.2       6 UNK        -0.5089 
     44 N          24.4817  -29.4550  -40.2121 N.am      7 UNK        -0.4243 
     45 CA         24.5304  -30.4218  -39.1097 C.3       7 UNK         0.0196 
     46 CB         25.5321  -31.5325  -39.4797 C.3       7 UNK        -0.2007 
     47 C          23.1482  -30.9816  -38.7075 C.2       7 UNK         0.5020 
     48 O          23.0070  -32.1923  -38.5269 O.2       7 UNK        -0.5147 
     49 N          22.1485  -30.0958  -38.5841 N.am      8 UNK        -0.4734 
     50 CA         20.7776  -30.3398  -38.1025 C.3       8 UNK         0.0238 
     51 CB         20.7994  -30.5746  -36.5770 C.3       8 UNK        -0.1912 
     52 C          20.0061  -31.4518  -38.8492 C.2       8 UNK         0.5038 
     53 O          19.1311  -32.0845  -38.2552 O.2       8 UNK        -0.5046 
     54 N          20.3524  -31.6769  -40.1249 N.am      9 UNK        -0.4200 
     55 CA         19.8563  -32.7701  -40.9821 C.3       9 UNK         0.0839 
     56 C          20.3083  -34.1933  -40.5283 C.2       9 UNK         0.5513 
     57 N          21.3280  -34.3324  -39.6883 N.am      9 UNK        -0.7519 
     58 O          19.7501  -35.1949  -40.9694 O.2       9 UNK        -0.4960 
     59 C59        18.3280  -32.6856  -41.2749 C.3       10 UNK        -0.0876 
     60 S60        17.8666  -31.1129  -42.0736 S.3       10 UNK        -0.2414 
     61 C61        17.5969  -31.6536  -43.7916 C.3       10 UNK         0.0169 
     62 H62        14.9706  -30.3617  -41.5489 H         1 UNK         0.0903 
     63 H63        13.8224  -29.9697  -40.2696 H         1 UNK         0.0903 
     64 H64        13.3116  -29.9252  -41.9589 H         1 UNK         0.0903 
     65 H65        16.4186  -28.6877  -41.8762 H         1 UNK         0.3096 
     66 H66        16.0632  -26.1084  -40.8761 H         1 UNK         0.1121 
     67 H67        15.7626  -24.6602  -42.6364 H         1 UNK         0.0849 
     68 H68        14.6106  -25.8781  -43.0344 H         1 UNK         0.0849 
     69 H69        14.8064  -27.5688  -44.7741 H         1 UNK         0.0865 
     70 H70        15.2746  -26.9852  -46.3501 H         1 UNK         0.0865 
     71 H71        15.8652  -29.5580  -43.9178 H         1 UNK         0.1346 
     72 H72        19.3354  -31.1737  -45.8476 H         1 UNK         0.1412 
     73 H73        17.6958  -27.4374  -47.1627 H         1 UNK         0.1426 
     74 H74        19.4246  -28.4432  -48.4579 H         1 UNK         0.0716 
     75 H75        19.5043  -30.1809  -48.3694 H         1 UNK         0.0716 
     76 H76        20.5830  -26.9297  -46.8400 H         1 UNK         0.0695 
     77 H77        22.1085  -26.9400  -47.6675 H         1 UNK         0.0695 
     78 H78        22.3175  -26.0431  -45.3394 H         1 UNK         0.0983 
     79 H79        21.8681  -28.6269  -44.1035 H         1 UNK         0.3095 
     80 H80        19.7440  -29.0550  -43.1732 H         1 UNK         0.0454 
     81 H81        20.8270  -27.1840  -41.0159 H         1 UNK         0.0851 
     82 H82        21.4479  -28.7516  -41.5256 H         1 UNK         0.0851 
     83 H83        19.9374  -28.6606  -40.6457 H         1 UNK         0.0851 
     84 H84        17.7412  -28.2021  -43.1353 H         1 UNK         0.2976 
     85 H85        24.2462  -26.2899  -46.8705 H         1 UNK         0.3116 
     86 H86        26.4201  -26.6001  -47.1341 H         1 UNK         0.0646 
     87 H87        25.8053  -29.5273  -46.4303 H         1 UNK         0.0847 
     88 H88        27.3087  -28.9488  -47.1426 H         1 UNK         0.0847 
     89 H89        25.8032  -28.7979  -48.0270 H         1 UNK         0.0847 
     90 H90        26.8289  -29.0801  -44.7395 H         1 UNK         0.3040 
     91 H91        28.5095  -27.4431  -43.0334 H         1 UNK         0.1015 
     92 H92        27.4109  -30.2899  -42.6761 H         1 UNK         0.0786 
     93 H93        28.6701  -29.5509  -41.6972 H         1 UNK         0.0786 
     94 H94        28.9638  -29.8660  -43.3985 H         1 UNK         0.0786 
     95 H95        25.1143  -28.0758  -43.1669 H         1 UNK         0.3172 
     96 H96        23.3529  -27.5253  -41.9978 H         1 UNK         0.0595 
     97 H97        25.0899  -25.5217  -40.4758 H         1 UNK         0.0839 
     98 H98        23.3403  -25.4881  -40.6289 H         1 UNK         0.0839 
     99 H99        24.3428  -25.2328  -42.0470 H         1 UNK         0.0839 
    100 H100       24.8084  -29.7852  -41.1084 H         1 UNK         0.2998 
    101 H101       24.9217  -29.9092  -38.2282 H         1 UNK         0.0822 
    102 H102       25.6651  -32.2331  -38.6540 H         1 UNK         0.0787 
    103 H103       25.1961  -32.1066  -40.3442 H         1 UNK         0.0787 
    104 H104       26.5150  -31.1206  -39.7103 H         1 UNK         0.0787 
    105 H105       22.3960  -29.1224  -38.7441 H         1 UNK         0.3055 
    106 H106       20.2191  -29.4202  -38.2835 H         1 UNK         0.1106 
    107 H107       19.7889  -30.6209  -36.1688 H         1 UNK         0.0828 
    108 H108       21.2972  -31.5109  -36.3221 H         1 UNK         0.0828 
    109 H109       21.3168  -29.7677  -36.0581 H         1 UNK         0.0828 
    110 H110       21.1023  -31.1256  -40.5121 H         1 UNK         0.2931 
    111 H111       20.3645  -32.6266  -41.9364 H         1 UNK         0.0412 
    112 H112       21.6148  -35.2586  -39.4144 H         1 UNK         0.3472 
    113 H113       21.8187  -33.5244  -39.3161 H         1 UNK         0.3472 
    114 H114       18.0092  -33.5091  -41.9162 H         1 UNK         0.0970 
    115 H115       17.7505  -32.7922  -40.3560 H         1 UNK         0.0970 
    116 H116       16.6393  -32.1711  -43.8625 H         1 UNK         0.0612 
    117 H117       18.3667  -32.3773  -44.0644 H         1 UNK         0.0612 
@<TRIPOS>BOND
     1    1    2 1    
     2    1   62 1    
     3    1   63 1    
     4    1   64 1    
     5    2    3 2    
     6    2    4 am   BACKBONE|DICT|INTERRES
     7    4    5 1    
     8    4   65 1    
     9    5    6 1    
    10    5   25 1    
    11    5   66 1    
    12    6    7 1    
    13    6   67 1    
    14    6   68 1    
    15    7    8 1    
    16    8    9 1    
    17    8   69 1    
    18    8   70 1    
    19    9   10 ar   
    20    9   14 ar   
    21   10   11 ar   
    22   10   71 1    
    23   11   12 ar   
    24   11   61 1    
    25   12   13 ar   
    26   12   72 1    
    27   13   14 ar   
    28   13   15 1    
    29   14   73 1    
    30   15   16 1    
    31   15   74 1    
    32   15   75 1    
    33   16   17 1    
    34   17   18 1    
    35   17   76 1    
    36   17   77 1    
    37   18   19 1    
    38   18   27 1    
    39   18   78 1    
    40   19   20 am   BACKBONE|DICT|INTERRES
    41   19   79 1    
    42   20   21 2    
    43   20   22 1    
    44   22   23 1    
    45   22   24 1    
    46   22   80 1    
    47   23   81 1    
    48   23   82 1    
    49   23   83 1    
    50   24   25 am   BACKBONE|DICT|INTERRES
    51   24   84 1    
    52   25   26 2    
    53   27   28 2    
    54   27   29 am   BACKBONE|DICT|INTERRES
    55   29   30 1    
    56   29   85 1    
    57   30   31 1    
    58   30   32 1    
    59   30   86 1    
    60   31   87 1    
    61   31   88 1    
    62   31   89 1    
    63   32   33 2    
    64   32   34 am   BACKBONE|DICT|INTERRES
    65   34   35 1    
    66   34   90 1    
    67   35   36 1    
    68   35   37 1    
    69   35   91 1    
    70   36   92 1    
    71   36   93 1    
    72   36   94 1    
    73   37   38 2    
    74   37   39 am   BACKBONE|DICT|INTERRES
    75   39   40 1    
    76   39   95 1    
    77   40   41 1    
    78   40   42 1    
    79   40   96 1    
    80   41   97 1    
    81   41   98 1    
    82   41   99 1    
    83   42   43 2    
    84   42   44 am   BACKBONE|DICT|INTERRES
    85   44   45 1    
    86   44  100 1    
    87   45   46 1    
    88   45   47 1    
    89   45  101 1    
    90   46  102 1    
    91   46  103 1    
    92   46  104 1    
    93   47   48 2    
    94   47   49 am   BACKBONE|DICT|INTERRES
    95   49   50 1    
    96   49  105 1    
    97   50   51 1    
    98   50   52 1    
    99   50  106 1    
   100   51  107 1    
   101   51  108 1    
   102   51  109 1    
   103   52   53 2    
   104   52   54 am   BACKBONE|DICT|INTERRES
   105   54   55 1    
   106   54  110 1    
   107   55   56 1    
   108   55   59 1    
   109   55  111 1    
   110   56   57 am   BACKBONE|DICT|INTERRES
   111   56   58 2    
   112   57  112 1    
   113   57  113 1    
   114   59   60 1    
   115   59  114 1    
   116   59  115 1    
   117   60   61 1    
   118   61  116 1    
   119   61  117 1    
@<TRIPOS>SUBSTRUCTURE
     1 UNK         1 GROUP             0       ****    0 ROOT    
