@<TRIPOS>MOLECULE
3R8
117   119    1
SMALL
USER_CHARGES


@<TRIPOS>ATOM
      1 CA         17.7577  -24.4368  -39.7445 C.3       0 UNK        -0.2013 
      2 C          17.2922  -24.4133  -41.1930 C.2       0 UNK         0.4866 
      3 O          16.8141  -23.3815  -41.6663 O.2       0 UNK        -0.5176 
      4 N          17.4216  -25.5445  -41.8976 N.am      1 UNK        -0.4884 
      5 CA         17.1093  -25.6794  -43.3245 C.3       1 UNK         0.0853 
      6 C6         16.8761  -27.1645  -43.6980 C.3       10 UNK        -0.0849 
      7 S7         15.8513  -27.3578  -45.1973 S.3       10 UNK        -0.2776 
      8 C8         15.5652  -29.1572  -45.2114 C.3       10 UNK         0.0316 
      9 C9         16.8724  -29.9350  -45.2443 C.ar      10 UNK        -0.0863 
     10 C10        17.2896  -30.6601  -44.1248 C.ar      10 UNK        -0.1009 
     11 C11        18.5050  -31.3501  -44.1393 C.ar      10 UNK        -0.0712 
     12 C12        19.3121  -31.3017  -45.2799 C.ar      10 UNK        -0.0894 
     13 C13        18.9057  -30.5765  -46.4050 C.ar      10 UNK        -0.0745 
     14 C14        17.6762  -29.9107  -46.3868 C.ar      10 UNK        -0.0972 
     15 C15        19.7969  -30.5056  -47.6378 C.3       10 UNK         0.0209 
     16 S16        20.2504  -28.7938  -48.0704 S.3       10 UNK        -0.2568 
     17 C17        21.2342  -28.2941  -46.6181 C.3       10 UNK        -0.0983 
     18 CA         21.4711  -26.7647  -46.5846 C.3       3 UNK         0.0876 
     19 N          20.2132  -26.0152  -46.4842 N.am      3 UNK        -0.4424 
     20 C          20.0801  -24.7071  -46.7418 C.2       2 UNK         0.4918 
     21 O          20.9936  -23.9998  -47.1675 O.2       2 UNK        -0.4875 
     22 CA         18.7082  -24.0636  -46.4598 C.3       2 UNK         0.0481 
     23 CB         17.9115  -23.9250  -47.7669 C.3       2 UNK        -0.1831 
     24 N          17.8748  -24.7512  -45.4639 N.am      2 UNK        -0.4498 
     25 C          18.2095  -25.0298  -44.1955 C.2       1 UNK         0.5027 
     26 O          19.3329  -24.8266  -43.7263 O.2       1 UNK        -0.4969 
     27 C          22.4829  -26.3940  -45.4761 C.2       3 UNK         0.5005 
     28 O          23.6660  -26.6961  -45.6349 O.2       3 UNK        -0.5279 
     29 N          22.0215  -25.7681  -44.3788 N.am      4 UNK        -0.4463 
     30 CA         22.7691  -25.2216  -43.2332 C.3       4 UNK         0.0283 
     31 CB         23.7327  -24.1086  -43.6881 C.3       4 UNK        -0.1875 
     32 C          23.5009  -26.2431  -42.3402 C.2       4 UNK         0.4949 
     33 O          23.7329  -25.9468  -41.1670 O.2       4 UNK        -0.5039 
     34 N          23.8499  -27.4166  -42.8788 N.am      5 UNK        -0.4663 
     35 CA         24.5639  -28.5108  -42.2176 C.3       5 UNK         0.0242 
     36 CB         25.1224  -29.4545  -43.2995 C.3       5 UNK        -0.1982 
     37 C          23.7016  -29.2570  -41.1802 C.2       5 UNK         0.5017 
     38 O          23.4814  -30.4614  -41.3112 O.2       5 UNK        -0.5012 
     39 N          23.2539  -28.5411  -40.1407 N.am      6 UNK        -0.4439 
     40 CA         22.4436  -29.0571  -39.0302 C.3       6 UNK         0.0297 
     41 CB         22.1031  -27.9076  -38.0696 C.3       6 UNK        -0.2006 
     42 C          23.0941  -30.2266  -38.2657 C.2       6 UNK         0.4892 
     43 O          22.3785  -31.0966  -37.7695 O.2       6 UNK        -0.5089 
     44 N          24.4340  -30.2523  -38.2269 N.am      7 UNK        -0.4243 
     45 CA         25.2369  -31.3486  -37.6807 C.3       7 UNK         0.0196 
     46 CB         26.7022  -30.8963  -37.5758 C.3       7 UNK        -0.2007 
     47 C          25.1343  -32.6528  -38.4948 C.2       7 UNK         0.5020 
     48 O          25.3001  -33.7276  -37.9177 O.2       7 UNK        -0.5147 
     49 N          24.8631  -32.5487  -39.8045 N.am      8 UNK        -0.4734 
     50 CA         24.6015  -33.6939  -40.6795 C.3       8 UNK         0.0238 
     51 CB         25.0041  -33.3560  -42.1248 C.3       8 UNK        -0.1912 
     52 C          23.1285  -34.1244  -40.6074 C.2       8 UNK         0.5038 
     53 O          22.8548  -35.3232  -40.6793 O.2       8 UNK        -0.5046 
     54 N          22.2153  -33.1535  -40.4540 N.am      9 UNK        -0.4200 
     55 CA         20.7813  -33.3892  -40.2234 C.3       9 UNK         0.0839 
     56 C          20.4915  -34.1228  -38.8851 C.2       9 UNK         0.5513 
     57 N          21.1205  -33.7253  -37.7861 N.am      9 UNK        -0.7519 
     58 O          19.6909  -35.0533  -38.8465 O.2       9 UNK        -0.4960 
     59 C59        19.9392  -32.0905  -40.3063 C.3       10 UNK        -0.0876 
     60 S60        20.0992  -31.2031  -41.8906 S.3       10 UNK        -0.2414 
     61 C61        18.9385  -32.1488  -42.9213 C.3       10 UNK         0.0169 
     62 H62        18.1437  -25.4141  -39.4549 H         1 UNK         0.0903 
     63 H63        18.5484  -23.7023  -39.5936 H         1 UNK         0.0903 
     64 H64        16.9304  -24.1887  -39.0800 H         1 UNK         0.0903 
     65 H65        17.8540  -26.3484  -41.4652 H         1 UNK         0.3096 
     66 H66        16.1820  -25.1290  -43.5028 H         1 UNK         0.1121 
     67 H67        17.8227  -27.6952  -43.8220 H         1 UNK         0.0849 
     68 H68        16.3508  -27.6741  -42.8882 H         1 UNK         0.0849 
     69 H69        14.9681  -29.4329  -44.3406 H         1 UNK         0.0865 
     70 H70        14.9674  -29.4167  -46.0863 H         1 UNK         0.0865 
     71 H71        16.6722  -30.6827  -43.2370 H         1 UNK         0.1346 
     72 H72        20.2593  -31.8237  -45.2846 H         1 UNK         0.1412 
     73 H73        17.3597  -29.3445  -47.2525 H         1 UNK         0.1426 
     74 H74        19.2704  -30.9548  -48.4808 H         1 UNK         0.0716 
     75 H75        20.7088  -31.0881  -47.4970 H         1 UNK         0.0716 
     76 H76        20.7325  -28.6192  -45.7048 H         1 UNK         0.0695 
     77 H77        22.1817  -28.8352  -46.6605 H         1 UNK         0.0695 
     78 H78        21.9450  -26.4824  -47.5276 H         1 UNK         0.0983 
     79 H79        19.4045  -26.5324  -46.1731 H         1 UNK         0.3095 
     80 H80        18.9017  -23.0612  -46.0732 H         1 UNK         0.0454 
     81 H81        18.4891  -23.3914  -48.5233 H         1 UNK         0.0851 
     82 H82        17.6496  -24.8981  -48.1844 H         1 UNK         0.0851 
     83 H83        16.9892  -23.3642  -47.6145 H         1 UNK         0.0851 
     84 H84        16.9466  -25.0117  -45.7693 H         1 UNK         0.2976 
     85 H85        21.0225  -25.5825  -44.3328 H         1 UNK         0.3116 
     86 H86        22.0138  -24.7569  -42.5973 H         1 UNK         0.0646 
     87 H87        24.2020  -23.6247  -42.8305 H         1 UNK         0.0847 
     88 H88        23.2082  -23.3351  -44.2490 H         1 UNK         0.0847 
     89 H89        24.5339  -24.4958  -44.3183 H         1 UNK         0.0847 
     90 H90        23.6774  -27.5230  -43.8731 H         1 UNK         0.3040 
     91 H91        25.4132  -28.0852  -41.6786 H         1 UNK         0.1015 
     92 H92        25.7747  -28.9226  -43.9926 H         1 UNK         0.0786 
     93 H93        24.3239  -29.9186  -43.8802 H         1 UNK         0.0786 
     94 H94        25.7120  -30.2569  -42.8540 H         1 UNK         0.0786 
     95 H95        23.4468  -27.5423  -40.1558 H         1 UNK         0.3172 
     96 H96        21.5115  -29.4258  -39.4609 H         1 UNK         0.0595 
     97 H97        21.5544  -27.1144  -38.5779 H         1 UNK         0.0839 
     98 H98        23.0000  -27.4681  -37.6312 H         1 UNK         0.0839 
     99 H99        21.4762  -28.2581  -37.2482 H         1 UNK         0.0839 
    100 H100       24.9358  -29.4878  -38.6544 H         1 UNK         0.2998 
    101 H101       24.8703  -31.5625  -36.6742 H         1 UNK         0.0822 
    102 H102       26.8029  -30.0195  -36.9358 H         1 UNK         0.0787 
    103 H103       27.3229  -31.6830  -37.1441 H         1 UNK         0.0787 
    104 H104       27.1206  -30.6510  -38.5529 H         1 UNK         0.0787 
    105 H105       24.6783  -31.6338  -40.2011 H         1 UNK         0.3055 
    106 H106       25.2106  -34.5401  -40.3527 H         1 UNK         0.1106 
    107 H107       24.3863  -32.5645  -42.5491 H         1 UNK         0.0828 
    108 H108       26.0451  -33.0385  -42.1840 H         1 UNK         0.0828 
    109 H109       24.8946  -34.2290  -42.7695 H         1 UNK         0.0828 
    110 H110       22.5204  -32.1884  -40.4714 H         1 UNK         0.2931 
    111 H111       20.4403  -34.0477  -41.0248 H         1 UNK         0.0412 
    112 H112       20.9417  -34.1967  -36.9140 H         1 UNK         0.3472 
    113 H113       21.7152  -32.9013  -37.8046 H         1 UNK         0.3472 
    114 H114       20.2274  -31.4055  -39.5081 H         1 UNK         0.0970 
    115 H115       18.8829  -32.3068  -40.1346 H         1 UNK         0.0970 
    116 H116       18.0631  -32.4296  -42.3339 H         1 UNK         0.0612 
    117 H117       19.4123  -33.0809  -43.2328 H         1 UNK         0.0612 
@<TRIPOS>BOND
     1    1    2 1    
     2    1   62 1    
     3    1   63 1    
     4    1   64 1    
     5    2    3 2    
     6    2    4 am   BACKBONE|DICT|INTERRES
     7    4    5 1    
     8    4   65 1    
     9    5    6 1    
    10    5   25 1    
    11    5   66 1    
    12    6    7 1    
    13    6   67 1    
    14    6   68 1    
    15    7    8 1    
    16    8    9 1    
    17    8   69 1    
    18    8   70 1    
    19    9   10 ar   
    20    9   14 ar   
    21   10   11 ar   
    22   10   71 1    
    23   11   12 ar   
    24   11   61 1    
    25   12   13 ar   
    26   12   72 1    
    27   13   14 ar   
    28   13   15 1    
    29   14   73 1    
    30   15   16 1    
    31   15   74 1    
    32   15   75 1    
    33   16   17 1    
    34   17   18 1    
    35   17   76 1    
    36   17   77 1    
    37   18   19 1    
    38   18   27 1    
    39   18   78 1    
    40   19   20 am   BACKBONE|DICT|INTERRES
    41   19   79 1    
    42   20   21 2    
    43   20   22 1    
    44   22   23 1    
    45   22   24 1    
    46   22   80 1    
    47   23   81 1    
    48   23   82 1    
    49   23   83 1    
    50   24   25 am   BACKBONE|DICT|INTERRES
    51   24   84 1    
    52   25   26 2    
    53   27   28 2    
    54   27   29 am   BACKBONE|DICT|INTERRES
    55   29   30 1    
    56   29   85 1    
    57   30   31 1    
    58   30   32 1    
    59   30   86 1    
    60   31   87 1    
    61   31   88 1    
    62   31   89 1    
    63   32   33 2    
    64   32   34 am   BACKBONE|DICT|INTERRES
    65   34   35 1    
    66   34   90 1    
    67   35   36 1    
    68   35   37 1    
    69   35   91 1    
    70   36   92 1    
    71   36   93 1    
    72   36   94 1    
    73   37   38 2    
    74   37   39 am   BACKBONE|DICT|INTERRES
    75   39   40 1    
    76   39   95 1    
    77   40   41 1    
    78   40   42 1    
    79   40   96 1    
    80   41   97 1    
    81   41   98 1    
    82   41   99 1    
    83   42   43 2    
    84   42   44 am   BACKBONE|DICT|INTERRES
    85   44   45 1    
    86   44  100 1    
    87   45   46 1    
    88   45   47 1    
    89   45  101 1    
    90   46  102 1    
    91   46  103 1    
    92   46  104 1    
    93   47   48 2    
    94   47   49 am   BACKBONE|DICT|INTERRES
    95   49   50 1    
    96   49  105 1    
    97   50   51 1    
    98   50   52 1    
    99   50  106 1    
   100   51  107 1    
   101   51  108 1    
   102   51  109 1    
   103   52   53 2    
   104   52   54 am   BACKBONE|DICT|INTERRES
   105   54   55 1    
   106   54  110 1    
   107   55   56 1    
   108   55   59 1    
   109   55  111 1    
   110   56   57 am   BACKBONE|DICT|INTERRES
   111   56   58 2    
   112   57  112 1    
   113   57  113 1    
   114   59   60 1    
   115   59  114 1    
   116   59  115 1    
   117   60   61 1    
   118   61  116 1    
   119   61  117 1    
@<TRIPOS>SUBSTRUCTURE
     1 UNK         1 GROUP             0       ****    0 ROOT    
