@<TRIPOS>MOLECULE
3R8
117   119    1
SMALL
USER_CHARGES


@<TRIPOS>ATOM
      1 CA         13.1131  -22.7921  -47.4568 C.3       0 UNK        -0.2013 
      2 C          14.4390  -23.4277  -47.0658 C.2       0 UNK         0.4866 
      3 O          15.4943  -22.9461  -47.4798 O.2       0 UNK        -0.5176 
      4 N          14.3944  -24.5101  -46.2786 N.am      1 UNK        -0.4884 
      5 CA         15.5726  -25.2036  -45.7494 C.3       1 UNK         0.0853 
      6 C6         15.2041  -26.6317  -45.2718 C.3       10 UNK        -0.0849 
      7 S7         16.6615  -27.7049  -45.0179 S.3       10 UNK        -0.2776 
      8 C8         16.5847  -27.9636  -43.2112 C.3       10 UNK         0.0316 
      9 C9         17.7608  -28.7557  -42.6409 C.ar      10 UNK        -0.0863 
     10 C10        18.3123  -29.8468  -43.3264 C.ar      10 UNK        -0.1009 
     11 C11        19.3692  -30.5767  -42.7739 C.ar      10 UNK        -0.0712 
     12 C12        19.8684  -30.2172  -41.5209 C.ar      10 UNK        -0.0894 
     13 C13        19.3120  -29.1523  -40.8093 C.ar      10 UNK        -0.0745 
     14 C14        18.2647  -28.4204  -41.3782 C.ar      10 UNK        -0.0972 
     15 C15        19.8230  -28.8244  -39.4132 C.3       10 UNK         0.0209 
     16 S16        21.3942  -27.9089  -39.4581 S.3       10 UNK        -0.2568 
     17 C17        20.8443  -26.2456  -39.9684 C.3       10 UNK        -0.0983 
     18 CA         20.9828  -26.0172  -41.4963 C.3       3 UNK         0.0876 
     19 N          20.0070  -25.0290  -41.9722 N.am      3 UNK        -0.4424 
     20 C          19.5103  -24.9714  -43.2123 C.2       2 UNK         0.4918 
     21 O          19.9123  -25.6755  -44.1430 O.2       2 UNK        -0.4875 
     22 CA         18.4000  -23.9482  -43.4664 C.3       2 UNK         0.0481 
     23 CB         18.9819  -22.5886  -43.8859 C.3       2 UNK        -0.1831 
     24 N          17.5647  -24.4810  -44.5347 N.am      2 UNK        -0.4498 
     25 C          16.2367  -24.3763  -44.6271 C.2       1 UNK         0.5027 
     26 O          15.5420  -23.7066  -43.8574 O.2       1 UNK        -0.4969 
     27 C          22.4322  -25.7240  -41.9572 C.2       3 UNK         0.5005 
     28 O          23.3732  -25.8346  -41.1691 O.2       3 UNK        -0.5279 
     29 N          22.6062  -25.4046  -43.2473 N.am      4 UNK        -0.4463 
     30 CA         23.9053  -25.2433  -43.9121 C.3       4 UNK         0.0283 
     31 CB         23.6851  -24.6656  -45.3190 C.3       4 UNK        -0.1875 
     32 C          24.7058  -26.5582  -43.9843 C.2       4 UNK         0.4949 
     33 O          25.9333  -26.5224  -44.0627 O.2       4 UNK        -0.5039 
     34 N          23.9923  -27.6911  -43.9250 N.am      5 UNK        -0.4663 
     35 CA         24.5396  -29.0438  -43.8315 C.3       5 UNK         0.0242 
     36 CB         23.4227  -30.0401  -44.1804 C.3       5 UNK        -0.1982 
     37 C          25.1321  -29.3838  -42.4507 C.2       5 UNK         0.5017 
     38 O          25.8211  -30.3971  -42.3487 O.2       5 UNK        -0.5012 
     39 N          24.8384  -28.5757  -41.4173 N.am      6 UNK        -0.4439 
     40 CA         25.2848  -28.7296  -40.0252 C.3       6 UNK         0.0297 
     41 CB         26.7957  -28.4372  -39.9092 C.3       6 UNK        -0.2006 
     42 C          24.8845  -30.0842  -39.4015 C.2       6 UNK         0.4892 
     43 O          25.7084  -30.7376  -38.7588 O.2       6 UNK        -0.5089 
     44 N          23.6189  -30.4739  -39.6195 N.am      7 UNK        -0.4243 
     45 CA         22.9625  -31.6955  -39.1306 C.3       7 UNK         0.0196 
     46 CB         22.8678  -31.6888  -37.5895 C.3       7 UNK        -0.2007 
     47 C          23.5535  -33.0078  -39.6889 C.2       7 UNK         0.5020 
     48 O          23.4140  -34.0530  -39.0527 O.2       7 UNK        -0.5147 
     49 N          24.1878  -32.9498  -40.8694 N.am      8 UNK        -0.4734 
     50 CA         24.7944  -34.1094  -41.5338 C.3       8 UNK         0.0238 
     51 CB         25.7982  -33.6245  -42.5920 C.3       8 UNK        -0.1912 
     52 C          23.7805  -35.0794  -42.1686 C.2       8 UNK         0.5038 
     53 O          24.1252  -36.2457  -42.3664 O.2       8 UNK        -0.5046 
     54 N          22.5758  -34.5943  -42.5015 N.am      9 UNK        -0.4200 
     55 CA         21.4897  -35.4017  -43.0788 C.3       9 UNK         0.0839 
     56 C          20.8662  -36.4129  -42.0742 C.2       9 UNK         0.5513 
     57 N          20.2507  -37.4767  -42.5733 N.am      9 UNK        -0.7519 
     58 O          20.9092  -36.2349  -40.8587 O.2       9 UNK        -0.4960 
     59 C59        20.4188  -34.5271  -43.7860 C.3       10 UNK        -0.0876 
     60 S60        19.5652  -33.3328  -42.6977 S.3       10 UNK        -0.2414 
     61 C61        19.9700  -31.7605  -43.5176 C.3       10 UNK         0.0169 
     62 H62        12.2645  -23.3040  -47.0007 H         1 UNK         0.0903 
     63 H63        13.0898  -21.7484  -47.1401 H         1 UNK         0.0903 
     64 H64        12.9870  -22.8233  -48.5399 H         1 UNK         0.0903 
     65 H65        13.5010  -24.8403  -45.9414 H         1 UNK         0.3096 
     66 H66        16.2875  -25.2952  -46.5710 H         1 UNK         0.1121 
     67 H67        14.5912  -26.5968  -44.3688 H         1 UNK         0.0849 
     68 H68        14.5864  -27.1212  -46.0268 H         1 UNK         0.0849 
     69 H69        16.5265  -26.9868  -42.7278 H         1 UNK         0.0865 
     70 H70        15.6610  -28.4893  -42.9654 H         1 UNK         0.0865 
     71 H71        17.9157  -30.1335  -44.2905 H         1 UNK         0.1346 
     72 H72        20.6765  -30.7880  -41.0918 H         1 UNK         0.1412 
     73 H73        17.8312  -27.5968  -40.8272 H         1 UNK         0.1426 
     74 H74        19.0804  -28.2600  -38.8470 H         1 UNK         0.0716 
     75 H75        19.9784  -29.7525  -38.8610 H         1 UNK         0.0716 
     76 H76        19.8047  -26.1285  -39.6589 H         1 UNK         0.0695 
     77 H77        21.4007  -25.4957  -39.4031 H         1 UNK         0.0695 
     78 H78        20.7204  -26.9591  -41.9837 H         1 UNK         0.0983 
     79 H79        19.6645  -24.3774  -41.2807 H         1 UNK         0.3095 
     80 H80        17.8128  -23.8339  -42.5528 H         1 UNK         0.0454 
     81 H81        19.5904  -22.6708  -44.7874 H         1 UNK         0.0851 
     82 H82        18.1911  -21.8644  -44.0821 H         1 UNK         0.0851 
     83 H83        19.6145  -22.1728  -43.1007 H         1 UNK         0.0851 
     84 H84        18.0551  -25.1182  -45.1520 H         1 UNK         0.2976 
     85 H85        21.7751  -25.3695  -43.8321 H         1 UNK         0.3116 
     86 H86        24.4951  -24.5291  -43.3336 H         1 UNK         0.0646 
     87 H87        24.6363  -24.5115  -45.8307 H         1 UNK         0.0847 
     88 H88        23.1814  -23.6997  -45.2776 H         1 UNK         0.0847 
     89 H89        23.0848  -25.3314  -45.9404 H         1 UNK         0.0847 
     90 H90        22.9866  -27.6096  -43.8964 H         1 UNK         0.3040 
     91 H91        25.3431  -29.1459  -44.5644 H         1 UNK         0.1015 
     92 H92        23.0412  -29.8741  -45.1880 H         1 UNK         0.0786 
     93 H93        22.5875  -29.9524  -43.4856 H         1 UNK         0.0786 
     94 H94        23.7813  -31.0696  -44.1380 H         1 UNK         0.0786 
     95 H95        24.2747  -27.7520  -41.5965 H         1 UNK         0.3172 
     96 H96        24.7578  -27.9646  -39.4526 H         1 UNK         0.0595 
     97 H97        27.1146  -28.4332  -38.8662 H         1 UNK         0.0839 
     98 H98        27.0435  -27.4612  -40.3265 H         1 UNK         0.0839 
     99 H99        27.3939  -29.1864  -40.4291 H         1 UNK         0.0839 
    100 H100       23.0290  -29.8396  -40.1411 H         1 UNK         0.2998 
    101 H101       21.9402  -31.6615  -39.5035 H         1 UNK         0.0822 
    102 H102       22.4247  -30.7621  -37.2244 H         1 UNK         0.0787 
    103 H103       22.2423  -32.5071  -37.2308 H         1 UNK         0.0787 
    104 H104       23.8467  -31.8009  -37.1223 H         1 UNK         0.0787 
    105 H105       24.3274  -32.0480  -41.3054 H         1 UNK         0.3055 
    106 H106       25.3482  -34.6778  -40.7828 H         1 UNK         0.1106 
    107 H107       26.2803  -34.4663  -43.0911 H         1 UNK         0.0828 
    108 H108       25.3158  -33.0216  -43.3621 H         1 UNK         0.0828 
    109 H109       26.5886  -33.0240  -42.1413 H         1 UNK         0.0828 
    110 H110       22.3506  -33.6414  -42.2625 H         1 UNK         0.2931 
    111 H111       21.9509  -36.0060  -43.8632 H         1 UNK         0.0412 
    112 H112       19.8296  -38.1400  -41.9412 H         1 UNK         0.3472 
    113 H113       20.2049  -37.6359  -43.5680 H         1 UNK         0.3472 
    114 H114       20.8868  -33.9931  -44.6143 H         1 UNK         0.0970 
    115 H115       19.6608  -35.1599  -44.2511 H         1 UNK         0.0970 
    116 H116       19.6122  -31.7891  -44.5485 H         1 UNK         0.0612 
    117 H117       21.0534  -31.6553  -43.5650 H         1 UNK         0.0612 
@<TRIPOS>BOND
     1    1    2 1    
     2    1   62 1    
     3    1   63 1    
     4    1   64 1    
     5    2    3 2    
     6    2    4 am   BACKBONE|DICT|INTERRES
     7    4    5 1    
     8    4   65 1    
     9    5    6 1    
    10    5   25 1    
    11    5   66 1    
    12    6    7 1    
    13    6   67 1    
    14    6   68 1    
    15    7    8 1    
    16    8    9 1    
    17    8   69 1    
    18    8   70 1    
    19    9   10 ar   
    20    9   14 ar   
    21   10   11 ar   
    22   10   71 1    
    23   11   12 ar   
    24   11   61 1    
    25   12   13 ar   
    26   12   72 1    
    27   13   14 ar   
    28   13   15 1    
    29   14   73 1    
    30   15   16 1    
    31   15   74 1    
    32   15   75 1    
    33   16   17 1    
    34   17   18 1    
    35   17   76 1    
    36   17   77 1    
    37   18   19 1    
    38   18   27 1    
    39   18   78 1    
    40   19   20 am   BACKBONE|DICT|INTERRES
    41   19   79 1    
    42   20   21 2    
    43   20   22 1    
    44   22   23 1    
    45   22   24 1    
    46   22   80 1    
    47   23   81 1    
    48   23   82 1    
    49   23   83 1    
    50   24   25 am   BACKBONE|DICT|INTERRES
    51   24   84 1    
    52   25   26 2    
    53   27   28 2    
    54   27   29 am   BACKBONE|DICT|INTERRES
    55   29   30 1    
    56   29   85 1    
    57   30   31 1    
    58   30   32 1    
    59   30   86 1    
    60   31   87 1    
    61   31   88 1    
    62   31   89 1    
    63   32   33 2    
    64   32   34 am   BACKBONE|DICT|INTERRES
    65   34   35 1    
    66   34   90 1    
    67   35   36 1    
    68   35   37 1    
    69   35   91 1    
    70   36   92 1    
    71   36   93 1    
    72   36   94 1    
    73   37   38 2    
    74   37   39 am   BACKBONE|DICT|INTERRES
    75   39   40 1    
    76   39   95 1    
    77   40   41 1    
    78   40   42 1    
    79   40   96 1    
    80   41   97 1    
    81   41   98 1    
    82   41   99 1    
    83   42   43 2    
    84   42   44 am   BACKBONE|DICT|INTERRES
    85   44   45 1    
    86   44  100 1    
    87   45   46 1    
    88   45   47 1    
    89   45  101 1    
    90   46  102 1    
    91   46  103 1    
    92   46  104 1    
    93   47   48 2    
    94   47   49 am   BACKBONE|DICT|INTERRES
    95   49   50 1    
    96   49  105 1    
    97   50   51 1    
    98   50   52 1    
    99   50  106 1    
   100   51  107 1    
   101   51  108 1    
   102   51  109 1    
   103   52   53 2    
   104   52   54 am   BACKBONE|DICT|INTERRES
   105   54   55 1    
   106   54  110 1    
   107   55   56 1    
   108   55   59 1    
   109   55  111 1    
   110   56   57 am   BACKBONE|DICT|INTERRES
   111   56   58 2    
   112   57  112 1    
   113   57  113 1    
   114   59   60 1    
   115   59  114 1    
   116   59  115 1    
   117   60   61 1    
   118   61  116 1    
   119   61  117 1    
@<TRIPOS>SUBSTRUCTURE
     1 UNK         1 GROUP             0       ****    0 ROOT    
