@<TRIPOS>MOLECULE
3R8
117   119    1
SMALL
USER_CHARGES


@<TRIPOS>ATOM
      1 CA         12.9644  -23.5633  -46.9175 C.3       0 UNK        -0.2013 
      2 C          14.2145  -24.3427  -47.2981 C.2       0 UNK         0.4866 
      3 O          14.6246  -24.3138  -48.4592 O.2       0 UNK        -0.5176 
      4 N          14.8177  -25.0465  -46.3326 N.am      1 UNK        -0.4884 
      5 CA         16.0549  -25.8133  -46.5083 C.3       1 UNK         0.0853 
      6 C6         16.3429  -26.7288  -45.2924 C.3       10 UNK        -0.0849 
      7 S7         15.1508  -28.0903  -45.1010 S.3       10 UNK        -0.2776 
      8 C8         15.1274  -28.2949  -43.2877 C.3       10 UNK         0.0316 
      9 C9         16.5224  -28.4314  -42.6833 C.ar      10 UNK        -0.0863 
     10 C10        17.2973  -29.5686  -42.9316 C.ar      10 UNK        -0.1009 
     11 C11        18.5647  -29.7073  -42.3556 C.ar      10 UNK        -0.0712 
     12 C12        19.0479  -28.7033  -41.5100 C.ar      10 UNK        -0.0894 
     13 C13        18.2941  -27.5485  -41.2728 C.ar      10 UNK        -0.0745 
     14 C14        17.0323  -27.4214  -41.8611 C.ar      10 UNK        -0.0972 
     15 C15        18.8216  -26.4460  -40.3610 C.3       10 UNK         0.0209 
     16 S16        20.4795  -25.8551  -40.8352 S.3       10 UNK        -0.2568 
     17 C17        20.1866  -25.0917  -42.4703 C.3       10 UNK        -0.0983 
     18 CA         20.4574  -26.0198  -43.6847 C.3       3 UNK         0.0876 
     19 N          20.1950  -25.3177  -44.9443 N.am      3 UNK        -0.4424 
     20 C          20.2122  -25.8751  -46.1619 C.2       2 UNK         0.4918 
     21 O          20.5104  -27.0498  -46.3853 O.2       2 UNK        -0.4875 
     22 CA         19.6627  -25.0110  -47.3081 C.3       2 UNK         0.0481 
     23 CB         20.4081  -25.2560  -48.6317 C.3       2 UNK        -0.1831 
     24 N          18.2592  -25.3875  -47.4594 N.am      2 UNK        -0.4498 
     25 C          17.2737  -24.8917  -46.7006 C.2       1 UNK         0.5027 
     26 O          17.3569  -23.8359  -46.0668 O.2       1 UNK        -0.4969 
     27 C          21.8638  -26.6601  -43.6547 C.2       3 UNK         0.5005 
     28 O          22.8469  -26.0086  -44.0169 O.2       3 UNK        -0.5279 
     29 N          21.9146  -27.9172  -43.1987 N.am      4 UNK        -0.4463 
     30 CA         23.1189  -28.7303  -43.0505 C.3       4 UNK         0.0283 
     31 CB         23.1740  -29.7715  -44.1841 C.3       4 UNK        -0.1875 
     32 C          23.1529  -29.3639  -41.6512 C.2       4 UNK         0.4949 
     33 O          23.4243  -30.5571  -41.5169 O.2       4 UNK        -0.5039 
     34 N          22.8826  -28.5554  -40.6161 N.am      5 UNK        -0.4663 
     35 CA         22.9261  -28.9605  -39.2021 C.3       5 UNK         0.0242 
     36 CB         22.3069  -27.8547  -38.3337 C.3       5 UNK        -0.1982 
     37 C          24.3339  -29.3275  -38.6935 C.2       5 UNK         0.5017 
     38 O          24.4510  -30.0253  -37.6869 O.2       5 UNK        -0.5012 
     39 N          25.3715  -28.8672  -39.4033 N.am      6 UNK        -0.4439 
     40 CA         26.7724  -29.2229  -39.1743 C.3       6 UNK         0.0297 
     41 CB         27.6555  -28.0473  -39.6282 C.3       6 UNK        -0.2006 
     42 C          27.1935  -30.5233  -39.8903 C.2       6 UNK         0.4892 
     43 O          28.3374  -30.9454  -39.7134 O.2       6 UNK        -0.5089 
     44 N          26.3047  -31.1183  -40.6993 N.am      7 UNK        -0.4243 
     45 CA         26.5811  -32.2901  -41.5250 C.3       7 UNK         0.0196 
     46 CB         26.9661  -31.8365  -42.9493 C.3       7 UNK        -0.2007 
     47 C          25.3836  -33.2476  -41.4659 C.2       7 UNK         0.5020 
     48 O          25.2242  -33.9388  -40.4598 O.2       7 UNK        -0.5147 
     49 N          24.5735  -33.2840  -42.5335 N.am      8 UNK        -0.4734 
     50 CA         23.4614  -34.2184  -42.7524 C.3       8 UNK         0.0238 
     51 CB         22.8077  -33.9131  -44.1101 C.3       8 UNK        -0.1912 
     52 C          22.3909  -34.2538  -41.6466 C.2       8 UNK         0.5038 
     53 O          21.8341  -35.3246  -41.3983 O.2       8 UNK        -0.5046 
     54 N          22.1354  -33.1068  -41.0076 N.am      9 UNK        -0.4200 
     55 CA         21.2260  -32.9685  -39.8579 C.3       9 UNK         0.0839 
     56 C          21.9864  -32.7462  -38.5189 C.2       9 UNK         0.5513 
     57 N          23.2939  -32.9631  -38.4476 N.am      9 UNK        -0.7519 
     58 O          21.3790  -32.3781  -37.5170 O.2       9 UNK        -0.4960 
     59 C59        20.1390  -31.8877  -40.1064 C.3       10 UNK        -0.0876 
     60 S60        19.0589  -32.3019  -41.5187 S.3       10 UNK        -0.2414 
     61 C61        19.4081  -30.9366  -42.6655 C.3       10 UNK         0.0169 
     62 H62        12.1167  -23.8988  -47.5143 H         1 UNK         0.0903 
     63 H63        12.7092  -23.6895  -45.8655 H         1 UNK         0.0903 
     64 H64        13.1140  -22.5003  -47.1048 H         1 UNK         0.0903 
     65 H65        14.4438  -25.0292  -45.3947 H         1 UNK         0.3096 
     66 H66        15.9443  -26.4326  -47.4016 H         1 UNK         0.1121 
     67 H67        17.3285  -27.1940  -45.3722 H         1 UNK         0.0849 
     68 H68        16.3666  -26.1332  -44.3776 H         1 UNK         0.0849 
     69 H69        14.5966  -27.4501  -42.8459 H         1 UNK         0.0865 
     70 H70        14.5417  -29.1813  -43.0400 H         1 UNK         0.0865 
     71 H71        16.9114  -30.3471  -43.5759 H         1 UNK         0.1346 
     72 H72        20.0134  -28.8097  -41.0370 H         1 UNK         0.1412 
     73 H73        16.4392  -26.5376  -41.6686 H         1 UNK         0.1426 
     74 H74        18.8667  -26.8303  -39.3413 H         1 UNK         0.0716 
     75 H75        18.1392  -25.5949  -40.3375 H         1 UNK         0.0716 
     76 H76        19.1593  -24.7249  -42.5044 H         1 UNK         0.0695 
     77 H77        20.8215  -24.2060  -42.5331 H         1 UNK         0.0695 
     78 H78        19.7251  -26.8288  -43.6472 H         1 UNK         0.0983 
     79 H79        19.9130  -24.3514  -44.8638 H         1 UNK         0.3095 
     80 H80        19.7550  -23.9533  -47.0513 H         1 UNK         0.0454 
     81 H81        20.3439  -26.2960  -48.9543 H         1 UNK         0.0851 
     82 H82        20.0059  -24.6341  -49.4314 H         1 UNK         0.0851 
     83 H83        21.4661  -25.0112  -48.5313 H         1 UNK         0.0851 
     84 H84        18.1011  -26.2692  -47.9277 H         1 UNK         0.2976 
     85 H85        21.0513  -28.3536  -42.9082 H         1 UNK         0.3116 
     86 H86        24.0091  -28.1023  -43.1232 H         1 UNK         0.0646 
     87 H87        22.3207  -30.4483  -44.1555 H         1 UNK         0.0847 
     88 H88        24.0763  -30.3787  -44.1193 H         1 UNK         0.0847 
     89 H89        23.1816  -29.2885  -45.1614 H         1 UNK         0.0847 
     90 H90        22.6544  -27.5881  -40.8043 H         1 UNK         0.3040 
     91 H91        22.3163  -29.8567  -39.0871 H         1 UNK         0.1015 
     92 H92        21.2549  -27.7061  -38.5754 H         1 UNK         0.0786 
     93 H93        22.8220  -26.9020  -38.4617 H         1 UNK         0.0786 
     94 H94        22.3557  -28.1133  -37.2748 H         1 UNK         0.0786 
     95 H95        25.1750  -28.2811  -40.2013 H         1 UNK         0.3172 
     96 H96        26.9349  -29.3738  -38.1049 H         1 UNK         0.0595 
     97 H97        27.3974  -27.1292  -39.1001 H         1 UNK         0.0839 
     98 H98        27.5607  -27.8589  -40.6983 H         1 UNK         0.0839 
     99 H99        28.7088  -28.2473  -39.4260 H         1 UNK         0.0839 
    100 H100       25.3579  -30.7590  -40.7535 H         1 UNK         0.2998 
    101 H101       27.4246  -32.8478  -41.1121 H         1 UNK         0.0822 
    102 H102       27.9041  -31.2811  -42.9370 H         1 UNK         0.0787 
    103 H103       27.1120  -32.6905  -43.6125 H         1 UNK         0.0787 
    104 H104       26.2114  -31.1878  -43.3934 H         1 UNK         0.0787 
    105 H105       24.7773  -32.6511  -43.2924 H         1 UNK         0.3055 
    106 H106       23.8951  -35.2196  -42.8010 H         1 UNK         0.1106 
    107 H107       22.3755  -32.9124  -44.1323 H         1 UNK         0.0828 
    108 H108       23.5259  -33.9899  -44.9265 H         1 UNK         0.0828 
    109 H109       22.0027  -34.6182  -44.3231 H         1 UNK         0.0828 
    110 H110       22.6658  -32.2763  -41.2581 H         1 UNK         0.2931 
    111 H111       20.6942  -33.9090  -39.7047 H         1 UNK         0.0412 
    112 H112       23.8196  -33.3059  -39.2448 H         1 UNK         0.3472 
    113 H113       23.7691  -32.7847  -37.5772 H         1 UNK         0.3472 
    114 H114       20.6037  -30.9152  -40.2592 H         1 UNK         0.0970 
    115 H115       19.4932  -31.7793  -39.2332 H         1 UNK         0.0970 
    116 H116       20.4711  -30.6971  -42.6395 H         1 UNK         0.0612 
    117 H117       19.2011  -31.2758  -43.6816 H         1 UNK         0.0612 
@<TRIPOS>BOND
     1    1    2 1    
     2    1   62 1    
     3    1   63 1    
     4    1   64 1    
     5    2    3 2    
     6    2    4 am   BACKBONE|DICT|INTERRES
     7    4    5 1    
     8    4   65 1    
     9    5    6 1    
    10    5   25 1    
    11    5   66 1    
    12    6    7 1    
    13    6   67 1    
    14    6   68 1    
    15    7    8 1    
    16    8    9 1    
    17    8   69 1    
    18    8   70 1    
    19    9   10 ar   
    20    9   14 ar   
    21   10   11 ar   
    22   10   71 1    
    23   11   12 ar   
    24   11   61 1    
    25   12   13 ar   
    26   12   72 1    
    27   13   14 ar   
    28   13   15 1    
    29   14   73 1    
    30   15   16 1    
    31   15   74 1    
    32   15   75 1    
    33   16   17 1    
    34   17   18 1    
    35   17   76 1    
    36   17   77 1    
    37   18   19 1    
    38   18   27 1    
    39   18   78 1    
    40   19   20 am   BACKBONE|DICT|INTERRES
    41   19   79 1    
    42   20   21 2    
    43   20   22 1    
    44   22   23 1    
    45   22   24 1    
    46   22   80 1    
    47   23   81 1    
    48   23   82 1    
    49   23   83 1    
    50   24   25 am   BACKBONE|DICT|INTERRES
    51   24   84 1    
    52   25   26 2    
    53   27   28 2    
    54   27   29 am   BACKBONE|DICT|INTERRES
    55   29   30 1    
    56   29   85 1    
    57   30   31 1    
    58   30   32 1    
    59   30   86 1    
    60   31   87 1    
    61   31   88 1    
    62   31   89 1    
    63   32   33 2    
    64   32   34 am   BACKBONE|DICT|INTERRES
    65   34   35 1    
    66   34   90 1    
    67   35   36 1    
    68   35   37 1    
    69   35   91 1    
    70   36   92 1    
    71   36   93 1    
    72   36   94 1    
    73   37   38 2    
    74   37   39 am   BACKBONE|DICT|INTERRES
    75   39   40 1    
    76   39   95 1    
    77   40   41 1    
    78   40   42 1    
    79   40   96 1    
    80   41   97 1    
    81   41   98 1    
    82   41   99 1    
    83   42   43 2    
    84   42   44 am   BACKBONE|DICT|INTERRES
    85   44   45 1    
    86   44  100 1    
    87   45   46 1    
    88   45   47 1    
    89   45  101 1    
    90   46  102 1    
    91   46  103 1    
    92   46  104 1    
    93   47   48 2    
    94   47   49 am   BACKBONE|DICT|INTERRES
    95   49   50 1    
    96   49  105 1    
    97   50   51 1    
    98   50   52 1    
    99   50  106 1    
   100   51  107 1    
   101   51  108 1    
   102   51  109 1    
   103   52   53 2    
   104   52   54 am   BACKBONE|DICT|INTERRES
   105   54   55 1    
   106   54  110 1    
   107   55   56 1    
   108   55   59 1    
   109   55  111 1    
   110   56   57 am   BACKBONE|DICT|INTERRES
   111   56   58 2    
   112   57  112 1    
   113   57  113 1    
   114   59   60 1    
   115   59  114 1    
   116   59  115 1    
   117   60   61 1    
   118   61  116 1    
   119   61  117 1    
@<TRIPOS>SUBSTRUCTURE
     1 UNK         1 GROUP             0       ****    0 ROOT    
