@<TRIPOS>MOLECULE
3R8
117   119    1
SMALL
USER_CHARGES


@<TRIPOS>ATOM
      1 CA         17.4965  -26.1256  -50.1856 C.3       0 UNK        -0.2013 
      2 C          17.8682  -26.6440  -48.8043 C.2       0 UNK         0.4866 
      3 O          18.7887  -27.4527  -48.6810 O.2       0 UNK        -0.5176 
      4 N          17.1532  -26.1936  -47.7662 N.am      1 UNK        -0.4884 
      5 CA         17.4052  -26.5463  -46.3654 C.3       1 UNK         0.0853 
      6 C6         16.1906  -26.2124  -45.4657 C.3       10 UNK        -0.0849 
      7 S7         14.6944  -27.1985  -45.8304 S.3       10 UNK        -0.2776 
      8 C8         15.2397  -28.9391  -45.6495 C.3       10 UNK         0.0316 
      9 C9         16.1769  -29.1848  -44.4694 C.ar      10 UNK        -0.0863 
     10 C10        17.3718  -29.8858  -44.6608 C.ar      10 UNK        -0.1009 
     11 C11        18.2593  -30.0832  -43.5990 C.ar      10 UNK        -0.0712 
     12 C12        17.9515  -29.5665  -42.3372 C.ar      10 UNK        -0.0894 
     13 C13        16.7585  -28.8669  -42.1322 C.ar      10 UNK        -0.0745 
     14 C14        15.8643  -28.7060  -43.1940 C.ar      10 UNK        -0.0972 
     15 C15        16.4281  -28.2578  -40.7789 C.3       10 UNK         0.0209 
     16 S16        16.5862  -26.4441  -40.8441 S.3       10 UNK        -0.2568 
     17 C17        18.1077  -26.1342  -39.8887 C.3       10 UNK        -0.0983 
     18 CA         19.4144  -26.6532  -40.5415 C.3       3 UNK         0.0876 
     19 N          19.5642  -26.2363  -41.9416 N.am      3 UNK        -0.4424 
     20 C          20.5858  -26.5718  -42.7430 C.2       2 UNK         0.4918 
     21 O          21.5211  -27.2953  -42.3962 O.2       2 UNK        -0.4875 
     22 CA         20.5295  -26.0289  -44.1771 C.3       2 UNK         0.0481 
     23 CB         21.7544  -26.4299  -45.0247 C.3       2 UNK        -0.1831 
     24 N          19.3026  -26.4915  -44.8228 N.am      2 UNK        -0.4498 
     25 C          18.6754  -25.8600  -45.8231 C.2       1 UNK         0.5027 
     26 O          19.0405  -24.7770  -46.2891 O.2       1 UNK        -0.4969 
     27 C          20.6279  -26.2167  -39.6966 C.2       3 UNK         0.5005 
     28 O          21.0079  -25.0443  -39.7519 O.2       3 UNK        -0.5279 
     29 N          21.2308  -27.1676  -38.9677 N.am      4 UNK        -0.4463 
     30 CA         22.4438  -27.0604  -38.1390 C.3       4 UNK         0.0283 
     31 CB         22.2663  -26.0369  -37.0002 C.3       4 UNK        -0.1875 
     32 C          23.7464  -26.7956  -38.9214 C.2       4 UNK         0.4949 
     33 O          24.7880  -27.3240  -38.5333 O.2       4 UNK        -0.5039 
     34 N          23.6748  -26.0055  -40.0009 N.am      5 UNK        -0.4663 
     35 CA         24.7740  -25.7009  -40.9195 C.3       5 UNK         0.0242 
     36 CB         24.3197  -24.6285  -41.9228 C.3       5 UNK        -0.1982 
     37 C          25.2965  -26.9497  -41.6469 C.2       5 UNK         0.5017 
     38 O          26.5109  -27.1425  -41.7188 O.2       5 UNK        -0.5012 
     39 N          24.3732  -27.7906  -42.1295 N.am      6 UNK        -0.4439 
     40 CA         24.6552  -29.1344  -42.6173 C.3       6 UNK         0.0297 
     41 CB         23.8289  -29.4018  -43.8868 C.3       6 UNK        -0.2006 
     42 C          24.3049  -30.1005  -41.4802 C.2       6 UNK         0.4892 
     43 O          23.1291  -30.4215  -41.2913 O.2       6 UNK        -0.5089 
     44 N          25.3252  -30.5065  -40.7122 N.am      7 UNK        -0.4243 
     45 CA         25.2122  -31.4183  -39.5702 C.3       7 UNK         0.0196 
     46 CB         26.5893  -31.5793  -38.9057 C.3       7 UNK        -0.2007 
     47 C          24.6413  -32.7785  -40.0016 C.2       7 UNK         0.5020 
     48 O          25.2687  -33.4690  -40.8075 O.2       7 UNK        -0.5147 
     49 N          23.4303  -33.0931  -39.5174 N.am      8 UNK        -0.4734 
     50 CA         22.5961  -34.2438  -39.9034 C.3       8 UNK         0.0238 
     51 CB         23.2184  -35.5594  -39.3881 C.3       8 UNK        -0.1912 
     52 C          22.2746  -34.2939  -41.4149 C.2       8 UNK         0.5038 
     53 O          22.0579  -35.3795  -41.9565 O.2       8 UNK        -0.5046 
     54 N          22.2754  -33.1214  -42.0655 N.am      9 UNK        -0.4200 
     55 CA         22.1763  -32.9233  -43.5189 C.3       9 UNK         0.0839 
     56 C          23.3961  -33.4621  -44.3275 C.2       9 UNK         0.5513 
     57 N          24.5407  -33.7323  -43.7093 N.am      9 UNK        -0.7519 
     58 O          23.3199  -33.6051  -45.5449 O.2       9 UNK        -0.4960 
     59 C59        20.8077  -33.3541  -44.1198 C.3       10 UNK        -0.0876 
     60 S60        19.3710  -32.5853  -43.2974 S.3       10 UNK        -0.2414 
     61 C61        19.5517  -30.8518  -43.8189 C.3       10 UNK         0.0169 
     62 H62        17.2224  -26.9554  -50.8366 H         1 UNK         0.0903 
     63 H63        16.6567  -25.4320  -50.1489 H         1 UNK         0.0903 
     64 H64        18.3448  -25.6076  -50.6321 H         1 UNK         0.0903 
     65 H65        16.4158  -25.5211  -47.9217 H         1 UNK         0.3096 
     66 H66        17.5925  -27.6198  -46.3319 H         1 UNK         0.1121 
     67 H67        16.4333  -26.3476  -44.4104 H         1 UNK         0.0849 
     68 H68        15.9290  -25.1571  -45.5646 H         1 UNK         0.0849 
     69 H69        14.3590  -29.5724  -45.5363 H         1 UNK         0.0865 
     70 H70        15.7127  -29.2454  -46.5840 H         1 UNK         0.0865 
     71 H71        17.6159  -30.2786  -45.6388 H         1 UNK         0.1346 
     72 H72        18.6418  -29.7174  -41.5194 H         1 UNK         0.1412 
     73 H73        14.9422  -28.1625  -43.0370 H         1 UNK         0.1426 
     74 H74        17.0611  -28.6720  -39.9929 H         1 UNK         0.0716 
     75 H75        15.4019  -28.5129  -40.5105 H         1 UNK         0.0716 
     76 H76        17.9799  -26.5700  -38.8958 H         1 UNK         0.0695 
     77 H77        18.1661  -25.0545  -39.7353 H         1 UNK         0.0695 
     78 H78        19.3829  -27.7428  -40.5444 H         1 UNK         0.0983 
     79 H79        18.8363  -25.6366  -42.3005 H         1 UNK         0.3095 
     80 H80        20.5095  -24.9401  -44.0953 H         1 UNK         0.0454 
     81 H81        21.7936  -27.5076  -45.1842 H         1 UNK         0.0851 
     82 H82        22.6860  -26.1358  -44.5404 H         1 UNK         0.0851 
     83 H83        21.7353  -25.9494  -46.0027 H         1 UNK         0.0851 
     84 H84        18.9205  -27.3573  -44.4640 H         1 UNK         0.2976 
     85 H85        20.8589  -28.1056  -39.0323 H         1 UNK         0.3116 
     86 H86        22.5622  -28.0414  -37.6756 H         1 UNK         0.0646 
     87 H87        22.1734  -25.0174  -37.3753 H         1 UNK         0.0847 
     88 H88        23.1247  -26.0539  -36.3274 H         1 UNK         0.0847 
     89 H89        21.3822  -26.2569  -36.4021 H         1 UNK         0.0847 
     90 H90        22.7723  -25.5806  -40.1965 H         1 UNK         0.3040 
     91 H91        25.5982  -25.2944  -40.3293 H         1 UNK         0.1015 
     92 H92        23.4563  -24.9562  -42.5022 H         1 UNK         0.0786 
     93 H93        25.1169  -24.3894  -42.6280 H         1 UNK         0.0786 
     94 H94        24.0482  -23.7027  -41.4152 H         1 UNK         0.0786 
     95 H95        23.3874  -27.5632  -42.0157 H         1 UNK         0.3172 
     96 H96        25.7106  -29.2460  -42.8749 H         1 UNK         0.0595 
     97 H97        24.0547  -30.3875  -44.2934 H         1 UNK         0.0839 
     98 H98        24.0574  -28.6734  -44.6646 H         1 UNK         0.0839 
     99 H99        22.7561  -29.3589  -43.6954 H         1 UNK         0.0839 
    100 H100       26.2543  -30.1794  -40.9353 H         1 UNK         0.2998 
    101 H101       24.5369  -30.9583  -38.8456 H         1 UNK         0.0822 
    102 H102       26.5306  -32.2478  -38.0457 H         1 UNK         0.0787 
    103 H103       27.3245  -31.9982  -39.5943 H         1 UNK         0.0787 
    104 H104       26.9708  -30.6231  -38.5468 H         1 UNK         0.0787 
    105 H105       22.9893  -32.4345  -38.8891 H         1 UNK         0.3055 
    106 H106       21.6358  -34.1131  -39.4017 H         1 UNK         0.1106 
    107 H107       22.5430  -36.4013  -39.5451 H         1 UNK         0.0828 
    108 H108       24.1522  -35.7930  -39.9004 H         1 UNK         0.0828 
    109 H109       23.4255  -35.5091  -38.3192 H         1 UNK         0.0828 
    110 H110       22.4840  -32.2771  -41.5413 H         1 UNK         0.2931 
    111 H111       22.2421  -31.8444  -43.6466 H         1 UNK         0.0412 
    112 H112       24.6388  -33.6245  -42.7050 H         1 UNK         0.3472 
    113 H113       25.3204  -34.0693  -44.2510 H         1 UNK         0.3472 
    114 H114       20.7578  -33.1049  -45.1813 H         1 UNK         0.0970 
    115 H115       20.6940  -34.4376  -44.0650 H         1 UNK         0.0970 
    116 H116       20.3609  -30.3845  -43.2549 H         1 UNK         0.0612 
    117 H117       19.8404  -30.8106  -44.8703 H         1 UNK         0.0612 
@<TRIPOS>BOND
     1    1    2 1    
     2    1   62 1    
     3    1   63 1    
     4    1   64 1    
     5    2    3 2    
     6    2    4 am   BACKBONE|DICT|INTERRES
     7    4    5 1    
     8    4   65 1    
     9    5    6 1    
    10    5   25 1    
    11    5   66 1    
    12    6    7 1    
    13    6   67 1    
    14    6   68 1    
    15    7    8 1    
    16    8    9 1    
    17    8   69 1    
    18    8   70 1    
    19    9   10 ar   
    20    9   14 ar   
    21   10   11 ar   
    22   10   71 1    
    23   11   12 ar   
    24   11   61 1    
    25   12   13 ar   
    26   12   72 1    
    27   13   14 ar   
    28   13   15 1    
    29   14   73 1    
    30   15   16 1    
    31   15   74 1    
    32   15   75 1    
    33   16   17 1    
    34   17   18 1    
    35   17   76 1    
    36   17   77 1    
    37   18   19 1    
    38   18   27 1    
    39   18   78 1    
    40   19   20 am   BACKBONE|DICT|INTERRES
    41   19   79 1    
    42   20   21 2    
    43   20   22 1    
    44   22   23 1    
    45   22   24 1    
    46   22   80 1    
    47   23   81 1    
    48   23   82 1    
    49   23   83 1    
    50   24   25 am   BACKBONE|DICT|INTERRES
    51   24   84 1    
    52   25   26 2    
    53   27   28 2    
    54   27   29 am   BACKBONE|DICT|INTERRES
    55   29   30 1    
    56   29   85 1    
    57   30   31 1    
    58   30   32 1    
    59   30   86 1    
    60   31   87 1    
    61   31   88 1    
    62   31   89 1    
    63   32   33 2    
    64   32   34 am   BACKBONE|DICT|INTERRES
    65   34   35 1    
    66   34   90 1    
    67   35   36 1    
    68   35   37 1    
    69   35   91 1    
    70   36   92 1    
    71   36   93 1    
    72   36   94 1    
    73   37   38 2    
    74   37   39 am   BACKBONE|DICT|INTERRES
    75   39   40 1    
    76   39   95 1    
    77   40   41 1    
    78   40   42 1    
    79   40   96 1    
    80   41   97 1    
    81   41   98 1    
    82   41   99 1    
    83   42   43 2    
    84   42   44 am   BACKBONE|DICT|INTERRES
    85   44   45 1    
    86   44  100 1    
    87   45   46 1    
    88   45   47 1    
    89   45  101 1    
    90   46  102 1    
    91   46  103 1    
    92   46  104 1    
    93   47   48 2    
    94   47   49 am   BACKBONE|DICT|INTERRES
    95   49   50 1    
    96   49  105 1    
    97   50   51 1    
    98   50   52 1    
    99   50  106 1    
   100   51  107 1    
   101   51  108 1    
   102   51  109 1    
   103   52   53 2    
   104   52   54 am   BACKBONE|DICT|INTERRES
   105   54   55 1    
   106   54  110 1    
   107   55   56 1    
   108   55   59 1    
   109   55  111 1    
   110   56   57 am   BACKBONE|DICT|INTERRES
   111   56   58 2    
   112   57  112 1    
   113   57  113 1    
   114   59   60 1    
   115   59  114 1    
   116   59  115 1    
   117   60   61 1    
   118   61  116 1    
   119   61  117 1    
@<TRIPOS>SUBSTRUCTURE
     1 UNK         1 GROUP             0       ****    0 ROOT    
