@<TRIPOS>MOLECULE
3R8
117   119    1
SMALL
USER_CHARGES


@<TRIPOS>ATOM
      1 CA         17.8713  -22.6418  -40.9428 C.3       0 UNK        -0.2013 
      2 C          17.9556  -23.1023  -42.3904 C.2       0 UNK         0.4866 
      3 O          18.0268  -22.2701  -43.2956 O.2       0 UNK        -0.5176 
      4 N          17.9365  -24.4221  -42.6139 N.am      1 UNK        -0.4884 
      5 CA         18.0533  -25.0634  -43.9299 C.3       1 UNK         0.0853 
      6 C6         17.7007  -26.5749  -43.8868 C.3       10 UNK        -0.0849 
      7 S7         16.1730  -26.9470  -42.9504 S.3       10 UNK        -0.2776 
      8 C8         15.5726  -28.4677  -43.7539 C.3       10 UNK         0.0316 
      9 C9         16.6261  -29.5661  -43.7601 C.ar      10 UNK        -0.0863 
     10 C10        16.8924  -30.3098  -42.6060 C.ar      10 UNK        -0.1009 
     11 C11        17.8709  -31.3094  -42.6199 C.ar      10 UNK        -0.0712 
     12 C12        18.5959  -31.5510  -43.7919 C.ar      10 UNK        -0.0894 
     13 C13        18.3325  -30.8175  -44.9523 C.ar      10 UNK        -0.0745 
     14 C14        17.3362  -29.8380  -44.9314 C.ar      10 UNK        -0.0972 
     15 C15        19.0959  -31.1019  -46.2387 C.3       10 UNK         0.0209 
     16 S16        19.8347  -29.5986  -46.9544 S.3       10 UNK        -0.2568 
     17 C17        21.2820  -29.3636  -45.8746 C.3       10 UNK        -0.0983 
     18 CA         22.1306  -28.1564  -46.3371 C.3       3 UNK         0.0876 
     19 N          21.3975  -26.8919  -46.2242 N.am      3 UNK        -0.4424 
     20 C          21.7769  -25.7160  -46.7396 C.2       2 UNK         0.4918 
     21 O          22.8402  -25.5483  -47.3374 O.2       2 UNK        -0.4875 
     22 CA         20.8108  -24.5214  -46.5875 C.3       2 UNK         0.0481 
     23 CB         20.4311  -23.9580  -47.9681 C.3       2 UNK        -0.1831 
     24 N          19.5743  -24.8082  -45.8458 N.am      2 UNK        -0.4498 
     25 C          19.4702  -24.8623  -44.5107 C.2       1 UNK         0.5027 
     26 O          20.4361  -24.7940  -43.7462 O.2       1 UNK        -0.4969 
     27 C          23.5707  -28.2053  -45.7549 C.2       3 UNK         0.5005 
     28 O          24.3918  -28.8883  -46.3661 O.2       3 UNK        -0.5279 
     29 N          23.9650  -27.5352  -44.6583 N.am      4 UNK        -0.4463 
     30 CA         23.2076  -26.7812  -43.6593 C.3       4 UNK         0.0283 
     31 CB         24.1978  -25.9244  -42.8529 C.3       4 UNK        -0.1875 
     32 C          22.4218  -27.6898  -42.7052 C.2       4 UNK         0.4949 
     33 O          22.7944  -28.8495  -42.5088 O.2       4 UNK        -0.5039 
     34 N          21.3923  -27.1122  -42.0710 N.am      5 UNK        -0.4663 
     35 CA         20.6780  -27.7022  -40.9334 C.3       5 UNK         0.0242 
     36 CB         19.5562  -26.7572  -40.4754 C.3       5 UNK        -0.1982 
     37 C          21.6171  -28.0038  -39.7517 C.2       5 UNK         0.5017 
     38 O          22.6047  -27.2915  -39.5537 O.2       5 UNK        -0.5012 
     39 N          21.2993  -29.0691  -39.0061 N.am      6 UNK        -0.4439 
     40 CA         22.0656  -29.6870  -37.9143 C.3       6 UNK         0.0297 
     41 CB         22.3530  -28.6995  -36.7662 C.3       6 UNK        -0.2006 
     42 C          23.3496  -30.3931  -38.3876 C.2       6 UNK         0.4892 
     43 O          23.6029  -31.5165  -37.9543 O.2       6 UNK        -0.5089 
     44 N          24.1156  -29.7480  -39.2776 N.am      7 UNK        -0.4243 
     45 CA         25.3384  -30.2706  -39.8880 C.3       7 UNK         0.0196 
     46 CB         26.0458  -29.1495  -40.6670 C.3       7 UNK        -0.2007 
     47 C          25.0689  -31.4837  -40.7912 C.2       7 UNK         0.5020 
     48 O          25.6879  -32.5307  -40.6003 O.2       7 UNK        -0.5147 
     49 N          24.1355  -31.3345  -41.7414 N.am      8 UNK        -0.4734 
     50 CA         23.7207  -32.4099  -42.6491 C.3       8 UNK         0.0238 
     51 CB         23.0737  -31.7913  -43.8965 C.3       8 UNK        -0.1912 
     52 C          22.7500  -33.4091  -41.9980 C.2       8 UNK         0.5038 
     53 O          22.6044  -34.5216  -42.5057 O.2       8 UNK        -0.5046 
     54 N          22.0876  -32.9886  -40.9140 N.am      9 UNK        -0.4200 
     55 CA         21.0486  -33.7542  -40.2086 C.3       9 UNK         0.0839 
     56 C          21.5889  -34.8936  -39.2979 C.2       9 UNK         0.5513 
     57 N          22.8877  -34.9799  -39.0371 N.am      9 UNK        -0.7519 
     58 O          20.8120  -35.7190  -38.8249 O.2       9 UNK        -0.4960 
     59 C59        20.0666  -32.8345  -39.4310 C.3       10 UNK        -0.0876 
     60 S60        19.4885  -31.4001  -40.4026 S.3       10 UNK        -0.2414 
     61 C61        18.1469  -32.1374  -41.3756 C.3       10 UNK         0.0169 
     62 H62        16.9917  -22.0148  -40.7988 H         1 UNK         0.0903 
     63 H63        17.8067  -23.4812  -40.2505 H         1 UNK         0.0903 
     64 H64        18.7535  -22.0568  -40.6841 H         1 UNK         0.0903 
     65 H65        17.8492  -25.0567  -41.8345 H         1 UNK         0.3096 
     66 H66        17.3410  -24.5650  -44.5915 H         1 UNK         0.1121 
     67 H67        18.5109  -27.1618  -43.4493 H         1 UNK         0.0849 
     68 H68        17.5834  -26.9463  -44.9061 H         1 UNK         0.0849 
     69 H69        14.6829  -28.8189  -43.2293 H         1 UNK         0.0865 
     70 H70        15.2516  -28.2331  -44.7701 H         1 UNK         0.0865 
     71 H71        16.3413  -30.1073  -41.6977 H         1 UNK         0.1346 
     72 H72        19.3588  -32.3177  -43.7990 H         1 UNK         0.1412 
     73 H73        17.1250  -29.2757  -45.8309 H         1 UNK         0.1426 
     74 H74        18.4037  -31.5300  -46.9648 H         1 UNK         0.0716 
     75 H75        19.8763  -31.8478  -46.0795 H         1 UNK         0.0716 
     76 H76        21.8664  -30.2834  -45.9206 H         1 UNK         0.0695 
     77 H77        20.9543  -29.2460  -44.8403 H         1 UNK         0.0695 
     78 H78        22.2830  -28.2860  -47.4115 H         1 UNK         0.0983 
     79 H79        20.4983  -26.9428  -45.7725 H         1 UNK         0.3095 
     80 H80        21.3569  -23.7434  -46.0499 H         1 UNK         0.0454 
     81 H81        21.3179  -23.6678  -48.5333 H         1 UNK         0.0851 
     82 H82        19.8074  -23.0685  -47.8771 H         1 UNK         0.0851 
     83 H83        19.8891  -24.6901  -48.5680 H         1 UNK         0.0851 
     84 H84        18.7367  -24.9014  -46.4035 H         1 UNK         0.2976 
     85 H85        24.9324  -27.6674  -44.4062 H         1 UNK         0.3116 
     86 H86        22.5275  -26.0919  -44.1427 H         1 UNK         0.0646 
     87 H87        23.6772  -25.3177  -42.1103 H         1 UNK         0.0847 
     88 H88        24.9242  -26.5355  -42.3165 H         1 UNK         0.0847 
     89 H89        24.7466  -25.2380  -43.4981 H         1 UNK         0.0847 
     90 H90        21.1569  -26.1558  -42.3132 H         1 UNK         0.3040 
     91 H91        20.2343  -28.6388  -41.2772 H         1 UNK         0.1015 
     92 H92        19.0812  -27.1210  -39.5629 H         1 UNK         0.0786 
     93 H93        18.7725  -26.6852  -41.2240 H         1 UNK         0.0786 
     94 H94        19.9303  -25.7532  -40.2707 H         1 UNK         0.0786 
     95 H95        20.4794  -29.5951  -39.2852 H         1 UNK         0.3172 
     96 H96        21.4139  -30.4619  -37.5087 H         1 UNK         0.0595 
     97 H97        23.0476  -27.9126  -37.0609 H         1 UNK         0.0839 
     98 H98        22.7988  -29.2170  -35.9158 H         1 UNK         0.0839 
     99 H99        21.4378  -28.2245  -36.4128 H         1 UNK         0.0839 
    100 H100       23.8124  -28.8214  -39.5634 H         1 UNK         0.2998 
    101 H101       25.9998  -30.5954  -39.0819 H         1 UNK         0.0822 
    102 H102       26.3000  -28.3131  -40.0157 H         1 UNK         0.0787 
    103 H103       26.9751  -29.5096  -41.1105 H         1 UNK         0.0787 
    104 H104       25.4250  -28.7662  -41.4771 H         1 UNK         0.0787 
    105 H105       23.6823  -30.4307  -41.8661 H         1 UNK         0.3055 
    106 H106       24.6057  -32.9683  -42.9632 H         1 UNK         0.1106 
    107 H107       23.7504  -31.0923  -44.3883 H         1 UNK         0.0828 
    108 H108       22.8125  -32.5592  -44.6258 H         1 UNK         0.0828 
    109 H109       22.1577  -31.2546  -43.6455 H         1 UNK         0.0828 
    110 H110       22.2811  -32.0632  -40.5645 H         1 UNK         0.2931 
    111 H111       20.4595  -34.2573  -40.9777 H         1 UNK         0.0412 
    112 H112       23.2270  -35.7238  -38.4477 H         1 UNK         0.3472 
    113 H113       23.5283  -34.2933  -39.4053 H         1 UNK         0.3472 
    114 H114       19.1990  -33.4025  -39.0894 H         1 UNK         0.0970 
    115 H115       20.5469  -32.4535  -38.5287 H         1 UNK         0.0970 
    116 H116       18.4136  -33.1544  -41.6663 H         1 UNK         0.0612 
    117 H117       17.2515  -32.2160  -40.7573 H         1 UNK         0.0612 
@<TRIPOS>BOND
     1    1    2 1    
     2    1   62 1    
     3    1   63 1    
     4    1   64 1    
     5    2    3 2    
     6    2    4 am   BACKBONE|DICT|INTERRES
     7    4    5 1    
     8    4   65 1    
     9    5    6 1    
    10    5   25 1    
    11    5   66 1    
    12    6    7 1    
    13    6   67 1    
    14    6   68 1    
    15    7    8 1    
    16    8    9 1    
    17    8   69 1    
    18    8   70 1    
    19    9   10 ar   
    20    9   14 ar   
    21   10   11 ar   
    22   10   71 1    
    23   11   12 ar   
    24   11   61 1    
    25   12   13 ar   
    26   12   72 1    
    27   13   14 ar   
    28   13   15 1    
    29   14   73 1    
    30   15   16 1    
    31   15   74 1    
    32   15   75 1    
    33   16   17 1    
    34   17   18 1    
    35   17   76 1    
    36   17   77 1    
    37   18   19 1    
    38   18   27 1    
    39   18   78 1    
    40   19   20 am   BACKBONE|DICT|INTERRES
    41   19   79 1    
    42   20   21 2    
    43   20   22 1    
    44   22   23 1    
    45   22   24 1    
    46   22   80 1    
    47   23   81 1    
    48   23   82 1    
    49   23   83 1    
    50   24   25 am   BACKBONE|DICT|INTERRES
    51   24   84 1    
    52   25   26 2    
    53   27   28 2    
    54   27   29 am   BACKBONE|DICT|INTERRES
    55   29   30 1    
    56   29   85 1    
    57   30   31 1    
    58   30   32 1    
    59   30   86 1    
    60   31   87 1    
    61   31   88 1    
    62   31   89 1    
    63   32   33 2    
    64   32   34 am   BACKBONE|DICT|INTERRES
    65   34   35 1    
    66   34   90 1    
    67   35   36 1    
    68   35   37 1    
    69   35   91 1    
    70   36   92 1    
    71   36   93 1    
    72   36   94 1    
    73   37   38 2    
    74   37   39 am   BACKBONE|DICT|INTERRES
    75   39   40 1    
    76   39   95 1    
    77   40   41 1    
    78   40   42 1    
    79   40   96 1    
    80   41   97 1    
    81   41   98 1    
    82   41   99 1    
    83   42   43 2    
    84   42   44 am   BACKBONE|DICT|INTERRES
    85   44   45 1    
    86   44  100 1    
    87   45   46 1    
    88   45   47 1    
    89   45  101 1    
    90   46  102 1    
    91   46  103 1    
    92   46  104 1    
    93   47   48 2    
    94   47   49 am   BACKBONE|DICT|INTERRES
    95   49   50 1    
    96   49  105 1    
    97   50   51 1    
    98   50   52 1    
    99   50  106 1    
   100   51  107 1    
   101   51  108 1    
   102   51  109 1    
   103   52   53 2    
   104   52   54 am   BACKBONE|DICT|INTERRES
   105   54   55 1    
   106   54  110 1    
   107   55   56 1    
   108   55   59 1    
   109   55  111 1    
   110   56   57 am   BACKBONE|DICT|INTERRES
   111   56   58 2    
   112   57  112 1    
   113   57  113 1    
   114   59   60 1    
   115   59  114 1    
   116   59  115 1    
   117   60   61 1    
   118   61  116 1    
   119   61  117 1    
@<TRIPOS>SUBSTRUCTURE
     1 UNK         1 GROUP             0       ****    0 ROOT    
