@<TRIPOS>MOLECULE
3R8
117   119    1
SMALL
USER_CHARGES


@<TRIPOS>ATOM
      1 CA         14.8106  -24.1354  -43.2135 C.3       0 UNK        -0.2013 
      2 C          15.8804  -25.2074  -43.0700 C.2       0 UNK         0.4866 
      3 O          15.5596  -26.3956  -43.0729 O.2       0 UNK        -0.5176 
      4 N          17.1481  -24.7972  -42.9469 N.am      1 UNK        -0.4884 
      5 CA         18.3046  -25.6862  -42.7949 C.3       1 UNK         0.0853 
      6 C6         18.6037  -25.9957  -41.3040 C.3       10 UNK        -0.0849 
      7 S7         19.4383  -27.5962  -41.0436 S.3       10 UNK        -0.2776 
      8 C8         18.1001  -28.7902  -41.3708 C.3       10 UNK         0.0316 
      9 C9         18.3984  -29.6137  -42.6158 C.ar      10 UNK        -0.0863 
     10 C10        19.3447  -30.6408  -42.5532 C.ar      10 UNK        -0.1009 
     11 C11        19.6359  -31.4113  -43.6819 C.ar      10 UNK        -0.0712 
     12 C12        18.9771  -31.1423  -44.8835 C.ar      10 UNK        -0.0894 
     13 C13        18.0475  -30.1003  -44.9690 C.ar      10 UNK        -0.0745 
     14 C14        17.7449  -29.3536  -43.8260 C.ar      10 UNK        -0.0972 
     15 C15        17.3910  -29.7729  -46.3055 C.3       10 UNK         0.0209 
     16 S16        18.0908  -28.2773  -47.0915 S.3       10 UNK        -0.2568 
     17 C17        19.8662  -28.7011  -47.2464 C.3       10 UNK        -0.0983 
     18 CA         20.8508  -27.4936  -47.2731 C.3       3 UNK         0.0876 
     19 N          20.3554  -26.3252  -46.5363 N.am      3 UNK        -0.4424 
     20 C          20.9230  -25.1103  -46.5060 C.2       2 UNK         0.4918 
     21 O          21.9698  -24.8274  -47.0888 O.2       2 UNK        -0.4875 
     22 CA         20.1932  -24.0126  -45.7078 C.3       2 UNK         0.0481 
     23 CB         19.4971  -23.0304  -46.6639 C.3       2 UNK        -0.1831 
     24 N          19.2047  -24.5380  -44.7609 N.am      2 UNK        -0.4498 
     25 C          19.5020  -25.1518  -43.6055 C.2       1 UNK         0.5027 
     26 O          20.6541  -25.2989  -43.1993 O.2       1 UNK        -0.4969 
     27 C          22.2362  -27.9494  -46.7665 C.2       3 UNK         0.5005 
     28 O          23.1046  -28.2967  -47.5686 O.2       3 UNK        -0.5279 
     29 N          22.3946  -27.9479  -45.4374 N.am      4 UNK        -0.4463 
     30 CA         23.5822  -28.3640  -44.7065 C.3       4 UNK         0.0283 
     31 CB         23.6420  -29.9020  -44.6115 C.3       4 UNK        -0.1875 
     32 C          23.4963  -27.7039  -43.3294 C.2       4 UNK         0.4949 
     33 O          22.8603  -28.2546  -42.4307 O.2       4 UNK        -0.5039 
     34 N          24.1159  -26.5234  -43.1962 N.am      5 UNK        -0.4663 
     35 CA         24.0458  -25.6427  -42.0192 C.3       5 UNK         0.0242 
     36 CB         24.8098  -24.3435  -42.3234 C.3       5 UNK        -0.1982 
     37 C          24.5337  -26.2591  -40.6928 C.2       5 UNK         0.5017 
     38 O          24.1931  -25.7414  -39.6287 O.2       5 UNK        -0.5012 
     39 N          25.2969  -27.3577  -40.7733 N.am      6 UNK        -0.4439 
     40 CA         25.6964  -28.1966  -39.6410 C.3       6 UNK         0.0297 
     41 CB         26.7932  -29.1693  -40.1059 C.3       6 UNK        -0.2006 
     42 C          24.5289  -28.9768  -39.0001 C.2       6 UNK         0.4892 
     43 O          24.6896  -29.4513  -37.8751 O.2       6 UNK        -0.5089 
     44 N          23.3989  -29.1092  -39.7171 N.am      7 UNK        -0.4243 
     45 CA         22.1757  -29.8242  -39.3318 C.3       7 UNK         0.0196 
     46 CB         21.4823  -29.1366  -38.1371 C.3       7 UNK        -0.2007 
     47 C          22.4070  -31.3315  -39.1131 C.2       7 UNK         0.5020 
     48 O          21.8274  -31.9255  -38.2022 O.2       7 UNK        -0.5147 
     49 N          23.2432  -31.9316  -39.9739 N.am      8 UNK        -0.4734 
     50 CA         23.6739  -33.3364  -39.9179 C.3       8 UNK         0.0238 
     51 CB         24.7346  -33.5736  -41.0056 C.3       8 UNK        -0.1912 
     52 C          22.5382  -34.3709  -40.0415 C.2       8 UNK         0.5038 
     53 O          22.7126  -35.5120  -39.6123 O.2       8 UNK        -0.5046 
     54 N          21.4042  -33.9505  -40.6125 N.am      9 UNK        -0.4200 
     55 CA         20.1565  -34.7198  -40.7047 C.3       9 UNK         0.0839 
     56 C          19.3951  -34.8550  -39.3525 C.2       9 UNK         0.5513 
     57 N          19.7397  -34.1106  -38.3069 N.am      9 UNK        -0.7519 
     58 O          18.4721  -35.6589  -39.2512 O.2       9 UNK        -0.4960 
     59 C59        19.2217  -34.1542  -41.8063 C.3       10 UNK        -0.0876 
     60 S60        19.9729  -34.1728  -43.4721 S.3       10 UNK        -0.2414 
     61 C61        20.6924  -32.5044  -43.6192 C.3       10 UNK         0.0169 
     62 H62        15.2327  -23.1307  -43.1951 H         1 UNK         0.0903 
     63 H63        14.2770  -24.2621  -44.1551 H         1 UNK         0.0903 
     64 H64        14.0897  -24.2150  -42.4002 H         1 UNK         0.0903 
     65 H65        17.3575  -23.8071  -42.9417 H         1 UNK         0.3096 
     66 H66        18.0639  -26.6264  -43.2893 H         1 UNK         0.1121 
     67 H67        17.6776  -26.0183  -40.7272 H         1 UNK         0.0849 
     68 H68        19.2055  -25.2038  -40.8545 H         1 UNK         0.0849 
     69 H69        17.1408  -28.2790  -41.4677 H         1 UNK         0.0865 
     70 H70        18.0022  -29.4543  -40.5107 H         1 UNK         0.0865 
     71 H71        19.8593  -30.8324  -41.6226 H         1 UNK         0.1346 
     72 H72        19.2129  -31.7278  -45.7618 H         1 UNK         0.1412 
     73 H73        17.0107  -28.5620  -43.8883 H         1 UNK         0.1426 
     74 H74        16.3208  -29.6236  -46.1551 H         1 UNK         0.0716 
     75 H75        17.4862  -30.6125  -46.9958 H         1 UNK         0.0716 
     76 H76        19.9958  -29.3008  -48.1488 H         1 UNK         0.0695 
     77 H77        20.1203  -29.3663  -46.4237 H         1 UNK         0.0695 
     78 H78        20.9701  -27.1782  -48.3119 H         1 UNK         0.0983 
     79 H79        19.4703  -26.4556  -46.0694 H         1 UNK         0.3095 
     80 H80        20.9489  -23.4603  -45.1451 H         1 UNK         0.0454 
     81 H81        18.7238  -23.5210  -47.2565 H         1 UNK         0.0851 
     82 H82        20.2118  -22.5919  -47.3617 H         1 UNK         0.0851 
     83 H83        19.0336  -22.2070  -46.1203 H         1 UNK         0.0851 
     84 H84        18.2326  -24.4584  -45.0254 H         1 UNK         0.2976 
     85 H85        21.6332  -27.6147  -44.8596 H         1 UNK         0.3116 
     86 H86        24.4757  -28.0037  -45.2207 H         1 UNK         0.0646 
     87 H87        23.7482  -30.3580  -45.5957 H         1 UNK         0.0847 
     88 H88        22.7429  -30.3120  -44.1501 H         1 UNK         0.0847 
     89 H89        24.4940  -30.2234  -44.0114 H         1 UNK         0.0847 
     90 H90        24.6065  -26.1513  -43.9973 H         1 UNK         0.3040 
     91 H91        22.9930  -25.3923  -41.8704 H         1 UNK         0.1015 
     92 H92        24.7535  -23.6497  -41.4833 H         1 UNK         0.0786 
     93 H93        24.3914  -23.8308  -43.1899 H         1 UNK         0.0786 
     94 H94        25.8658  -24.5332  -42.5196 H         1 UNK         0.0786 
     95 H95        25.5302  -27.6938  -41.6961 H         1 UNK         0.3172 
     96 H96        26.1173  -27.5469  -38.8708 H         1 UNK         0.0595 
     97 H97        27.6610  -28.6353  -40.4937 H         1 UNK         0.0839 
     98 H98        27.1417  -29.7890  -39.2783 H         1 UNK         0.0839 
     99 H99        26.4345  -29.8422  -40.8859 H         1 UNK         0.0839 
    100 H100       23.3634  -28.6860  -40.6424 H         1 UNK         0.2998 
    101 H101       21.5045  -29.7427  -40.1874 H         1 UNK         0.0822 
    102 H102       21.3202  -28.0764  -38.3326 H         1 UNK         0.0787 
    103 H103       20.5053  -29.5816  -37.9448 H         1 UNK         0.0787 
    104 H104       22.0669  -29.2252  -37.2210 H         1 UNK         0.0787 
    105 H105       23.6703  -31.3584  -40.6873 H         1 UNK         0.3055 
    106 H106       24.1387  -33.4955  -38.9424 H         1 UNK         0.1106 
    107 H107       24.3337  -33.4009  -42.0053 H         1 UNK         0.0828 
    108 H108       25.1024  -34.6004  -40.9759 H         1 UNK         0.0828 
    109 H109       25.5971  -32.9207  -40.8702 H         1 UNK         0.0828 
    110 H110       21.3608  -32.9921  -40.9175 H         1 UNK         0.2931 
    111 H111       20.4268  -35.7362  -40.9982 H         1 UNK         0.0412 
    112 H112       19.2346  -34.2185  -37.4416 H         1 UNK         0.3472 
    113 H113       20.4963  -33.4372  -38.3640 H         1 UNK         0.3472 
    114 H114       18.3124  -34.7552  -41.8677 H         1 UNK         0.0970 
    115 H115       18.8873  -33.1486  -41.5523 H         1 UNK         0.0970 
    116 H116       21.3868  -32.3214  -42.7995 H         1 UNK         0.0612 
    117 H117       21.2944  -32.4710  -44.5285 H         1 UNK         0.0612 
@<TRIPOS>BOND
     1    1    2 1    
     2    1   62 1    
     3    1   63 1    
     4    1   64 1    
     5    2    3 2    
     6    2    4 am   BACKBONE|DICT|INTERRES
     7    4    5 1    
     8    4   65 1    
     9    5    6 1    
    10    5   25 1    
    11    5   66 1    
    12    6    7 1    
    13    6   67 1    
    14    6   68 1    
    15    7    8 1    
    16    8    9 1    
    17    8   69 1    
    18    8   70 1    
    19    9   10 ar   
    20    9   14 ar   
    21   10   11 ar   
    22   10   71 1    
    23   11   12 ar   
    24   11   61 1    
    25   12   13 ar   
    26   12   72 1    
    27   13   14 ar   
    28   13   15 1    
    29   14   73 1    
    30   15   16 1    
    31   15   74 1    
    32   15   75 1    
    33   16   17 1    
    34   17   18 1    
    35   17   76 1    
    36   17   77 1    
    37   18   19 1    
    38   18   27 1    
    39   18   78 1    
    40   19   20 am   BACKBONE|DICT|INTERRES
    41   19   79 1    
    42   20   21 2    
    43   20   22 1    
    44   22   23 1    
    45   22   24 1    
    46   22   80 1    
    47   23   81 1    
    48   23   82 1    
    49   23   83 1    
    50   24   25 am   BACKBONE|DICT|INTERRES
    51   24   84 1    
    52   25   26 2    
    53   27   28 2    
    54   27   29 am   BACKBONE|DICT|INTERRES
    55   29   30 1    
    56   29   85 1    
    57   30   31 1    
    58   30   32 1    
    59   30   86 1    
    60   31   87 1    
    61   31   88 1    
    62   31   89 1    
    63   32   33 2    
    64   32   34 am   BACKBONE|DICT|INTERRES
    65   34   35 1    
    66   34   90 1    
    67   35   36 1    
    68   35   37 1    
    69   35   91 1    
    70   36   92 1    
    71   36   93 1    
    72   36   94 1    
    73   37   38 2    
    74   37   39 am   BACKBONE|DICT|INTERRES
    75   39   40 1    
    76   39   95 1    
    77   40   41 1    
    78   40   42 1    
    79   40   96 1    
    80   41   97 1    
    81   41   98 1    
    82   41   99 1    
    83   42   43 2    
    84   42   44 am   BACKBONE|DICT|INTERRES
    85   44   45 1    
    86   44  100 1    
    87   45   46 1    
    88   45   47 1    
    89   45  101 1    
    90   46  102 1    
    91   46  103 1    
    92   46  104 1    
    93   47   48 2    
    94   47   49 am   BACKBONE|DICT|INTERRES
    95   49   50 1    
    96   49  105 1    
    97   50   51 1    
    98   50   52 1    
    99   50  106 1    
   100   51  107 1    
   101   51  108 1    
   102   51  109 1    
   103   52   53 2    
   104   52   54 am   BACKBONE|DICT|INTERRES
   105   54   55 1    
   106   54  110 1    
   107   55   56 1    
   108   55   59 1    
   109   55  111 1    
   110   56   57 am   BACKBONE|DICT|INTERRES
   111   56   58 2    
   112   57  112 1    
   113   57  113 1    
   114   59   60 1    
   115   59  114 1    
   116   59  115 1    
   117   60   61 1    
   118   61  116 1    
   119   61  117 1    
@<TRIPOS>SUBSTRUCTURE
     1 UNK         1 GROUP             0       ****    0 ROOT    
