@<TRIPOS>MOLECULE
3R8
117   119    1
SMALL
USER_CHARGES


@<TRIPOS>ATOM
      1 CA         18.4645  -26.7811  -41.0570 C.3       0 UNK        -0.2013 
      2 C          18.5669  -26.4954  -42.5439 C.2       0 UNK         0.4866 
      3 O          19.3936  -27.0996  -43.2275 O.2       0 UNK        -0.5176 
      4 N          17.7320  -25.5710  -43.0378 N.am      1 UNK        -0.4884 
      5 CA         17.6018  -25.1654  -44.4437 C.3       1 UNK         0.0853 
      6 C6         16.9350  -26.2605  -45.3254 C.3       10 UNK        -0.0849 
      7 S7         15.2749  -26.7023  -44.6960 S.3       10 UNK        -0.2776 
      8 C8         15.0851  -28.4426  -45.2082 C.3       10 UNK         0.0316 
      9 C9         16.1511  -29.3563  -44.6169 C.ar      10 UNK        -0.0863 
     10 C10        16.1596  -29.6558  -43.2496 C.ar      10 UNK        -0.1009 
     11 C11        17.1436  -30.4906  -42.7048 C.ar      10 UNK        -0.0712 
     12 C12        18.1302  -31.0112  -43.5494 C.ar      10 UNK        -0.0894 
     13 C13        18.1223  -30.7349  -44.9172 C.ar      10 UNK        -0.0745 
     14 C14        17.1278  -29.9117  -45.4474 C.ar      10 UNK        -0.0972 
     15 C15        19.1935  -31.3224  -45.8212 C.3       10 UNK         0.0209 
     16 S16        20.3934  -30.0605  -46.3367 S.3       10 UNK        -0.2568 
     17 C17        21.2143  -29.6779  -44.7535 C.3       10 UNK        -0.0983 
     18 CA         22.1919  -28.4908  -44.9238 C.3       3 UNK         0.0876 
     19 N          21.4716  -27.2502  -45.2240 N.am      3 UNK        -0.4424 
     20 C          21.9095  -26.2817  -46.0399 C.2       2 UNK         0.4918 
     21 O          23.0455  -26.2764  -46.5168 O.2       2 UNK        -0.4875 
     22 CA         20.9422  -25.1352  -46.3953 C.3       2 UNK         0.0481 
     23 CB         20.8699  -24.9294  -47.9187 C.3       2 UNK        -0.1831 
     24 N          19.5897  -25.3861  -45.8910 N.am      2 UNK        -0.4498 
     25 C          18.9544  -24.6409  -44.9773 C.2       1 UNK         0.5027 
     26 O          19.4029  -23.5873  -44.5203 O.2       1 UNK        -0.4969 
     27 C          23.1333  -28.2892  -43.7219 C.2       3 UNK         0.5005 
     28 O          22.9898  -28.9534  -42.6910 O.2       3 UNK        -0.5279 
     29 N          24.0897  -27.3633  -43.8943 N.am      4 UNK        -0.4463 
     30 CA         25.1858  -27.0253  -42.9784 C.3       4 UNK         0.0283 
     31 CB         26.2113  -28.1784  -42.9362 C.3       4 UNK        -0.1875 
     32 C          24.6999  -26.6049  -41.5783 C.2       4 UNK         0.4949 
     33 O          25.2491  -27.0578  -40.5752 O.2       4 UNK        -0.5039 
     34 N          23.6448  -25.7764  -41.5365 N.am      5 UNK        -0.4663 
     35 CA         22.9493  -25.3110  -40.3255 C.3       5 UNK         0.0242 
     36 CB         23.8401  -24.3363  -39.5253 C.3       5 UNK        -0.1982 
     37 C          22.4084  -26.4754  -39.4680 C.2       5 UNK         0.5017 
     38 O          22.5165  -26.4460  -38.2416 O.2       5 UNK        -0.5012 
     39 N          21.8569  -27.4841  -40.1575 N.am      6 UNK        -0.4439 
     40 CA         21.3158  -28.7530  -39.6618 C.3       6 UNK         0.0297 
     41 CB         20.3271  -28.5693  -38.4890 C.3       6 UNK        -0.2006 
     42 C          22.3776  -29.8174  -39.3360 C.2       6 UNK         0.4892 
     43 O          21.9885  -30.9262  -38.9685 O.2       6 UNK        -0.5089 
     44 N          23.6779  -29.5282  -39.5053 N.am      7 UNK        -0.4243 
     45 CA         24.7517  -30.5015  -39.2644 C.3       7 UNK         0.0196 
     46 CB         26.1196  -29.8035  -39.2589 C.3       7 UNK        -0.2007 
     47 C          24.7447  -31.6789  -40.2560 C.2       7 UNK         0.5020 
     48 O          25.1903  -32.7664  -39.8897 O.2       7 UNK        -0.5147 
     49 N          24.2135  -31.4646  -41.4690 N.am      8 UNK        -0.4734 
     50 CA         24.0156  -32.5120  -42.4759 C.3       8 UNK         0.0238 
     51 CB         24.4460  -31.9820  -43.8553 C.3       8 UNK        -0.1912 
     52 C          22.5776  -33.0721  -42.4795 C.2       8 UNK         0.5038 
     53 O          22.2617  -33.8873  -43.3470 O.2       8 UNK        -0.5046 
     54 N          21.7374  -32.6594  -41.5170 N.am      9 UNK        -0.4200 
     55 CA         20.4010  -33.2311  -41.2713 C.3       9 UNK         0.0839 
     56 C          20.4395  -34.6223  -40.5698 C.2       9 UNK         0.5513 
     57 N          21.5383  -35.0143  -39.9339 N.am      9 UNK        -0.7519 
     58 O          19.4672  -35.3703  -40.6210 O.2       9 UNK        -0.4960 
     59 C59        19.4975  -32.2200  -40.5102 C.3       10 UNK        -0.0876 
     60 S60        17.7027  -32.4713  -40.7568 S.3       10 UNK        -0.2414 
     61 C61        17.1262  -30.7936  -41.2058 C.3       10 UNK         0.0169 
     62 H62        17.4990  -26.4795  -40.6515 H         1 UNK         0.0903 
     63 H63        18.5854  -27.8478  -40.8779 H         1 UNK         0.0903 
     64 H64        19.2469  -26.2464  -40.5204 H         1 UNK         0.0903 
     65 H65        17.1025  -25.0980  -42.4047 H         1 UNK         0.3096 
     66 H66        16.9377  -24.2992  -44.4494 H         1 UNK         0.1121 
     67 H67        17.5596  -27.1533  -45.3590 H         1 UNK         0.0849 
     68 H68        16.8222  -25.9149  -46.3547 H         1 UNK         0.0849 
     69 H69        14.1012  -28.7956  -44.8961 H         1 UNK         0.0865 
     70 H70        15.0913  -28.4925  -46.2983 H         1 UNK         0.0865 
     71 H71        15.3999  -29.2289  -42.6091 H         1 UNK         0.1346 
     72 H72        18.9130  -31.6352  -43.1511 H         1 UNK         0.1412 
     73 H73        17.1292  -29.6914  -46.5064 H         1 UNK         0.1426 
     74 H74        18.7240  -31.7490  -46.7087 H         1 UNK         0.0716 
     75 H75        19.7195  -32.1414  -45.3275 H         1 UNK         0.0716 
     76 H76        21.7256  -30.5802  -44.4196 H         1 UNK         0.0695 
     77 H77        20.4675  -29.4490  -43.9921 H         1 UNK         0.0695 
     78 H78        22.8425  -28.7367  -45.7667 H         1 UNK         0.0983 
     79 H79        20.5813  -27.1435  -44.7436 H         1 UNK         0.3095 
     80 H80        21.3584  -24.2298  -45.9500 H         1 UNK         0.0454 
     81 H81        20.5074  -25.8219  -48.4300 H         1 UNK         0.0851 
     82 H82        21.8511  -24.6922  -48.3319 H         1 UNK         0.0851 
     83 H83        20.2065  -24.1034  -48.1751 H         1 UNK         0.0851 
     84 H84        19.1580  -26.2477  -46.1943 H         1 UNK         0.2976 
     85 H85        24.0802  -26.8607  -44.7764 H         1 UNK         0.3116 
     86 H86        25.6870  -26.1526  -43.3994 H         1 UNK         0.0646 
     87 H87        26.5943  -28.4036  -43.9313 H         1 UNK         0.0847 
     88 H88        25.7753  -29.0928  -42.5339 H         1 UNK         0.0847 
     89 H89        27.0685  -27.9216  -42.3126 H         1 UNK         0.0847 
     90 H90        23.2560  -25.4678  -42.4171 H         1 UNK         0.3040 
     91 H91        22.0734  -24.7538  -40.6625 H         1 UNK         0.1015 
     92 H92        24.7145  -24.8359  -39.1070 H         1 UNK         0.0786 
     93 H93        23.2890  -23.8965  -38.6931 H         1 UNK         0.0786 
     94 H94        24.1903  -23.5149  -40.1502 H         1 UNK         0.0786 
     95 H95        21.9035  -27.4251  -41.1672 H         1 UNK         0.3172 
     96 H96        20.7495  -29.1490  -40.5049 H         1 UNK         0.0595 
     97 H97        20.8458  -28.3519  -37.5549 H         1 UNK         0.0839 
     98 H98        19.7484  -29.4793  -38.3262 H         1 UNK         0.0839 
     99 H99        19.6183  -27.7632  -38.6673 H         1 UNK         0.0839 
    100 H100       23.9521  -28.6092  -39.8350 H         1 UNK         0.2998 
    101 H101       24.5922  -30.9201  -38.2681 H         1 UNK         0.0822 
    102 H102       26.1380  -28.9663  -38.5609 H         1 UNK         0.0787 
    103 H103       26.9067  -30.4958  -38.9572 H         1 UNK         0.0787 
    104 H104       26.3854  -29.4250  -40.2449 H         1 UNK         0.0787 
    105 H105       23.8510  -30.5422  -41.6975 H         1 UNK         0.3055 
    106 H106       24.6600  -33.3652  -42.2525 H         1 UNK         0.1106 
    107 H107       25.5019  -31.7116  -43.8573 H         1 UNK         0.0828 
    108 H108       23.8825  -31.1017  -44.1517 H         1 UNK         0.0828 
    109 H109       24.3073  -32.7360  -44.6312 H         1 UNK         0.0828 
    110 H110       22.0807  -32.0204  -40.8106 H         1 UNK         0.2931 
    111 H111       19.9509  -33.4058  -42.2497 H         1 UNK         0.0412 
    112 H112       22.3445  -34.4123  -39.8787 H         1 UNK         0.3472 
    113 H113       21.5547  -35.9203  -39.4921 H         1 UNK         0.3472 
    114 H114       19.7370  -31.2093  -40.8387 H         1 UNK         0.0970 
    115 H115       19.7091  -32.2361  -39.4394 H         1 UNK         0.0970 
    116 H116       16.1058  -30.6961  -40.8323 H         1 UNK         0.0612 
    117 H117       17.7137  -30.0449  -40.6748 H         1 UNK         0.0612 
@<TRIPOS>BOND
     1    1    2 1    
     2    1   62 1    
     3    1   63 1    
     4    1   64 1    
     5    2    3 2    
     6    2    4 am   BACKBONE|DICT|INTERRES
     7    4    5 1    
     8    4   65 1    
     9    5    6 1    
    10    5   25 1    
    11    5   66 1    
    12    6    7 1    
    13    6   67 1    
    14    6   68 1    
    15    7    8 1    
    16    8    9 1    
    17    8   69 1    
    18    8   70 1    
    19    9   10 ar   
    20    9   14 ar   
    21   10   11 ar   
    22   10   71 1    
    23   11   12 ar   
    24   11   61 1    
    25   12   13 ar   
    26   12   72 1    
    27   13   14 ar   
    28   13   15 1    
    29   14   73 1    
    30   15   16 1    
    31   15   74 1    
    32   15   75 1    
    33   16   17 1    
    34   17   18 1    
    35   17   76 1    
    36   17   77 1    
    37   18   19 1    
    38   18   27 1    
    39   18   78 1    
    40   19   20 am   BACKBONE|DICT|INTERRES
    41   19   79 1    
    42   20   21 2    
    43   20   22 1    
    44   22   23 1    
    45   22   24 1    
    46   22   80 1    
    47   23   81 1    
    48   23   82 1    
    49   23   83 1    
    50   24   25 am   BACKBONE|DICT|INTERRES
    51   24   84 1    
    52   25   26 2    
    53   27   28 2    
    54   27   29 am   BACKBONE|DICT|INTERRES
    55   29   30 1    
    56   29   85 1    
    57   30   31 1    
    58   30   32 1    
    59   30   86 1    
    60   31   87 1    
    61   31   88 1    
    62   31   89 1    
    63   32   33 2    
    64   32   34 am   BACKBONE|DICT|INTERRES
    65   34   35 1    
    66   34   90 1    
    67   35   36 1    
    68   35   37 1    
    69   35   91 1    
    70   36   92 1    
    71   36   93 1    
    72   36   94 1    
    73   37   38 2    
    74   37   39 am   BACKBONE|DICT|INTERRES
    75   39   40 1    
    76   39   95 1    
    77   40   41 1    
    78   40   42 1    
    79   40   96 1    
    80   41   97 1    
    81   41   98 1    
    82   41   99 1    
    83   42   43 2    
    84   42   44 am   BACKBONE|DICT|INTERRES
    85   44   45 1    
    86   44  100 1    
    87   45   46 1    
    88   45   47 1    
    89   45  101 1    
    90   46  102 1    
    91   46  103 1    
    92   46  104 1    
    93   47   48 2    
    94   47   49 am   BACKBONE|DICT|INTERRES
    95   49   50 1    
    96   49  105 1    
    97   50   51 1    
    98   50   52 1    
    99   50  106 1    
   100   51  107 1    
   101   51  108 1    
   102   51  109 1    
   103   52   53 2    
   104   52   54 am   BACKBONE|DICT|INTERRES
   105   54   55 1    
   106   54  110 1    
   107   55   56 1    
   108   55   59 1    
   109   55  111 1    
   110   56   57 am   BACKBONE|DICT|INTERRES
   111   56   58 2    
   112   57  112 1    
   113   57  113 1    
   114   59   60 1    
   115   59  114 1    
   116   59  115 1    
   117   60   61 1    
   118   61  116 1    
   119   61  117 1    
@<TRIPOS>SUBSTRUCTURE
     1 UNK         1 GROUP             0       ****    0 ROOT    
