@<TRIPOS>MOLECULE
3R8
117   119    1
SMALL
USER_CHARGES


@<TRIPOS>ATOM
      1 CA         15.6789  -30.1302  -40.2711 C.3       0 UNK        -0.2013 
      2 C          16.0531  -28.7181  -40.6950 C.2       0 UNK         0.4866 
      3 O          15.8897  -27.7816  -39.9124 O.2       0 UNK        -0.5176 
      4 N          16.5368  -28.5547  -41.9320 N.am      1 UNK        -0.4884 
      5 CA         16.9145  -27.2620  -42.5152 C.3       1 UNK         0.0853 
      6 C6         17.0550  -27.3321  -44.0591 C.3       10 UNK        -0.0849 
      7 S7         15.5889  -28.0442  -44.8934 S.3       10 UNK        -0.2776 
      8 C8         16.2874  -28.7399  -46.4363 C.3       10 UNK         0.0316 
      9 C9         17.4997  -29.6276  -46.1844 C.ar      10 UNK        -0.0863 
     10 C10        17.3935  -30.7462  -45.3539 C.ar      10 UNK        -0.1009 
     11 C11        18.5293  -31.4821  -45.0059 C.ar      10 UNK        -0.0712 
     12 C12        19.7730  -31.1175  -45.5310 C.ar      10 UNK        -0.0894 
     13 C13        19.8876  -30.0249  -46.3968 C.ar      10 UNK        -0.0745 
     14 C14        18.7441  -29.2892  -46.7259 C.ar      10 UNK        -0.0972 
     15 C15        21.2523  -29.6315  -46.9549 C.3       10 UNK         0.0209 
     16 S16        21.6928  -27.8914  -46.6232 S.3       10 UNK        -0.2568 
     17 C17        21.5433  -27.8202  -44.8097 C.3       10 UNK        -0.0983 
     18 CA         21.9004  -26.4188  -44.2419 C.3       3 UNK         0.0876 
     19 N          20.9961  -26.0643  -43.1497 N.am      3 UNK        -0.4424 
     20 C          20.6847  -24.8274  -42.7499 C.2       2 UNK         0.4918 
     21 O          21.1154  -23.8041  -43.2848 O.2       2 UNK        -0.4875 
     22 CA         19.6746  -24.7359  -41.5853 C.3       2 UNK         0.0481 
     23 CB         19.3698  -23.2832  -41.1758 C.3       2 UNK        -0.1831 
     24 N          18.4169  -25.4132  -41.9226 N.am      2 UNK        -0.4498 
     25 C          18.2312  -26.7401  -41.9045 C.2       1 UNK         0.5027 
     26 O          19.0940  -27.5335  -41.5141 O.2       1 UNK        -0.4969 
     27 C          23.3762  -26.3305  -43.7999 C.2       3 UNK         0.5005 
     28 O          23.6682  -26.0148  -42.6438 O.2       3 UNK        -0.5279 
     29 N          24.2865  -26.6411  -44.7269 N.am      4 UNK        -0.4463 
     30 CA         25.7138  -26.7976  -44.4748 C.3       4 UNK         0.0283 
     31 CB         26.4551  -25.4941  -44.8150 C.3       4 UNK        -0.1875 
     32 C          26.2081  -27.9612  -45.3493 C.2       4 UNK         0.4949 
     33 O          25.8598  -27.9878  -46.5292 O.2       4 UNK        -0.5039 
     34 N          27.0003  -28.9138  -44.8351 N.am      5 UNK        -0.4663 
     35 CA         27.4100  -29.0964  -43.4353 C.3       5 UNK         0.0242 
     36 CB         28.6333  -30.0271  -43.4018 C.3       5 UNK        -0.1982 
     37 C          26.2923  -29.6667  -42.5374 C.2       5 UNK         0.5017 
     38 O          26.4099  -29.5943  -41.3142 O.2       5 UNK        -0.5012 
     39 N          25.2369  -30.2230  -43.1488 N.am      6 UNK        -0.4439 
     40 CA         24.1055  -30.8966  -42.5027 C.3       6 UNK         0.0297 
     41 CB         23.4289  -31.8104  -43.5426 C.3       6 UNK        -0.2006 
     42 C          23.1045  -29.9300  -41.8337 C.2       6 UNK         0.4892 
     43 O          21.9076  -29.9897  -42.1212 O.2       6 UNK        -0.5089 
     44 N          23.6006  -29.0580  -40.9480 N.am      7 UNK        -0.4243 
     45 CA         22.8026  -28.1306  -40.1440 C.3       7 UNK         0.0196 
     46 CB         23.7387  -27.1834  -39.3752 C.3       7 UNK        -0.2007 
     47 C          21.8823  -28.9007  -39.1842 C.2       7 UNK         0.5020 
     48 O          22.3839  -29.6221  -38.3203 O.2       7 UNK        -0.5147 
     49 N          20.5651  -28.7593  -39.3843 N.am      8 UNK        -0.4734 
     50 CA         19.4833  -29.5033  -38.7274 C.3       8 UNK         0.0238 
     51 CB         19.4630  -29.2590  -37.2031 C.3       8 UNK        -0.1912 
     52 C          19.4514  -31.0010  -39.1003 C.2       8 UNK         0.5038 
     53 O          18.8537  -31.7906  -38.3665 O.2       8 UNK        -0.5046 
     54 N          20.0526  -31.3560  -40.2452 N.am      9 UNK        -0.4200 
     55 CA         20.1152  -32.7075  -40.8238 C.3       9 UNK         0.0839 
     56 C          20.9282  -33.7153  -39.9549 C.2       9 UNK         0.5513 
     57 N          20.7736  -35.0164  -40.1657 N.am      9 UNK        -0.7519 
     58 O          21.7505  -33.3341  -39.1246 O.2       9 UNK        -0.4960 
     59 C59        18.7213  -33.2338  -41.2824 C.3       10 UNK        -0.0876 
     60 S60        17.8772  -32.0600  -42.3941 S.3       10 UNK        -0.2414 
     61 C61        18.4165  -32.6440  -44.0311 C.3       10 UNK         0.0169 
     62 H62        16.4863  -30.5842  -39.6985 H         1 UNK         0.0903 
     63 H63        14.7861  -30.1139  -39.6466 H         1 UNK         0.0903 
     64 H64        15.4690  -30.7635  -41.1326 H         1 UNK         0.0903 
     65 H65        16.6864  -29.3592  -42.5250 H         1 UNK         0.3096 
     66 H66        16.1232  -26.5481  -42.2749 H         1 UNK         0.1121 
     67 H67        17.2225  -26.3368  -44.4751 H         1 UNK         0.0849 
     68 H68        17.9419  -27.9132  -44.3133 H         1 UNK         0.0849 
     69 H69        15.5177  -29.3210  -46.9458 H         1 UNK         0.0865 
     70 H70        16.5429  -27.9165  -47.1051 H         1 UNK         0.0865 
     71 H71        16.4342  -31.0094  -44.9291 H         1 UNK         0.1346 
     72 H72        20.6548  -31.6787  -45.2549 H         1 UNK         0.1412 
     73 H73        18.8359  -28.4263  -47.3715 H         1 UNK         0.1426 
     74 H74        22.0372  -30.2705  -46.5477 H         1 UNK         0.0716 
     75 H75        21.2521  -29.7945  -48.0333 H         1 UNK         0.0716 
     76 H76        22.1480  -28.6136  -44.3684 H         1 UNK         0.0695 
     77 H77        20.5103  -28.0745  -44.5662 H         1 UNK         0.0695 
     78 H78        21.7607  -25.6694  -45.0246 H         1 UNK         0.0983 
     79 H79        20.5845  -26.8374  -42.6391 H         1 UNK         0.3095 
     80 H80        20.1265  -25.2327  -40.7240 H         1 UNK         0.0454 
     81 H81        18.9151  -22.7185  -41.9906 H         1 UNK         0.0851 
     82 H82        18.6932  -23.2453  -40.3221 H         1 UNK         0.0851 
     83 H83        20.2822  -22.7602  -40.8862 H         1 UNK         0.0851 
     84 H84        17.6829  -24.8246  -42.2910 H         1 UNK         0.2976 
     85 H85        23.9808  -26.9363  -45.6477 H         1 UNK         0.3116 
     86 H86        25.8624  -27.0117  -43.4178 H         1 UNK         0.0646 
     87 H87        26.0981  -24.6650  -44.2039 H         1 UNK         0.0847 
     88 H88        26.3272  -25.2172  -45.8623 H         1 UNK         0.0847 
     89 H89        27.5254  -25.5959  -44.6312 H         1 UNK         0.0847 
     90 H90        27.3237  -29.6305  -45.4697 H         1 UNK         0.3040 
     91 H91        27.7225  -28.1369  -43.0186 H         1 UNK         0.1015 
     92 H92        28.9931  -30.1643  -42.3808 H         1 UNK         0.0786 
     93 H93        29.4611  -29.6163  -43.9804 H         1 UNK         0.0786 
     94 H94        28.4023  -31.0159  -43.8005 H         1 UNK         0.0786 
     95 H95        25.2319  -30.2146  -44.1585 H         1 UNK         0.3172 
     96 H96        24.4997  -31.5360  -41.7100 H         1 UNK         0.0595 
     97 H97        22.9954  -31.2349  -44.3611 H         1 UNK         0.0839 
     98 H98        22.6249  -32.3919  -43.0917 H         1 UNK         0.0839 
     99 H99        24.1358  -32.5227  -43.9683 H         1 UNK         0.0839 
    100 H100       24.5991  -29.0890  -40.7681 H         1 UNK         0.2998 
    101 H101       22.1938  -27.5320  -40.8246 H         1 UNK         0.0822 
    102 H102       24.3954  -27.7273  -38.6949 H         1 UNK         0.0787 
    103 H103       24.3657  -26.6073  -40.0560 H         1 UNK         0.0787 
    104 H104       23.1668  -26.4707  -38.7796 H         1 UNK         0.0787 
    105 H105       20.2490  -28.1851  -40.1638 H         1 UNK         0.3055 
    106 H106       18.5608  -29.0843  -39.1303 H         1 UNK         0.1106 
    107 H107       19.4907  -28.1946  -36.9706 H         1 UNK         0.0828 
    108 H108       18.5536  -29.6626  -36.7564 H         1 UNK         0.0828 
    109 H109       20.3057  -29.7363  -36.7027 H         1 UNK         0.0828 
    110 H110       20.5431  -30.6450  -40.7778 H         1 UNK         0.2931 
    111 H111       20.7164  -32.5856  -41.7240 H         1 UNK         0.0412 
    112 H112       21.3172  -35.6648  -39.6171 H         1 UNK         0.3472 
    113 H113       20.1310  -35.3671  -40.8575 H         1 UNK         0.3472 
    114 H114       18.0788  -33.4118  -40.4187 H         1 UNK         0.0970 
    115 H115       18.8058  -34.1914  -41.7973 H         1 UNK         0.0970 
    116 H116       17.7023  -33.3770  -44.4084 H         1 UNK         0.0612 
    117 H117       19.3757  -33.1562  -43.9414 H         1 UNK         0.0612 
@<TRIPOS>BOND
     1    1    2 1    
     2    1   62 1    
     3    1   63 1    
     4    1   64 1    
     5    2    3 2    
     6    2    4 am   BACKBONE|DICT|INTERRES
     7    4    5 1    
     8    4   65 1    
     9    5    6 1    
    10    5   25 1    
    11    5   66 1    
    12    6    7 1    
    13    6   67 1    
    14    6   68 1    
    15    7    8 1    
    16    8    9 1    
    17    8   69 1    
    18    8   70 1    
    19    9   10 ar   
    20    9   14 ar   
    21   10   11 ar   
    22   10   71 1    
    23   11   12 ar   
    24   11   61 1    
    25   12   13 ar   
    26   12   72 1    
    27   13   14 ar   
    28   13   15 1    
    29   14   73 1    
    30   15   16 1    
    31   15   74 1    
    32   15   75 1    
    33   16   17 1    
    34   17   18 1    
    35   17   76 1    
    36   17   77 1    
    37   18   19 1    
    38   18   27 1    
    39   18   78 1    
    40   19   20 am   BACKBONE|DICT|INTERRES
    41   19   79 1    
    42   20   21 2    
    43   20   22 1    
    44   22   23 1    
    45   22   24 1    
    46   22   80 1    
    47   23   81 1    
    48   23   82 1    
    49   23   83 1    
    50   24   25 am   BACKBONE|DICT|INTERRES
    51   24   84 1    
    52   25   26 2    
    53   27   28 2    
    54   27   29 am   BACKBONE|DICT|INTERRES
    55   29   30 1    
    56   29   85 1    
    57   30   31 1    
    58   30   32 1    
    59   30   86 1    
    60   31   87 1    
    61   31   88 1    
    62   31   89 1    
    63   32   33 2    
    64   32   34 am   BACKBONE|DICT|INTERRES
    65   34   35 1    
    66   34   90 1    
    67   35   36 1    
    68   35   37 1    
    69   35   91 1    
    70   36   92 1    
    71   36   93 1    
    72   36   94 1    
    73   37   38 2    
    74   37   39 am   BACKBONE|DICT|INTERRES
    75   39   40 1    
    76   39   95 1    
    77   40   41 1    
    78   40   42 1    
    79   40   96 1    
    80   41   97 1    
    81   41   98 1    
    82   41   99 1    
    83   42   43 2    
    84   42   44 am   BACKBONE|DICT|INTERRES
    85   44   45 1    
    86   44  100 1    
    87   45   46 1    
    88   45   47 1    
    89   45  101 1    
    90   46  102 1    
    91   46  103 1    
    92   46  104 1    
    93   47   48 2    
    94   47   49 am   BACKBONE|DICT|INTERRES
    95   49   50 1    
    96   49  105 1    
    97   50   51 1    
    98   50   52 1    
    99   50  106 1    
   100   51  107 1    
   101   51  108 1    
   102   51  109 1    
   103   52   53 2    
   104   52   54 am   BACKBONE|DICT|INTERRES
   105   54   55 1    
   106   54  110 1    
   107   55   56 1    
   108   55   59 1    
   109   55  111 1    
   110   56   57 am   BACKBONE|DICT|INTERRES
   111   56   58 2    
   112   57  112 1    
   113   57  113 1    
   114   59   60 1    
   115   59  114 1    
   116   59  115 1    
   117   60   61 1    
   118   61  116 1    
   119   61  117 1    
@<TRIPOS>SUBSTRUCTURE
     1 UNK         1 GROUP             0       ****    0 ROOT    
