@<TRIPOS>MOLECULE
3R8
117   119    1
SMALL
USER_CHARGES


@<TRIPOS>ATOM
      1 CA         13.6199  -22.7785  -46.8541 C.3       0 UNK        -0.2013 
      2 C          14.1980  -24.1855  -46.8289 C.2       0 UNK         0.4866 
      3 O          14.2716  -24.8358  -47.8716 O.2       0 UNK        -0.5176 
      4 N          14.6122  -24.6606  -45.6460 N.am      1 UNK        -0.4884 
      5 CA         15.1963  -25.9947  -45.4396 C.3       1 UNK         0.0853 
      6 C6         15.0640  -26.4411  -43.9582 C.3       10 UNK        -0.0849 
      7 S7         14.7825  -28.2354  -43.8026 S.3       10 UNK        -0.2776 
      8 C8         15.0721  -28.4921  -42.0248 C.3       10 UNK         0.0316 
      9 C9         16.5469  -28.6971  -41.7073 C.ar      10 UNK        -0.0863 
     10 C10        17.1371  -29.9458  -41.9275 C.ar      10 UNK        -0.1009 
     11 C11        18.4734  -30.1699  -41.5862 C.ar      10 UNK        -0.0712 
     12 C12        19.2168  -29.1360  -41.0141 C.ar      10 UNK        -0.0894 
     13 C13        18.6511  -27.8712  -40.8162 C.ar      10 UNK        -0.0745 
     14 C14        17.3118  -27.6600  -41.1621 C.ar      10 UNK        -0.0972 
     15 C15        19.4731  -26.7408  -40.2054 C.3       10 UNK         0.0209 
     16 S16        21.1097  -26.5431  -40.9876 S.3       10 UNK        -0.2568 
     17 C17        20.6939  -25.7790  -42.5911 C.3       10 UNK        -0.0983 
     18 CA         20.3918  -26.7912  -43.7369 C.3       3 UNK         0.0876 
     19 N          19.5270  -26.2138  -44.7692 N.am      3 UNK        -0.4424 
     20 C          19.7846  -25.1429  -45.5306 C.2       2 UNK         0.4918 
     21 O          20.8075  -24.4631  -45.4376 O.2       2 UNK        -0.4875 
     22 CA         18.7113  -24.7238  -46.5549 C.3       2 UNK         0.0481 
     23 CB         18.9852  -25.3571  -47.9328 C.3       2 UNK        -0.1831 
     24 N          17.3205  -24.9400  -46.1230 N.am      2 UNK        -0.4498 
     25 C          16.6598  -26.0932  -45.9293 C.2       1 UNK         0.5027 
     26 O          17.1712  -27.2017  -46.0901 O.2       1 UNK        -0.4969 
     27 C          21.6349  -27.4791  -44.3537 C.2       3 UNK         0.5005 
     28 O          21.6562  -27.7581  -45.5565 O.2       3 UNK        -0.5279 
     29 N          22.6306  -27.7885  -43.5186 N.am      4 UNK        -0.4463 
     30 CA         23.8450  -28.5251  -43.8557 C.3       4 UNK         0.0283 
     31 CB         23.5154  -30.0201  -44.0253 C.3       4 UNK        -0.1875 
     32 C          24.8763  -28.3225  -42.7400 C.2       4 UNK         0.4949 
     33 O          24.5448  -27.7619  -41.6910 O.2       4 UNK        -0.5039 
     34 N          26.1022  -28.8112  -42.9739 N.am      5 UNK        -0.4663 
     35 CA         27.2114  -28.8162  -42.0147 C.3       5 UNK         0.0242 
     36 CB         28.4372  -29.4867  -42.6557 C.3       5 UNK        -0.1982 
     37 C          26.8278  -29.5255  -40.7047 C.2       5 UNK         0.5017 
     38 O          26.3781  -30.6739  -40.7457 O.2       5 UNK        -0.5012 
     39 N          26.9488  -28.7976  -39.5844 N.am      6 UNK        -0.4439 
     40 CA         26.5535  -29.1866  -38.2216 C.3       6 UNK         0.0297 
     41 CB         27.4655  -30.3189  -37.7023 C.3       6 UNK        -0.2006 
     42 C          25.0553  -29.5353  -38.0637 C.2       6 UNK         0.4892 
     43 O          24.6909  -30.1734  -37.0749 O.2       6 UNK        -0.5089 
     44 N          24.2236  -29.1352  -39.0411 N.am      7 UNK        -0.4243 
     45 CA         22.8107  -29.4899  -39.2146 C.3       7 UNK         0.0196 
     46 CB         21.9421  -28.8363  -38.1187 C.3       7 UNK        -0.2007 
     47 C          22.5654  -31.0084  -39.3476 C.2       7 UNK         0.5020 
     48 O          21.4846  -31.4804  -38.9942 O.2       7 UNK        -0.5147 
     49 N          23.5680  -31.7556  -39.8347 N.am      8 UNK        -0.4734 
     50 CA         23.5252  -33.2172  -39.9201 C.3       8 UNK         0.0238 
     51 CB         24.9586  -33.7635  -40.0249 C.3       8 UNK        -0.1912 
     52 C          22.6605  -33.7291  -41.0821 C.2       8 UNK         0.5038 
     53 O          21.9149  -34.6919  -40.8986 O.2       8 UNK        -0.5046 
     54 N          22.7957  -33.0878  -42.2516 N.am      9 UNK        -0.4200 
     55 CA         22.1486  -33.4561  -43.5265 C.3       9 UNK         0.0839 
     56 C          22.5583  -34.8577  -44.0800 C.2       9 UNK         0.5513 
     57 N          23.7015  -35.4097  -43.6903 N.am      9 UNK        -0.7519 
     58 O          21.8531  -35.4430  -44.8982 O.2       9 UNK        -0.4960 
     59 C59        20.6081  -33.2310  -43.5183 C.3       10 UNK        -0.0876 
     60 S60        20.1586  -31.4729  -43.3263 S.3       10 UNK        -0.2414 
     61 C61        19.1187  -31.5239  -41.8374 C.3       10 UNK         0.0169 
     62 H62        13.6160  -22.3200  -45.8655 H         1 UNK         0.0903 
     63 H63        14.2047  -22.1443  -47.5197 H         1 UNK         0.0903 
     64 H64        12.5939  -22.8017  -47.2204 H         1 UNK         0.0903 
     65 H65        14.5210  -24.0835  -44.8208 H         1 UNK         0.3096 
     66 H66        14.6222  -26.6874  -46.0602 H         1 UNK         0.1121 
     67 H67        15.9319  -26.1434  -43.3661 H         1 UNK         0.0849 
     68 H68        14.2060  -25.9560  -43.4895 H         1 UNK         0.0849 
     69 H69        14.5124  -29.3725  -41.7049 H         1 UNK         0.0865 
     70 H70        14.6624  -27.6558  -41.4560 H         1 UNK         0.0865 
     71 H71        16.5517  -30.7449  -42.3618 H         1 UNK         0.1346 
     72 H72        20.2467  -29.3152  -40.7441 H         1 UNK         0.1412 
     73 H73        16.8591  -26.6926  -40.9924 H         1 UNK         0.1426 
     74 H74        19.6178  -26.9540  -39.1459 H         1 UNK         0.0716 
     75 H75        18.9365  -25.7922  -40.2556 H         1 UNK         0.0716 
     76 H76        21.5074  -25.1088  -42.8746 H         1 UNK         0.0695 
     77 H77        19.8298  -25.1328  -42.4284 H         1 UNK         0.0695 
     78 H78        19.8000  -27.6063  -43.3211 H         1 UNK         0.0983 
     79 H79        18.6959  -26.7483  -45.0025 H         1 UNK         0.3095 
     80 H80        18.8066  -23.6433  -46.6736 H         1 UNK         0.0454 
     81 H81        18.9532  -26.4463  -47.8972 H         1 UNK         0.0851 
     82 H82        19.9749  -25.0781  -48.2966 H         1 UNK         0.0851 
     83 H83        18.2606  -25.0229  -48.6752 H         1 UNK         0.0851 
     84 H84        16.8016  -24.0944  -45.9310 H         1 UNK         0.2976 
     85 H85        22.5820  -27.4823  -42.5512 H         1 UNK         0.3116 
     86 H86        24.2603  -28.1262  -44.7834 H         1 UNK         0.0646 
     87 H87        23.0754  -30.4250  -43.1144 H         1 UNK         0.0847 
     88 H88        24.4044  -30.6081  -44.2553 H         1 UNK         0.0847 
     89 H89        22.8069  -30.1850  -44.8371 H         1 UNK         0.0847 
     90 H90        26.2760  -29.2708  -43.8560 H         1 UNK         0.3040 
     91 H91        27.4626  -27.7755  -41.7990 H         1 UNK         0.1015 
     92 H92        28.2346  -30.5244  -42.9251 H         1 UNK         0.0786 
     93 H93        29.2845  -29.4887  -41.9685 H         1 UNK         0.0786 
     94 H94        28.7538  -28.9607  -43.5565 H         1 UNK         0.0786 
     95 H95        27.2969  -27.8521  -39.6731 H         1 UNK         0.3172 
     96 H96        26.7241  -28.3101  -37.5949 H         1 UNK         0.0595 
     97 H97        27.2853  -30.5161  -36.6448 H         1 UNK         0.0839 
     98 H98        28.5192  -30.0598  -37.8048 H         1 UNK         0.0839 
     99 H99        27.2956  -31.2529  -38.2391 H         1 UNK         0.0839 
    100 H100       24.6192  -28.6061  -39.8123 H         1 UNK         0.2998 
    101 H101       22.5175  -29.0608  -40.1726 H         1 UNK         0.0822 
    102 H102       20.8806  -28.9951  -38.3106 H         1 UNK         0.0787 
    103 H103       22.1569  -29.2478  -37.1322 H         1 UNK         0.0787 
    104 H104       22.1036  -27.7592  -38.0771 H         1 UNK         0.0787 
    105 H105       24.4410  -31.3043  -40.0889 H         1 UNK         0.3055 
    106 H106       23.0876  -33.6015  -38.9954 H         1 UNK         0.1106 
    107 H107       24.9600  -34.8533  -40.0732 H         1 UNK         0.0828 
    108 H108       25.4717  -33.3944  -40.9138 H         1 UNK         0.0828 
    109 H109       25.5536  -33.4778  -39.1570 H         1 UNK         0.0828 
    110 H110       23.4446  -32.3175  -42.2927 H         1 UNK         0.2931 
    111 H111       22.5604  -32.7659  -44.2630 H         1 UNK         0.0412 
    112 H112       23.9646  -36.3099  -44.0602 H         1 UNK         0.3472 
    113 H113       24.3026  -34.9388  -43.0341 H         1 UNK         0.3472 
    114 H114       20.1643  -33.5581  -44.4600 H         1 UNK         0.0970 
    115 H115       20.1353  -33.8348  -42.7425 H         1 UNK         0.0970 
    116 H116       18.3532  -32.2922  -41.9558 H         1 UNK         0.0612 
    117 H117       19.7255  -31.8171  -40.9802 H         1 UNK         0.0612 
@<TRIPOS>BOND
     1    1    2 1    
     2    1   62 1    
     3    1   63 1    
     4    1   64 1    
     5    2    3 2    
     6    2    4 am   BACKBONE|DICT|INTERRES
     7    4    5 1    
     8    4   65 1    
     9    5    6 1    
    10    5   25 1    
    11    5   66 1    
    12    6    7 1    
    13    6   67 1    
    14    6   68 1    
    15    7    8 1    
    16    8    9 1    
    17    8   69 1    
    18    8   70 1    
    19    9   10 ar   
    20    9   14 ar   
    21   10   11 ar   
    22   10   71 1    
    23   11   12 ar   
    24   11   61 1    
    25   12   13 ar   
    26   12   72 1    
    27   13   14 ar   
    28   13   15 1    
    29   14   73 1    
    30   15   16 1    
    31   15   74 1    
    32   15   75 1    
    33   16   17 1    
    34   17   18 1    
    35   17   76 1    
    36   17   77 1    
    37   18   19 1    
    38   18   27 1    
    39   18   78 1    
    40   19   20 am   BACKBONE|DICT|INTERRES
    41   19   79 1    
    42   20   21 2    
    43   20   22 1    
    44   22   23 1    
    45   22   24 1    
    46   22   80 1    
    47   23   81 1    
    48   23   82 1    
    49   23   83 1    
    50   24   25 am   BACKBONE|DICT|INTERRES
    51   24   84 1    
    52   25   26 2    
    53   27   28 2    
    54   27   29 am   BACKBONE|DICT|INTERRES
    55   29   30 1    
    56   29   85 1    
    57   30   31 1    
    58   30   32 1    
    59   30   86 1    
    60   31   87 1    
    61   31   88 1    
    62   31   89 1    
    63   32   33 2    
    64   32   34 am   BACKBONE|DICT|INTERRES
    65   34   35 1    
    66   34   90 1    
    67   35   36 1    
    68   35   37 1    
    69   35   91 1    
    70   36   92 1    
    71   36   93 1    
    72   36   94 1    
    73   37   38 2    
    74   37   39 am   BACKBONE|DICT|INTERRES
    75   39   40 1    
    76   39   95 1    
    77   40   41 1    
    78   40   42 1    
    79   40   96 1    
    80   41   97 1    
    81   41   98 1    
    82   41   99 1    
    83   42   43 2    
    84   42   44 am   BACKBONE|DICT|INTERRES
    85   44   45 1    
    86   44  100 1    
    87   45   46 1    
    88   45   47 1    
    89   45  101 1    
    90   46  102 1    
    91   46  103 1    
    92   46  104 1    
    93   47   48 2    
    94   47   49 am   BACKBONE|DICT|INTERRES
    95   49   50 1    
    96   49  105 1    
    97   50   51 1    
    98   50   52 1    
    99   50  106 1    
   100   51  107 1    
   101   51  108 1    
   102   51  109 1    
   103   52   53 2    
   104   52   54 am   BACKBONE|DICT|INTERRES
   105   54   55 1    
   106   54  110 1    
   107   55   56 1    
   108   55   59 1    
   109   55  111 1    
   110   56   57 am   BACKBONE|DICT|INTERRES
   111   56   58 2    
   112   57  112 1    
   113   57  113 1    
   114   59   60 1    
   115   59  114 1    
   116   59  115 1    
   117   60   61 1    
   118   61  116 1    
   119   61  117 1    
@<TRIPOS>SUBSTRUCTURE
     1 UNK         1 GROUP             0       ****    0 ROOT    
