@<TRIPOS>MOLECULE
3R8
117   119    1
SMALL
USER_CHARGES


@<TRIPOS>ATOM
      1 CA         21.6703  -28.7102  -46.7719 C.3       0 UNK        -0.2013 
      2 C          20.6112  -27.9940  -45.9483 C.2       0 UNK         0.4866 
      3 O          20.9328  -27.3975  -44.9209 O.2       0 UNK        -0.5176 
      4 N          19.3507  -28.0398  -46.3962 N.am      1 UNK        -0.4884 
      5 CA         18.2277  -27.3015  -45.8101 C.3       1 UNK         0.0853 
      6 C6         16.8809  -27.8847  -46.3130 C.3       10 UNK        -0.0849 
      7 S7         15.4715  -27.4904  -45.2239 S.3       10 UNK        -0.2776 
      8 C8         15.2417  -29.0314  -44.2797 C.3       10 UNK         0.0316 
      9 C9         16.3988  -29.3445  -43.3360 C.ar      10 UNK        -0.0863 
     10 C10        17.3273  -30.3325  -43.6761 C.ar      10 UNK        -0.1009 
     11 C11        18.3284  -30.7083  -42.7766 C.ar      10 UNK        -0.0712 
     12 C12        18.4166  -30.0707  -41.5370 C.ar      10 UNK        -0.0894 
     13 C13        17.5026  -29.0738  -41.1829 C.ar      10 UNK        -0.0745 
     14 C14        16.4949  -28.7148  -42.0888 C.ar      10 UNK        -0.0972 
     15 C15        17.5564  -28.4577  -39.7875 C.3       10 UNK         0.0209 
     16 S16        17.6779  -26.6415  -39.8067 S.3       10 UNK        -0.2568 
     17 C17        19.4724  -26.3436  -40.0063 C.3       10 UNK        -0.0983 
     18 CA         20.0556  -26.6906  -41.4073 C.3       3 UNK         0.0876 
     19 N          19.1639  -26.3071  -42.5061 N.am      3 UNK        -0.4424 
     20 C          18.8116  -25.0702  -42.8746 C.2       2 UNK         0.4918 
     21 O          19.3489  -24.0364  -42.4751 O.2       2 UNK        -0.4875 
     22 CA         17.6288  -24.9917  -43.8464 C.3       2 UNK         0.0481 
     23 CB         16.6968  -23.8169  -43.5030 C.3       2 UNK        -0.1831 
     24 N          18.0913  -24.8427  -45.2251 N.am      2 UNK        -0.4498 
     25 C          18.3789  -25.7894  -46.1325 C.2       1 UNK         0.5027 
     26 O          18.7589  -25.4723  -47.2611 O.2       1 UNK        -0.4969 
     27 C          21.5171  -26.2046  -41.5617 C.2       3 UNK         0.5005 
     28 O          22.2527  -26.1726  -40.5735 O.2       3 UNK        -0.5279 
     29 N          21.9263  -25.8486  -42.7865 N.am      4 UNK        -0.4463 
     30 CA         23.2446  -25.3027  -43.1101 C.3       4 UNK         0.0283 
     31 CB         23.1967  -24.6456  -44.4984 C.3       4 UNK        -0.1875 
     32 C          24.3445  -26.3698  -43.0551 C.2       4 UNK         0.4949 
     33 O          25.4562  -26.0794  -42.6120 O.2       4 UNK        -0.5039 
     34 N          24.0097  -27.5987  -43.4678 N.am      5 UNK        -0.4663 
     35 CA         24.8954  -28.7640  -43.4414 C.3       5 UNK         0.0242 
     36 CB         24.4384  -29.7496  -44.5256 C.3       5 UNK        -0.1982 
     37 C          24.9486  -29.3950  -42.0369 C.2       5 UNK         0.5017 
     38 O          24.5400  -30.5457  -41.8541 O.2       5 UNK        -0.5012 
     39 N          25.4067  -28.5957  -41.0608 N.am      6 UNK        -0.4439 
     40 CA         25.5961  -28.9115  -39.6360 C.3       6 UNK         0.0297 
     41 CB         26.7662  -29.9042  -39.4705 C.3       6 UNK        -0.2006 
     42 C          24.3217  -29.3981  -38.9125 C.2       6 UNK         0.4892 
     43 O          24.4273  -30.1018  -37.9070 O.2       6 UNK        -0.5089 
     44 N          23.1468  -29.0504  -39.4616 N.am      7 UNK        -0.4243 
     45 CA         21.8090  -29.5457  -39.1091 C.3       7 UNK         0.0196 
     46 CB         21.3965  -29.0532  -37.7061 C.3       7 UNK        -0.2007 
     47 C          21.6352  -31.0735  -39.2697 C.2       7 UNK         0.5020 
     48 O          20.6811  -31.6271  -38.7223 O.2       7 UNK        -0.5147 
     49 N          22.5393  -31.7276  -40.0114 N.am      8 UNK        -0.4734 
     50 CA         22.6000  -33.1807  -40.1728 C.3       8 UNK         0.0238 
     51 CB         23.9764  -33.6780  -39.6997 C.3       8 UNK        -0.1912 
     52 C          22.3510  -33.6034  -41.6244 C.2       8 UNK         0.5038 
     53 O          21.6538  -34.5947  -41.8426 O.2       8 UNK        -0.5046 
     54 N          22.9162  -32.8544  -42.5827 N.am      9 UNK        -0.4200 
     55 CA         22.8221  -33.1039  -44.0334 C.3       9 UNK         0.0839 
     56 C          23.5093  -34.4184  -44.5159 C.2       9 UNK         0.5513 
     57 N          24.4400  -34.9891  -43.7602 N.am      9 UNK        -0.7519 
     58 O          23.2220  -34.9145  -45.6025 O.2       9 UNK        -0.4960 
     59 C59        21.3819  -32.9323  -44.5963 C.3       10 UNK        -0.0876 
     60 S60        20.6298  -31.3186  -44.1841 S.3       10 UNK        -0.2414 
     61 C61        19.2640  -31.8562  -43.1175 C.3       10 UNK         0.0169 
     62 H62        22.5597  -28.0873  -46.8629 H         1 UNK         0.0903 
     63 H63        21.9544  -29.6449  -46.2919 H         1 UNK         0.0903 
     64 H64        21.3151  -28.9383  -47.7764 H         1 UNK         0.0903 
     65 H65        19.1545  -28.5184  -47.2635 H         1 UNK         0.3096 
     66 H66        18.2889  -27.4703  -44.7379 H         1 UNK         0.1121 
     67 H67        16.6545  -27.5355  -47.3224 H         1 UNK         0.0849 
     68 H68        16.9474  -28.9710  -46.3915 H         1 UNK         0.0849 
     69 H69        14.3224  -28.9464  -43.6984 H         1 UNK         0.0865 
     70 H70        15.0760  -29.8570  -44.9738 H         1 UNK         0.0865 
     71 H71        17.2504  -30.8412  -44.6275 H         1 UNK         0.1346 
     72 H72        19.1736  -30.3830  -40.8320 H         1 UNK         0.1412 
     73 H73        15.7654  -27.9666  -41.8087 H         1 UNK         0.1426 
     74 H74        18.3815  -28.8678  -39.2032 H         1 UNK         0.0716 
     75 H75        16.6438  -28.7345  -39.2580 H         1 UNK         0.0716 
     76 H76        19.6359  -25.2859  -39.7907 H         1 UNK         0.0695 
     77 H77        20.0013  -26.8902  -39.2249 H         1 UNK         0.0695 
     78 H78        20.1199  -27.7757  -41.4748 H         1 UNK         0.0983 
     79 H79        18.6577  -27.0834  -42.9045 H         1 UNK         0.3095 
     80 H80        17.0401  -25.8964  -43.7245 H         1 UNK         0.0454 
     81 H81        17.1921  -22.8522  -43.6203 H         1 UNK         0.0851 
     82 H82        16.3531  -23.8830  -42.4697 H         1 UNK         0.0851 
     83 H83        15.8107  -23.8181  -44.1380 H         1 UNK         0.0851 
     84 H84        18.2495  -23.8862  -45.5068 H         1 UNK         0.2976 
     85 H85        21.3066  -26.0415  -43.5688 H         1 UNK         0.3116 
     86 H86        23.4865  -24.5326  -42.3744 H         1 UNK         0.0646 
     87 H87        22.9438  -25.3647  -45.2788 H         1 UNK         0.0847 
     88 H88        24.1622  -24.2086  -44.7570 H         1 UNK         0.0847 
     89 H89        22.4591  -23.8435  -44.5311 H         1 UNK         0.0847 
     90 H90        23.0638  -27.7472  -43.7965 H         1 UNK         0.3040 
     91 H91        25.9119  -28.4502  -43.6902 H         1 UNK         0.1015 
     92 H92        23.4071  -30.0611  -44.3631 H         1 UNK         0.0786 
     93 H93        25.0668  -30.6410  -44.5335 H         1 UNK         0.0786 
     94 H94        24.5020  -29.3030  -45.5178 H         1 UNK         0.0786 
     95 H95        25.6511  -27.6485  -41.3374 H         1 UNK         0.3172 
     96 H96        25.8799  -27.9761  -39.1518 H         1 UNK         0.0595 
     97 H97        26.5233  -30.8847  -39.8821 H         1 UNK         0.0839 
     98 H98        27.0175  -30.0465  -38.4187 H         1 UNK         0.0839 
     99 H99        27.6664  -29.5449  -39.9689 H         1 UNK         0.0839 
    100 H100       23.1829  -28.4216  -40.2526 H         1 UNK         0.2998 
    101 H101       21.1260  -29.0967  -39.8281 H         1 UNK         0.0822 
    102 H102       21.5342  -27.9766  -37.6063 H         1 UNK         0.0787 
    103 H103       20.3450  -29.2645  -37.5083 H         1 UNK         0.0787 
    104 H104       21.9773  -29.5384  -36.9212 H         1 UNK         0.0787 
    105 H105       23.2715  -31.1913  -40.4669 H         1 UNK         0.3055 
    106 H106       21.8371  -33.6663  -39.5598 H         1 UNK         0.1106 
    107 H107       24.0624  -34.7598  -39.8106 H         1 UNK         0.0828 
    108 H108       24.7901  -33.2226  -40.2660 H         1 UNK         0.0828 
    109 H109       24.1365  -33.4465  -38.6464 H         1 UNK         0.0828 
    110 H110       23.4892  -32.0598  -42.3145 H         1 UNK         0.2931 
    111 H111       23.4266  -32.3271  -44.4938 H         1 UNK         0.0412 
    112 H112       24.8883  -35.8330  -44.0814 H         1 UNK         0.3472 
    113 H113       24.6987  -34.5845  -42.8750 H         1 UNK         0.3472 
    114 H114       21.3926  -33.0078  -45.6850 H         1 UNK         0.0970 
    115 H115       20.7420  -33.7459  -44.2517 H         1 UNK         0.0970 
    116 H116       19.6714  -32.3009  -42.2083 H         1 UNK         0.0612 
    117 H117       18.6992  -32.6430  -43.6198 H         1 UNK         0.0612 
@<TRIPOS>BOND
     1    1    2 1    
     2    1   62 1    
     3    1   63 1    
     4    1   64 1    
     5    2    3 2    
     6    2    4 am   BACKBONE|DICT|INTERRES
     7    4    5 1    
     8    4   65 1    
     9    5    6 1    
    10    5   25 1    
    11    5   66 1    
    12    6    7 1    
    13    6   67 1    
    14    6   68 1    
    15    7    8 1    
    16    8    9 1    
    17    8   69 1    
    18    8   70 1    
    19    9   10 ar   
    20    9   14 ar   
    21   10   11 ar   
    22   10   71 1    
    23   11   12 ar   
    24   11   61 1    
    25   12   13 ar   
    26   12   72 1    
    27   13   14 ar   
    28   13   15 1    
    29   14   73 1    
    30   15   16 1    
    31   15   74 1    
    32   15   75 1    
    33   16   17 1    
    34   17   18 1    
    35   17   76 1    
    36   17   77 1    
    37   18   19 1    
    38   18   27 1    
    39   18   78 1    
    40   19   20 am   BACKBONE|DICT|INTERRES
    41   19   79 1    
    42   20   21 2    
    43   20   22 1    
    44   22   23 1    
    45   22   24 1    
    46   22   80 1    
    47   23   81 1    
    48   23   82 1    
    49   23   83 1    
    50   24   25 am   BACKBONE|DICT|INTERRES
    51   24   84 1    
    52   25   26 2    
    53   27   28 2    
    54   27   29 am   BACKBONE|DICT|INTERRES
    55   29   30 1    
    56   29   85 1    
    57   30   31 1    
    58   30   32 1    
    59   30   86 1    
    60   31   87 1    
    61   31   88 1    
    62   31   89 1    
    63   32   33 2    
    64   32   34 am   BACKBONE|DICT|INTERRES
    65   34   35 1    
    66   34   90 1    
    67   35   36 1    
    68   35   37 1    
    69   35   91 1    
    70   36   92 1    
    71   36   93 1    
    72   36   94 1    
    73   37   38 2    
    74   37   39 am   BACKBONE|DICT|INTERRES
    75   39   40 1    
    76   39   95 1    
    77   40   41 1    
    78   40   42 1    
    79   40   96 1    
    80   41   97 1    
    81   41   98 1    
    82   41   99 1    
    83   42   43 2    
    84   42   44 am   BACKBONE|DICT|INTERRES
    85   44   45 1    
    86   44  100 1    
    87   45   46 1    
    88   45   47 1    
    89   45  101 1    
    90   46  102 1    
    91   46  103 1    
    92   46  104 1    
    93   47   48 2    
    94   47   49 am   BACKBONE|DICT|INTERRES
    95   49   50 1    
    96   49  105 1    
    97   50   51 1    
    98   50   52 1    
    99   50  106 1    
   100   51  107 1    
   101   51  108 1    
   102   51  109 1    
   103   52   53 2    
   104   52   54 am   BACKBONE|DICT|INTERRES
   105   54   55 1    
   106   54  110 1    
   107   55   56 1    
   108   55   59 1    
   109   55  111 1    
   110   56   57 am   BACKBONE|DICT|INTERRES
   111   56   58 2    
   112   57  112 1    
   113   57  113 1    
   114   59   60 1    
   115   59  114 1    
   116   59  115 1    
   117   60   61 1    
   118   61  116 1    
   119   61  117 1    
@<TRIPOS>SUBSTRUCTURE
     1 UNK         1 GROUP             0       ****    0 ROOT    
