@<TRIPOS>MOLECULE
3R8
117   119    1
SMALL
USER_CHARGES


@<TRIPOS>ATOM
      1 CA         13.1577  -29.2946  -40.4262 C.3       0 UNK        -0.2013 
      2 C          14.1673  -28.4927  -41.2341 C.2       0 UNK         0.4866 
      3 O          14.4640  -27.3507  -40.8820 O.2       0 UNK        -0.5176 
      4 N          14.6900  -29.0781  -42.3192 N.am      1 UNK        -0.4884 
      5 CA         15.7204  -28.4786  -43.1710 C.3       1 UNK         0.0853 
      6 C6         15.7656  -29.1699  -44.5533 C.3       10 UNK        -0.0849 
      7 S7         16.5544  -28.1127  -45.8124 S.3       10 UNK        -0.2776 
      8 C8         17.3893  -29.3452  -46.8615 C.3       10 UNK         0.0316 
      9 C9         18.4863  -30.1062  -46.1273 C.ar      10 UNK        -0.0863 
     10 C10        18.4192  -31.4975  -46.0107 C.ar      10 UNK        -0.1009 
     11 C11        19.4429  -32.2071  -45.3767 C.ar      10 UNK        -0.0712 
     12 C12        20.5429  -31.5144  -44.8627 C.ar      10 UNK        -0.0894 
     13 C13        20.6251  -30.1228  -44.9686 C.ar      10 UNK        -0.0745 
     14 C14        19.5843  -29.4250  -45.5940 C.ar      10 UNK        -0.0972 
     15 C15        21.8246  -29.3979  -44.3656 C.3       10 UNK         0.0209 
     16 S16        22.3656  -27.9408  -45.3236 S.3       10 UNK        -0.2568 
     17 C17        23.3071  -27.0357  -44.0552 C.3       10 UNK        -0.0983 
     18 CA         22.4713  -25.9351  -43.3530 C.3       3 UNK         0.0876 
     19 N          21.3754  -26.5068  -42.5716 N.am      3 UNK        -0.4424 
     20 C          20.0773  -26.4500  -42.8811 C.2       2 UNK         0.4918 
     21 O          19.6171  -25.8511  -43.8565 O.2       2 UNK        -0.4875 
     22 CA         19.1382  -27.1985  -41.9282 C.3       2 UNK         0.0481 
     23 CB         18.9373  -26.4249  -40.6135 C.3       2 UNK        -0.1831 
     24 N          17.8431  -27.4092  -42.5680 N.am      2 UNK        -0.4498 
     25 C          17.0890  -28.5083  -42.4584 C.2       1 UNK         0.5027 
     26 O          17.4244  -29.5188  -41.8320 O.2       1 UNK        -0.4969 
     27 C          23.3662  -25.1278  -42.3986 C.2       3 UNK         0.5005 
     28 O          23.3680  -25.3825  -41.1907 O.2       3 UNK        -0.5279 
     29 N          24.1352  -24.1862  -42.9602 N.am      4 UNK        -0.4463 
     30 CA         25.0777  -23.3434  -42.2182 C.3       4 UNK         0.0283 
     31 CB         25.3811  -22.0812  -43.0426 C.3       4 UNK        -0.1875 
     32 C          26.3887  -24.0610  -41.8462 C.2       4 UNK         0.4949 
     33 O          27.0510  -23.6333  -40.9003 O.2       4 UNK        -0.5039 
     34 N          26.7571  -25.1095  -42.5958 N.am      5 UNK        -0.4663 
     35 CA         28.0298  -25.8240  -42.4553 C.3       5 UNK         0.0242 
     36 CB         29.1018  -25.1457  -43.3333 C.3       5 UNK        -0.1982 
     37 C          27.8830  -27.3283  -42.7436 C.2       5 UNK         0.5017 
     38 O          28.8112  -27.9412  -43.2741 O.2       5 UNK        -0.5012 
     39 N          26.7311  -27.9062  -42.3855 N.am      6 UNK        -0.4439 
     40 CA         26.4412  -29.3372  -42.4649 C.3       6 UNK         0.0297 
     41 CB         26.0655  -29.7419  -43.9045 C.3       6 UNK        -0.2006 
     42 C          25.3240  -29.6661  -41.4678 C.2       6 UNK         0.4892 
     43 O          24.6366  -28.7536  -41.0011 O.2       6 UNK        -0.5089 
     44 N          25.1730  -30.9583  -41.1515 N.am      7 UNK        -0.4243 
     45 CA         24.1457  -31.4753  -40.2449 C.3       7 UNK         0.0196 
     46 CB         24.4438  -32.9495  -39.9262 C.3       7 UNK        -0.2007 
     47 C          22.7358  -31.3274  -40.8394 C.2       7 UNK         0.5020 
     48 O          22.5445  -31.5949  -42.0265 O.2       7 UNK        -0.5147 
     49 N          21.7806  -30.9181  -39.9984 N.am      8 UNK        -0.4734 
     50 CA         20.3728  -30.7489  -40.3595 C.3       8 UNK         0.0238 
     51 CB         19.6976  -29.8753  -39.2876 C.3       8 UNK        -0.1912 
     52 C          19.6422  -32.0938  -40.4979 C.2       8 UNK         0.5038 
     53 O          20.0176  -33.0639  -39.8332 O.2       8 UNK        -0.5046 
     54 N          18.5884  -32.1001  -41.3203 N.am      9 UNK        -0.4200 
     55 CA         17.6832  -33.2415  -41.5306 C.3       9 UNK         0.0839 
     56 C          16.2439  -32.9733  -41.0104 C.2       9 UNK         0.5513 
     57 N          15.8786  -31.7519  -40.6396 N.am      9 UNK        -0.7519 
     58 O          15.4455  -33.9019  -40.9174 O.2       9 UNK        -0.4960 
     59 C59        17.6651  -33.7060  -43.0103 C.3       10 UNK        -0.0876 
     60 S60        19.2968  -34.3169  -43.5562 S.3       10 UNK        -0.2414 
     61 C61        19.3751  -33.7251  -45.2763 C.3       10 UNK         0.0169 
     62 H62        13.5428  -29.4808  -39.4240 H         1 UNK         0.0903 
     63 H63        12.9329  -30.2547  -40.8903 H         1 UNK         0.0903 
     64 H64        12.2251  -28.7385  -40.3344 H         1 UNK         0.0903 
     65 H65        14.4391  -30.0314  -42.5390 H         1 UNK         0.3096 
     66 H66        15.4362  -27.4340  -43.3218 H         1 UNK         0.1121 
     67 H67        14.7529  -29.3740  -44.9049 H         1 UNK         0.0849 
     68 H68        16.2606  -30.1407  -44.4886 H         1 UNK         0.0849 
     69 H69        16.6416  -30.0288  -47.2668 H         1 UNK         0.0865 
     70 H70        17.8305  -28.8348  -47.7187 H         1 UNK         0.0865 
     71 H71        17.5739  -32.0312  -46.4235 H         1 UNK         0.1346 
     72 H72        21.3331  -32.0643  -44.3691 H         1 UNK         0.1412 
     73 H73        19.6241  -28.3469  -45.6718 H         1 UNK         0.1426 
     74 H74        22.6747  -30.0765  -44.2811 H         1 UNK         0.0716 
     75 H75        21.5648  -29.1063  -43.3488 H         1 UNK         0.0716 
     76 H76        23.6954  -27.7424  -43.3213 H         1 UNK         0.0695 
     77 H77        24.1774  -26.6048  -44.5536 H         1 UNK         0.0695 
     78 H78        22.0765  -25.2457  -44.1029 H         1 UNK         0.0983 
     79 H79        21.6666  -26.9231  -41.6973 H         1 UNK         0.3095 
     80 H80        19.5997  -28.1606  -41.7113 H         1 UNK         0.0454 
     81 H81        18.4935  -25.4442  -40.7886 H         1 UNK         0.0851 
     82 H82        18.2838  -26.9689  -39.9313 H         1 UNK         0.0851 
     83 H83        19.8844  -26.2677  -40.0960 H         1 UNK         0.0851 
     84 H84        17.5534  -26.6637  -43.1881 H         1 UNK         0.2976 
     85 H85        24.0760  -24.0305  -43.9573 H         1 UNK         0.3116 
     86 H86        24.6022  -23.0291  -41.2862 H         1 UNK         0.0646 
     87 H87        26.0554  -21.4153  -42.5020 H         1 UNK         0.0847 
     88 H88        24.4733  -21.5156  -43.2536 H         1 UNK         0.0847 
     89 H89        25.8574  -22.3223  -43.9937 H         1 UNK         0.0847 
     90 H90        26.1573  -25.4029  -43.3538 H         1 UNK         0.3040 
     91 H91        28.3621  -25.7648  -41.4162 H         1 UNK         0.1015 
     92 H92        29.2232  -24.0944  -43.0716 H         1 UNK         0.0786 
     93 H93        28.8453  -25.2002  -44.3919 H         1 UNK         0.0786 
     94 H94        30.0759  -25.6200  -43.2061 H         1 UNK         0.0786 
     95 H95        26.0291  -27.3701  -41.8875 H         1 UNK         0.3172 
     96 H96        27.3300  -29.8926  -42.1573 H         1 UNK         0.0595 
     97 H97        25.8237  -30.8035  -43.9660 H         1 UNK         0.0839 
     98 H98        26.8898  -29.5624  -44.5947 H         1 UNK         0.0839 
     99 H99        25.2011  -29.1930  -44.2737 H         1 UNK         0.0839 
    100 H100       25.7593  -31.6435  -41.6055 H         1 UNK         0.2998 
    101 H101       24.2010  -30.9027  -39.3162 H         1 UNK         0.0822 
    102 H102       24.4227  -33.5681  -40.8246 H         1 UNK         0.0787 
    103 H103       25.4216  -33.0666  -39.4586 H         1 UNK         0.0787 
    104 H104       23.7036  -33.3558  -39.2352 H         1 UNK         0.0787 
    105 H105       22.0166  -30.7682  -39.0282 H         1 UNK         0.3055 
    106 H106       20.3274  -30.2431  -41.3255 H         1 UNK         0.1106 
    107 H107       19.7310  -30.3469  -38.3047 H         1 UNK         0.0828 
    108 H108       20.1784  -28.9005  -39.2081 H         1 UNK         0.0828 
    109 H109       18.6478  -29.6979  -39.5219 H         1 UNK         0.0828 
    110 H110       18.3048  -31.2289  -41.7588 H         1 UNK         0.2931 
    111 H111       18.0335  -34.0885  -40.9378 H         1 UNK         0.0412 
    112 H112       16.4991  -30.9617  -40.7672 H         1 UNK         0.3472 
    113 H113       14.9547  -31.6168  -40.2646 H         1 UNK         0.3472 
    114 H114       17.3333  -32.8905  -43.6546 H         1 UNK         0.0970 
    115 H115       16.9492  -34.5176  -43.1536 H         1 UNK         0.0970 
    116 H116       18.5169  -34.1171  -45.8244 H         1 UNK         0.0612 
    117 H117       20.2611  -34.1489  -45.7507 H         1 UNK         0.0612 
@<TRIPOS>BOND
     1    1    2 1    
     2    1   62 1    
     3    1   63 1    
     4    1   64 1    
     5    2    3 2    
     6    2    4 am   BACKBONE|DICT|INTERRES
     7    4    5 1    
     8    4   65 1    
     9    5    6 1    
    10    5   25 1    
    11    5   66 1    
    12    6    7 1    
    13    6   67 1    
    14    6   68 1    
    15    7    8 1    
    16    8    9 1    
    17    8   69 1    
    18    8   70 1    
    19    9   10 ar   
    20    9   14 ar   
    21   10   11 ar   
    22   10   71 1    
    23   11   12 ar   
    24   11   61 1    
    25   12   13 ar   
    26   12   72 1    
    27   13   14 ar   
    28   13   15 1    
    29   14   73 1    
    30   15   16 1    
    31   15   74 1    
    32   15   75 1    
    33   16   17 1    
    34   17   18 1    
    35   17   76 1    
    36   17   77 1    
    37   18   19 1    
    38   18   27 1    
    39   18   78 1    
    40   19   20 am   BACKBONE|DICT|INTERRES
    41   19   79 1    
    42   20   21 2    
    43   20   22 1    
    44   22   23 1    
    45   22   24 1    
    46   22   80 1    
    47   23   81 1    
    48   23   82 1    
    49   23   83 1    
    50   24   25 am   BACKBONE|DICT|INTERRES
    51   24   84 1    
    52   25   26 2    
    53   27   28 2    
    54   27   29 am   BACKBONE|DICT|INTERRES
    55   29   30 1    
    56   29   85 1    
    57   30   31 1    
    58   30   32 1    
    59   30   86 1    
    60   31   87 1    
    61   31   88 1    
    62   31   89 1    
    63   32   33 2    
    64   32   34 am   BACKBONE|DICT|INTERRES
    65   34   35 1    
    66   34   90 1    
    67   35   36 1    
    68   35   37 1    
    69   35   91 1    
    70   36   92 1    
    71   36   93 1    
    72   36   94 1    
    73   37   38 2    
    74   37   39 am   BACKBONE|DICT|INTERRES
    75   39   40 1    
    76   39   95 1    
    77   40   41 1    
    78   40   42 1    
    79   40   96 1    
    80   41   97 1    
    81   41   98 1    
    82   41   99 1    
    83   42   43 2    
    84   42   44 am   BACKBONE|DICT|INTERRES
    85   44   45 1    
    86   44  100 1    
    87   45   46 1    
    88   45   47 1    
    89   45  101 1    
    90   46  102 1    
    91   46  103 1    
    92   46  104 1    
    93   47   48 2    
    94   47   49 am   BACKBONE|DICT|INTERRES
    95   49   50 1    
    96   49  105 1    
    97   50   51 1    
    98   50   52 1    
    99   50  106 1    
   100   51  107 1    
   101   51  108 1    
   102   51  109 1    
   103   52   53 2    
   104   52   54 am   BACKBONE|DICT|INTERRES
   105   54   55 1    
   106   54  110 1    
   107   55   56 1    
   108   55   59 1    
   109   55  111 1    
   110   56   57 am   BACKBONE|DICT|INTERRES
   111   56   58 2    
   112   57  112 1    
   113   57  113 1    
   114   59   60 1    
   115   59  114 1    
   116   59  115 1    
   117   60   61 1    
   118   61  116 1    
   119   61  117 1    
@<TRIPOS>SUBSTRUCTURE
     1 UNK         1 GROUP             0       ****    0 ROOT    
