@<TRIPOS>MOLECULE
3R8
117   119    1
SMALL
USER_CHARGES


@<TRIPOS>ATOM
      1 CA         16.7360  -23.0149  -44.0096 C.3       0 UNK        -0.2013 
      2 C          15.4236  -23.7888  -44.1047 C.2       0 UNK         0.4866 
      3 O          14.4618  -23.4301  -43.4287 O.2       0 UNK        -0.5176 
      4 N          15.3240  -24.8474  -44.9219 N.am      1 UNK        -0.4884 
      5 CA         16.3820  -25.4349  -45.7581 C.3       1 UNK         0.0853 
      6 C6         15.7886  -26.3600  -46.8519 C.3       10 UNK        -0.0849 
      7 S7         14.8121  -27.7642  -46.1952 S.3       10 UNK        -0.2776 
      8 C8         15.5885  -29.1959  -47.0131 C.3       10 UNK         0.0316 
      9 C9         16.8462  -29.6960  -46.3086 C.ar      10 UNK        -0.0863 
     10 C10        16.7375  -30.5332  -45.1931 C.ar      10 UNK        -0.1009 
     11 C11        17.8762  -31.1072  -44.6175 C.ar      10 UNK        -0.0712 
     12 C12        19.1340  -30.8327  -45.1631 C.ar      10 UNK        -0.0894 
     13 C13        19.2617  -29.9752  -46.2601 C.ar      10 UNK        -0.0745 
     14 C14        18.1142  -29.4056  -46.8242 C.ar      10 UNK        -0.0972 
     15 C15        20.6278  -29.7257  -46.8880 C.3       10 UNK         0.0209 
     16 S16        21.4493  -28.2384  -46.2306 S.3       10 UNK        -0.2568 
     17 C17        22.1195  -28.8316  -44.6400 C.3       10 UNK        -0.0983 
     18 CA         21.5876  -28.0378  -43.4197 C.3       3 UNK         0.0876 
     19 N          20.1213  -28.0762  -43.3689 N.am      3 UNK        -0.4424 
     20 C          19.3100  -27.2491  -42.7016 C.2       2 UNK         0.4918 
     21 O          19.7015  -26.3290  -41.9813 O.2       2 UNK        -0.4875 
     22 CA         17.8065  -27.5350  -42.8397 C.3       2 UNK         0.0481 
     23 CB         17.1167  -27.5244  -41.4647 C.3       2 UNK        -0.1831 
     24 N          17.0875  -26.6291  -43.7364 N.am      2 UNK        -0.4498 
     25 C          17.4587  -26.1839  -44.9478 C.2       1 UNK         0.5027 
     26 O          18.5666  -26.3470  -45.4547 O.2       1 UNK        -0.4969 
     27 C          22.2528  -28.4982  -42.0961 C.2       3 UNK         0.5005 
     28 O          23.2338  -29.2472  -42.1160 O.2       3 UNK        -0.5279 
     29 N          21.7161  -28.0511  -40.9530 N.am      4 UNK        -0.4463 
     30 CA         22.1904  -28.3785  -39.6060 C.3       4 UNK         0.0283 
     31 CB         21.1643  -27.8970  -38.5699 C.3       4 UNK        -0.1875 
     32 C          23.5846  -27.8059  -39.3060 C.2       4 UNK         0.4949 
     33 O          24.3541  -28.4406  -38.5870 O.2       4 UNK        -0.5039 
     34 N          23.9130  -26.6558  -39.9129 N.am      5 UNK        -0.4663 
     35 CA         25.2346  -26.0206  -39.8490 C.3       5 UNK         0.0242 
     36 CB         25.1500  -24.6181  -40.4723 C.3       5 UNK        -0.1982 
     37 C          26.3474  -26.8443  -40.5259 C.2       5 UNK         0.5017 
     38 O          27.5102  -26.7108  -40.1450 O.2       5 UNK        -0.5012 
     39 N          25.9695  -27.6913  -41.4936 N.am      6 UNK        -0.4439 
     40 CA         26.8474  -28.6512  -42.1664 C.3       6 UNK         0.0297 
     41 CB         26.4218  -28.7532  -43.6420 C.3       6 UNK        -0.2006 
     42 C          26.8162  -30.0405  -41.4989 C.2       6 UNK         0.4892 
     43 O          27.4808  -30.9499  -41.9967 O.2       6 UNK        -0.5089 
     44 N          26.0305  -30.1929  -40.4187 N.am      7 UNK        -0.4243 
     45 CA         25.7211  -31.4356  -39.6999 C.3       7 UNK         0.0196 
     46 CB         26.9835  -32.0260  -39.0361 C.3       7 UNK        -0.2007 
     47 C          24.9572  -32.4656  -40.5580 C.2       7 UNK         0.5020 
     48 O          25.0087  -33.6606  -40.2646 O.2       7 UNK        -0.5147 
     49 N          24.2441  -31.9906  -41.5884 N.am      8 UNK        -0.4734 
     50 CA         23.4767  -32.8097  -42.5313 C.3       8 UNK         0.0238 
     51 CB         23.8049  -32.3428  -43.9602 C.3       8 UNK        -0.1912 
     52 C          21.9632  -32.7674  -42.2522 C.2       8 UNK         0.5038 
     53 O          21.1992  -33.3808  -42.9976 O.2       8 UNK        -0.5046 
     54 N          21.5548  -32.0553  -41.1957 N.am      9 UNK        -0.4200 
     55 CA         20.1667  -31.9150  -40.7344 C.3       9 UNK         0.0839 
     56 C          20.0698  -31.7442  -39.1904 C.2       9 UNK         0.5513 
     57 N          21.0682  -32.1653  -38.4215 N.am      9 UNK        -0.7519 
     58 O          19.0860  -31.2229  -38.6737 O.2       9 UNK        -0.4960 
     59 C59        19.4065  -30.8253  -41.5411 C.3       10 UNK        -0.0876 
     60 S60        17.6553  -31.2373  -41.8395 S.3       10 UNK        -0.2414 
     61 C61        17.7368  -32.0787  -43.4522 C.3       10 UNK         0.0169 
     62 H62        17.5083  -23.6134  -43.5273 H         1 UNK         0.0903 
     63 H63        17.0882  -22.7060  -44.9929 H         1 UNK         0.0903 
     64 H64        16.6008  -22.1119  -43.4146 H         1 UNK         0.0903 
     65 H65        14.4389  -25.3340  -44.9694 H         1 UNK         0.3096 
     66 H66        16.8943  -24.6219  -46.2762 H         1 UNK         0.1121 
     67 H67        15.1354  -25.7777  -47.5037 H         1 UNK         0.0849 
     68 H68        16.5835  -26.7316  -47.5017 H         1 UNK         0.0849 
     69 H69        14.8587  -30.0065  -47.0436 H         1 UNK         0.0865 
     70 H70        15.7988  -28.9553  -48.0564 H         1 UNK         0.0865 
     71 H71        15.7601  -30.7676  -44.7933 H         1 UNK         0.1346 
     72 H72        20.0112  -31.3121  -44.7502 H         1 UNK         0.1412 
     73 H73        18.2087  -28.7649  -47.6904 H         1 UNK         0.1426 
     74 H74        21.2759  -30.5936  -46.7559 H         1 UNK         0.0716 
     75 H75        20.5126  -29.6044  -47.9661 H         1 UNK         0.0716 
     76 H76        21.8939  -29.8912  -44.5239 H         1 UNK         0.0695 
     77 H77        23.2061  -28.7543  -44.7041 H         1 UNK         0.0695 
     78 H78        21.8808  -26.9946  -43.5549 H         1 UNK         0.0983 
     79 H79        19.6913  -28.7448  -43.9933 H         1 UNK         0.3095 
     80 H80        17.6903  -28.5357  -43.2565 H         1 UNK         0.0454 
     81 H81        16.0879  -27.8779  -41.5340 H         1 UNK         0.0851 
     82 H82        17.6313  -28.1785  -40.7598 H         1 UNK         0.0851 
     83 H83        17.1014  -26.5249  -41.0283 H         1 UNK         0.0851 
     84 H84        16.1434  -26.4044  -43.4578 H         1 UNK         0.2976 
     85 H85        20.9382  -27.4002  -41.0294 H         1 UNK         0.3116 
     86 H86        22.2627  -29.4651  -39.5314 H         1 UNK         0.0646 
     87 H87        21.4857  -28.1474  -37.5579 H         1 UNK         0.0847 
     88 H88        20.1936  -28.3691  -38.7241 H         1 UNK         0.0847 
     89 H89        21.0232  -26.8163  -38.6104 H         1 UNK         0.0847 
     90 H90        23.2128  -26.1978  -40.4786 H         1 UNK         0.3040 
     91 H91        25.5059  -25.9147  -38.7960 H         1 UNK         0.1015 
     92 H92        24.4242  -23.9943  -39.9501 H         1 UNK         0.0786 
     93 H93        24.8647  -24.6589  -41.5243 H         1 UNK         0.0786 
     94 H94        26.1124  -24.1073  -40.4155 H         1 UNK         0.0786 
     95 H95        24.9852  -27.7582  -41.7178 H         1 UNK         0.3172 
     96 H96        27.8790  -28.2951  -42.1344 H         1 UNK         0.0595 
     97 H97        25.4229  -29.1773  -43.7457 H         1 UNK         0.0839 
     98 H98        27.1039  -29.3939  -44.2025 H         1 UNK         0.0839 
     99 H99        26.4261  -27.7771  -44.1272 H         1 UNK         0.0839 
    100 H100       25.5465  -29.3747  -40.0678 H         1 UNK         0.2998 
    101 H101       25.0359  -31.1528  -38.8994 H         1 UNK         0.0822 
    102 H102       27.5016  -31.2786  -38.4352 H         1 UNK         0.0787 
    103 H103       26.7264  -32.8517  -38.3715 H         1 UNK         0.0787 
    104 H104       27.6878  -32.4122  -39.7734 H         1 UNK         0.0787 
    105 H105       24.2110  -30.9868  -41.7457 H         1 UNK         0.3055 
    106 H106       23.7718  -33.8581  -42.4490 H         1 UNK         0.1106 
    107 H107       23.2027  -32.8672  -44.7034 H         1 UNK         0.0828 
    108 H108       23.6325  -31.2757  -44.0855 H         1 UNK         0.0828 
    109 H109       24.8508  -32.5343  -44.2008 H         1 UNK         0.0828 
    110 H110       22.2524  -31.5749  -40.6474 H         1 UNK         0.2931 
    111 H111       19.6825  -32.8751  -40.9229 H         1 UNK         0.0412 
    112 H112       20.9922  -32.0492  -37.4229 H         1 UNK         0.3472 
    113 H113       21.8468  -32.6750  -38.8063 H         1 UNK         0.3472 
    114 H114       19.8836  -30.6695  -42.5057 H         1 UNK         0.0970 
    115 H115       19.4591  -29.8612  -41.0344 H         1 UNK         0.0970 
    116 H116       18.5587  -32.7959  -43.4481 H         1 UNK         0.0612 
    117 H117       16.8271  -32.6673  -43.5798 H         1 UNK         0.0612 
@<TRIPOS>BOND
     1    1    2 1    
     2    1   62 1    
     3    1   63 1    
     4    1   64 1    
     5    2    3 2    
     6    2    4 am   BACKBONE|DICT|INTERRES
     7    4    5 1    
     8    4   65 1    
     9    5    6 1    
    10    5   25 1    
    11    5   66 1    
    12    6    7 1    
    13    6   67 1    
    14    6   68 1    
    15    7    8 1    
    16    8    9 1    
    17    8   69 1    
    18    8   70 1    
    19    9   10 ar   
    20    9   14 ar   
    21   10   11 ar   
    22   10   71 1    
    23   11   12 ar   
    24   11   61 1    
    25   12   13 ar   
    26   12   72 1    
    27   13   14 ar   
    28   13   15 1    
    29   14   73 1    
    30   15   16 1    
    31   15   74 1    
    32   15   75 1    
    33   16   17 1    
    34   17   18 1    
    35   17   76 1    
    36   17   77 1    
    37   18   19 1    
    38   18   27 1    
    39   18   78 1    
    40   19   20 am   BACKBONE|DICT|INTERRES
    41   19   79 1    
    42   20   21 2    
    43   20   22 1    
    44   22   23 1    
    45   22   24 1    
    46   22   80 1    
    47   23   81 1    
    48   23   82 1    
    49   23   83 1    
    50   24   25 am   BACKBONE|DICT|INTERRES
    51   24   84 1    
    52   25   26 2    
    53   27   28 2    
    54   27   29 am   BACKBONE|DICT|INTERRES
    55   29   30 1    
    56   29   85 1    
    57   30   31 1    
    58   30   32 1    
    59   30   86 1    
    60   31   87 1    
    61   31   88 1    
    62   31   89 1    
    63   32   33 2    
    64   32   34 am   BACKBONE|DICT|INTERRES
    65   34   35 1    
    66   34   90 1    
    67   35   36 1    
    68   35   37 1    
    69   35   91 1    
    70   36   92 1    
    71   36   93 1    
    72   36   94 1    
    73   37   38 2    
    74   37   39 am   BACKBONE|DICT|INTERRES
    75   39   40 1    
    76   39   95 1    
    77   40   41 1    
    78   40   42 1    
    79   40   96 1    
    80   41   97 1    
    81   41   98 1    
    82   41   99 1    
    83   42   43 2    
    84   42   44 am   BACKBONE|DICT|INTERRES
    85   44   45 1    
    86   44  100 1    
    87   45   46 1    
    88   45   47 1    
    89   45  101 1    
    90   46  102 1    
    91   46  103 1    
    92   46  104 1    
    93   47   48 2    
    94   47   49 am   BACKBONE|DICT|INTERRES
    95   49   50 1    
    96   49  105 1    
    97   50   51 1    
    98   50   52 1    
    99   50  106 1    
   100   51  107 1    
   101   51  108 1    
   102   51  109 1    
   103   52   53 2    
   104   52   54 am   BACKBONE|DICT|INTERRES
   105   54   55 1    
   106   54  110 1    
   107   55   56 1    
   108   55   59 1    
   109   55  111 1    
   110   56   57 am   BACKBONE|DICT|INTERRES
   111   56   58 2    
   112   57  112 1    
   113   57  113 1    
   114   59   60 1    
   115   59  114 1    
   116   59  115 1    
   117   60   61 1    
   118   61  116 1    
   119   61  117 1    
@<TRIPOS>SUBSTRUCTURE
     1 UNK         1 GROUP             0       ****    0 ROOT    
