@<TRIPOS>MOLECULE
3R8
117   119    1
SMALL
USER_CHARGES


@<TRIPOS>ATOM
      1 CA         18.6779  -24.5162  -48.6802 C.3       0 UNK        -0.2013 
      2 C          17.5304  -24.9899  -47.7931 C.2       0 UNK         0.4866 
      3 O          16.3777  -24.9330  -48.2172 O.2       0 UNK        -0.5176 
      4 N          17.7811  -25.4598  -46.5659 N.am      1 UNK        -0.4884 
      5 CA         19.0694  -25.5153  -45.8708 C.3       1 UNK         0.0853 
      6 C6         19.6700  -26.9499  -45.8021 C.3       10 UNK        -0.0849 
      7 S7         19.8463  -27.8421  -47.3830 S.3       10 UNK        -0.2776 
      8 C8         18.2911  -28.7951  -47.4797 C.3       10 UNK         0.0316 
      9 C9         18.0718  -29.7270  -46.2922 C.ar      10 UNK        -0.0863 
     10 C10        18.7573  -30.9430  -46.2045 C.ar      10 UNK        -0.1009 
     11 C11        18.5167  -31.8193  -45.1398 C.ar      10 UNK        -0.0712 
     12 C12        17.5961  -31.4623  -44.1497 C.ar      10 UNK        -0.0894 
     13 C13        16.9182  -30.2426  -44.2162 C.ar      10 UNK        -0.0745 
     14 C14        17.1509  -29.3861  -45.2959 C.ar      10 UNK        -0.0972 
     15 C15        15.9030  -29.8664  -43.1465 C.3       10 UNK         0.0209 
     16 S16        16.4385  -28.4360  -42.1552 S.3       10 UNK        -0.2568 
     17 C17        17.7689  -29.1374  -41.1179 C.3       10 UNK        -0.0983 
     18 CA         19.1770  -28.6115  -41.4959 C.3       3 UNK         0.0876 
     19 N          19.2225  -27.1473  -41.5915 N.am      3 UNK        -0.4424 
     20 C          20.2646  -26.4330  -42.0341 C.2       2 UNK         0.4918 
     21 O          21.3534  -26.9146  -42.3578 O.2       2 UNK        -0.4875 
     22 CA         20.0014  -24.9364  -42.2687 C.3       2 UNK         0.0481 
     23 CB         21.0998  -24.0469  -41.6647 C.3       2 UNK        -0.1831 
     24 N          19.9330  -24.7480  -43.7167 N.am      2 UNK        -0.4498 
     25 C          18.8354  -25.0429  -44.4256 C.2       1 UNK         0.5027 
     26 O          17.6981  -25.0739  -43.9448 O.2       1 UNK        -0.4969 
     27 C          20.2386  -29.1624  -40.5243 C.2       3 UNK         0.5005 
     28 O          20.8817  -30.1677  -40.8253 O.2       3 UNK        -0.5279 
     29 N          20.4222  -28.4717  -39.3927 N.am      4 UNK        -0.4463 
     30 CA         21.4871  -28.7255  -38.4273 C.3       4 UNK         0.0283 
     31 CB         20.9937  -28.3359  -37.0247 C.3       4 UNK        -0.1875 
     32 C          22.7364  -27.9130  -38.7959 C.2       4 UNK         0.4949 
     33 O          22.6183  -26.8280  -39.3698 O.2       4 UNK        -0.5039 
     34 N          23.9062  -28.4427  -38.4186 N.am      5 UNK        -0.4663 
     35 CA         25.2551  -27.8728  -38.5489 C.3       5 UNK         0.0242 
     36 CB         25.3912  -26.5559  -37.7576 C.3       5 UNK        -0.1982 
     37 C          25.7628  -27.7084  -39.9927 C.2       5 UNK         0.5017 
     38 O          26.8372  -28.2242  -40.3009 O.2       5 UNK        -0.5012 
     39 N          25.0134  -26.9887  -40.8388 N.am      6 UNK        -0.4439 
     40 CA         25.3820  -26.7050  -42.2281 C.3       6 UNK         0.0297 
     41 CB         24.6182  -25.4806  -42.7539 C.3       6 UNK        -0.2006 
     42 C          25.1704  -27.9346  -43.1206 C.2       6 UNK         0.4892 
     43 O          26.1418  -28.4446  -43.6805 O.2       6 UNK        -0.5089 
     44 N          23.9179  -28.4066  -43.2154 N.am      7 UNK        -0.4243 
     45 CA         23.5894  -29.6654  -43.8923 C.3       7 UNK         0.0196 
     46 CB         22.1041  -29.6771  -44.2798 C.3       7 UNK        -0.2007 
     47 C          23.9458  -30.8899  -43.0309 C.2       7 UNK         0.5020 
     48 O          24.3056  -31.9288  -43.5845 O.2       7 UNK        -0.5147 
     49 N          23.8597  -30.7291  -41.6998 N.am      8 UNK        -0.4734 
     50 CA         24.1347  -31.7269  -40.6562 C.3       8 UNK         0.0238 
     51 CB         25.6372  -32.0766  -40.6172 C.3       8 UNK        -0.1912 
     52 C          23.2228  -32.9670  -40.7543 C.2       8 UNK         0.5038 
     53 O          23.6749  -34.0917  -40.5299 O.2       8 UNK        -0.5046 
     54 N          21.9514  -32.7251  -41.0878 N.am      9 UNK        -0.4200 
     55 CA         20.8951  -33.7326  -41.2445 C.3       9 UNK         0.0839 
     56 C          20.1675  -34.0840  -39.9157 C.2       9 UNK         0.5513 
     57 N          20.3975  -33.3719  -38.8186 N.am      9 UNK        -0.7519 
     58 O          19.3851  -35.0300  -39.8782 O.2       9 UNK        -0.4960 
     59 C59        19.8828  -33.3027  -42.3369 C.3       10 UNK        -0.0876 
     60 S60        20.6637  -33.1507  -43.9798 S.3       10 UNK        -0.2414 
     61 C61        19.2176  -33.1698  -45.0827 C.3       10 UNK         0.0169 
     62 H62        19.0586  -23.5565  -48.3320 H         1 UNK         0.0903 
     63 H63        19.4960  -25.2346  -48.6954 H         1 UNK         0.0903 
     64 H64        18.3372  -24.3879  -49.7074 H         1 UNK         0.0903 
     65 H65        17.0004  -25.6866  -45.9628 H         1 UNK         0.3096 
     66 H66        19.7877  -24.8341  -46.3298 H         1 UNK         0.1121 
     67 H67        20.6739  -26.8913  -45.3786 H         1 UNK         0.0849 
     68 H68        19.1136  -27.5750  -45.1036 H         1 UNK         0.0849 
     69 H69        18.3007  -29.3831  -48.3986 H         1 UNK         0.0865 
     70 H70        17.4536  -28.1038  -47.5804 H         1 UNK         0.0865 
     71 H71        19.4659  -31.2134  -46.9756 H         1 UNK         0.1346 
     72 H72        17.3969  -32.1421  -43.3334 H         1 UNK         0.1412 
     73 H73        16.6138  -28.4491  -45.3554 H         1 UNK         0.1426 
     74 H74        15.6936  -30.7086  -42.4851 H         1 UNK         0.0716 
     75 H75        14.9573  -29.6193  -43.6309 H         1 UNK         0.0716 
     76 H76        17.7428  -30.2269  -41.1826 H         1 UNK         0.0695 
     77 H77        17.5334  -28.8913  -40.0806 H         1 UNK         0.0695 
     78 H78        19.4150  -28.9999  -42.4883 H         1 UNK         0.0983 
     79 H79        18.3450  -26.6745  -41.4263 H         1 UNK         0.3095 
     80 H80        19.0544  -24.6571  -41.8013 H         1 UNK         0.0454 
     81 H81        21.2596  -24.2839  -40.6118 H         1 UNK         0.0851 
     82 H82        20.8257  -22.9937  -41.7233 H         1 UNK         0.0851 
     83 H83        22.0537  -24.1654  -42.1736 H         1 UNK         0.0851 
     84 H84        20.8249  -24.7551  -44.1914 H         1 UNK         0.2976 
     85 H85        19.9025  -27.6146  -39.2715 H         1 UNK         0.3116 
     86 H86        21.7362  -29.7890  -38.4262 H         1 UNK         0.0646 
     87 H87        20.1060  -28.9035  -36.7449 H         1 UNK         0.0847 
     88 H88        20.7471  -27.2750  -36.9620 H         1 UNK         0.0847 
     89 H89        21.7558  -28.5371  -36.2707 H         1 UNK         0.0847 
     90 H90        23.8775  -29.3365  -37.9473 H         1 UNK         0.3040 
     91 H91        25.9209  -28.5967  -38.0750 H         1 UNK         0.1015 
     92 H92        26.4183  -26.1896  -37.7870 H         1 UNK         0.0786 
     93 H93        25.1281  -26.6957  -36.7091 H         1 UNK         0.0786 
     94 H94        24.7560  -25.7655  -38.1587 H         1 UNK         0.0786 
     95 H95        24.1134  -26.6543  -40.4993 H         1 UNK         0.3172 
     96 H96        26.4452  -26.4550  -42.2499 H         1 UNK         0.0595 
     97 H97        24.9760  -25.1995  -43.7451 H         1 UNK         0.0839 
     98 H98        24.7513  -24.6162  -42.1033 H         1 UNK         0.0839 
     99 H99        23.5526  -25.6769  -42.8429 H         1 UNK         0.0839 
    100 H100       23.1556  -27.9073  -42.7671 H         1 UNK         0.2998 
    101 H101       24.1719  -29.7285  -44.8143 H         1 UNK         0.0822 
    102 H102       21.8572  -30.5746  -44.8472 H         1 UNK         0.0787 
    103 H103       21.8528  -28.8246  -44.9079 H         1 UNK         0.0787 
    104 H104       21.4573  -29.6566  -43.4047 H         1 UNK         0.0787 
    105 H105       23.5058  -29.8415  -41.3734 H         1 UNK         0.3055 
    106 H106       23.8857  -31.2532  -39.7061 H         1 UNK         0.1106 
    107 H107       26.2505  -31.1798  -40.5268 H         1 UNK         0.0828 
    108 H108       25.8692  -32.7147  -39.7637 H         1 UNK         0.0828 
    109 H109       25.9522  -32.6088  -41.5153 H         1 UNK         0.0828 
    110 H110       21.6506  -31.7572  -41.1899 H         1 UNK         0.2931 
    111 H111       21.3601  -34.6616  -41.5805 H         1 UNK         0.0412 
    112 H112       21.0260  -32.5859  -38.8466 H         1 UNK         0.3472 
    113 H113       19.9239  -33.6140  -37.9625 H         1 UNK         0.3472 
    114 H114       19.4284  -32.3464  -42.0727 H         1 UNK         0.0970 
    115 H115       19.0694  -34.0271  -42.4104 H         1 UNK         0.0970 
    116 H116       19.5520  -33.4561  -46.0809 H         1 UNK         0.0612 
    117 H117       18.5182  -33.9453  -44.7671 H         1 UNK         0.0612 
@<TRIPOS>BOND
     1    1    2 1    
     2    1   62 1    
     3    1   63 1    
     4    1   64 1    
     5    2    3 2    
     6    2    4 am   BACKBONE|DICT|INTERRES
     7    4    5 1    
     8    4   65 1    
     9    5    6 1    
    10    5   25 1    
    11    5   66 1    
    12    6    7 1    
    13    6   67 1    
    14    6   68 1    
    15    7    8 1    
    16    8    9 1    
    17    8   69 1    
    18    8   70 1    
    19    9   10 ar   
    20    9   14 ar   
    21   10   11 ar   
    22   10   71 1    
    23   11   12 ar   
    24   11   61 1    
    25   12   13 ar   
    26   12   72 1    
    27   13   14 ar   
    28   13   15 1    
    29   14   73 1    
    30   15   16 1    
    31   15   74 1    
    32   15   75 1    
    33   16   17 1    
    34   17   18 1    
    35   17   76 1    
    36   17   77 1    
    37   18   19 1    
    38   18   27 1    
    39   18   78 1    
    40   19   20 am   BACKBONE|DICT|INTERRES
    41   19   79 1    
    42   20   21 2    
    43   20   22 1    
    44   22   23 1    
    45   22   24 1    
    46   22   80 1    
    47   23   81 1    
    48   23   82 1    
    49   23   83 1    
    50   24   25 am   BACKBONE|DICT|INTERRES
    51   24   84 1    
    52   25   26 2    
    53   27   28 2    
    54   27   29 am   BACKBONE|DICT|INTERRES
    55   29   30 1    
    56   29   85 1    
    57   30   31 1    
    58   30   32 1    
    59   30   86 1    
    60   31   87 1    
    61   31   88 1    
    62   31   89 1    
    63   32   33 2    
    64   32   34 am   BACKBONE|DICT|INTERRES
    65   34   35 1    
    66   34   90 1    
    67   35   36 1    
    68   35   37 1    
    69   35   91 1    
    70   36   92 1    
    71   36   93 1    
    72   36   94 1    
    73   37   38 2    
    74   37   39 am   BACKBONE|DICT|INTERRES
    75   39   40 1    
    76   39   95 1    
    77   40   41 1    
    78   40   42 1    
    79   40   96 1    
    80   41   97 1    
    81   41   98 1    
    82   41   99 1    
    83   42   43 2    
    84   42   44 am   BACKBONE|DICT|INTERRES
    85   44   45 1    
    86   44  100 1    
    87   45   46 1    
    88   45   47 1    
    89   45  101 1    
    90   46  102 1    
    91   46  103 1    
    92   46  104 1    
    93   47   48 2    
    94   47   49 am   BACKBONE|DICT|INTERRES
    95   49   50 1    
    96   49  105 1    
    97   50   51 1    
    98   50   52 1    
    99   50  106 1    
   100   51  107 1    
   101   51  108 1    
   102   51  109 1    
   103   52   53 2    
   104   52   54 am   BACKBONE|DICT|INTERRES
   105   54   55 1    
   106   54  110 1    
   107   55   56 1    
   108   55   59 1    
   109   55  111 1    
   110   56   57 am   BACKBONE|DICT|INTERRES
   111   56   58 2    
   112   57  112 1    
   113   57  113 1    
   114   59   60 1    
   115   59  114 1    
   116   59  115 1    
   117   60   61 1    
   118   61  116 1    
   119   61  117 1    
@<TRIPOS>SUBSTRUCTURE
     1 UNK         1 GROUP             0       ****    0 ROOT    
