@<TRIPOS>MOLECULE
3R8
117   119    1
SMALL
USER_CHARGES


@<TRIPOS>ATOM
      1 CA         15.4143  -23.0929  -47.0063 C.3       0 UNK        -0.2013 
      2 C          16.7935  -23.6882  -46.7651 C.2       0 UNK         0.4866 
      3 O          17.7997  -23.0406  -47.0572 O.2       0 UNK        -0.5176 
      4 N          16.8488  -24.9197  -46.2435 N.am      1 UNK        -0.4884 
      5 CA         18.0865  -25.6262  -45.8990 C.3       1 UNK         0.0853 
      6 C6         17.8268  -27.1177  -45.5851 C.3       10 UNK        -0.0849 
      7 S7         17.3094  -28.0842  -47.0398 S.3       10 UNK        -0.2776 
      8 C8         16.3661  -29.4368  -46.2572 C.3       10 UNK         0.0316 
      9 C9         17.1099  -30.0679  -45.0849 C.ar      10 UNK        -0.0863 
     10 C10        18.2421  -30.8591  -45.3057 C.ar      10 UNK        -0.1009 
     11 C11        18.9306  -31.4241  -44.2277 C.ar      10 UNK        -0.0712 
     12 C12        18.4753  -31.2019  -42.9258 C.ar      10 UNK        -0.0894 
     13 C13        17.3433  -30.4173  -42.6913 C.ar      10 UNK        -0.0745 
     14 C14        16.6651  -29.8530  -43.7756 C.ar      10 UNK        -0.0972 
     15 C15        16.8300  -30.2083  -41.2721 C.3       10 UNK         0.0209 
     16 S16        18.0858  -29.5075  -40.1533 S.3       10 UNK        -0.2568 
     17 C17        18.3610  -27.8471  -40.8623 C.3       10 UNK        -0.0983 
     18 CA         19.8386  -27.6110  -41.2619 C.3       3 UNK         0.0876 
     19 N          19.9751  -26.4163  -42.0990 N.am      3 UNK        -0.4424 
     20 C          21.1097  -25.9595  -42.6471 C.2       2 UNK         0.4918 
     21 O          22.2085  -26.5034  -42.5122 O.2       2 UNK        -0.4875 
     22 CA         20.9681  -24.7066  -43.5338 C.3       2 UNK         0.0481 
     23 CB         22.3203  -24.1738  -44.0404 C.3       2 UNK        -0.1831 
     24 N          20.1179  -25.0085  -44.6865 N.am      2 UNK        -0.4498 
     25 C          18.7794  -24.9872  -44.6810 C.2       1 UNK         0.5027 
     26 O          18.1061  -24.5915  -43.7252 O.2       1 UNK        -0.4969 
     27 C          20.7534  -27.5212  -40.0234 C.2       3 UNK         0.5005 
     28 O          20.7155  -26.5135  -39.3126 O.2       3 UNK        -0.5279 
     29 N          21.5858  -28.5514  -39.8246 N.am      4 UNK        -0.4463 
     30 CA         22.6143  -28.7248  -38.7882 C.3       4 UNK         0.0283 
     31 CB         22.0195  -28.6483  -37.3693 C.3       4 UNK        -0.1875 
     32 C          23.8315  -27.7934  -38.9403 C.2       4 UNK         0.4949 
     33 O          24.9442  -28.2179  -38.6307 O.2       4 UNK        -0.5039 
     34 N          23.6160  -26.5632  -39.4235 N.am      5 UNK        -0.4663 
     35 CA         24.6481  -25.5679  -39.7154 C.3       5 UNK         0.0242 
     36 CB         23.9849  -24.2158  -40.0234 C.3       5 UNK        -0.1982 
     37 C          25.5809  -26.0045  -40.8564 C.2       5 UNK         0.5017 
     38 O          26.7999  -25.9429  -40.6907 O.2       5 UNK        -0.5012 
     39 N          24.9964  -26.4571  -41.9746 N.am      6 UNK        -0.4439 
     40 CA         25.7243  -27.0724  -43.0850 C.3       6 UNK         0.0297 
     41 CB         25.0431  -26.7403  -44.4222 C.3       6 UNK        -0.2006 
     42 C          25.8272  -28.5888  -42.8804 C.2       6 UNK         0.4892 
     43 O          26.9310  -29.1318  -42.9411 O.2       6 UNK        -0.5089 
     44 N          24.6849  -29.2396  -42.6251 N.am      7 UNK        -0.4243 
     45 CA         24.5748  -30.6717  -42.3653 C.3       7 UNK         0.0196 
     46 CB         24.7008  -31.4699  -43.6777 C.3       7 UNK        -0.2007 
     47 C          23.2243  -30.9549  -41.7065 C.2       7 UNK         0.5020 
     48 O          22.2450  -30.2648  -41.9988 O.2       7 UNK        -0.5147 
     49 N          23.1858  -31.9756  -40.8439 N.am      8 UNK        -0.4734 
     50 CA         21.9475  -32.5082  -40.2633 C.3       8 UNK         0.0238 
     51 CB         22.2369  -33.0384  -38.8496 C.3       8 UNK        -0.1912 
     52 C          21.3259  -33.6120  -41.1394 C.2       8 UNK         0.5038 
     53 O          20.1196  -33.8320  -41.0434 O.2       8 UNK        -0.5046 
     54 N          22.1645  -34.2722  -41.9557 N.am      9 UNK        -0.4200 
     55 CA         21.8681  -35.3352  -42.9366 C.3       9 UNK         0.0839 
     56 C          21.0688  -36.5801  -42.4369 C.2       9 UNK         0.5513 
     57 N          20.9624  -36.8215  -41.1334 N.am      9 UNK        -0.7519 
     58 O          20.5832  -37.3732  -43.2416 O.2       9 UNK        -0.4960 
     59 C59        21.4198  -34.7859  -44.3243 C.3       10 UNK        -0.0876 
     60 S60        19.7530  -34.0457  -44.3768 S.3       10 UNK        -0.2414 
     61 C61        20.1660  -32.2773  -44.4562 C.3       10 UNK         0.0169 
     62 H62        15.2976  -22.1734  -46.4333 H         1 UNK         0.0903 
     63 H63        15.2875  -22.8551  -48.0622 H         1 UNK         0.0903 
     64 H64        14.6177  -23.7772  -46.7151 H         1 UNK         0.0903 
     65 H65        15.9922  -25.4036  -46.0158 H         1 UNK         0.3096 
     66 H66        18.7620  -25.5577  -46.7551 H         1 UNK         0.1121 
     67 H67        18.7258  -27.5995  -45.1927 H         1 UNK         0.0849 
     68 H68        17.0708  -27.2061  -44.8023 H         1 UNK         0.0849 
     69 H69        15.3975  -29.0506  -45.9355 H         1 UNK         0.0865 
     70 H70        16.1531  -30.2016  -47.0055 H         1 UNK         0.0865 
     71 H71        18.5897  -31.0271  -46.3161 H         1 UNK         0.1346 
     72 H72        19.0005  -31.6473  -42.0921 H         1 UNK         0.1412 
     73 H73        15.7867  -29.2468  -43.6005 H         1 UNK         0.1426 
     74 H74        16.5070  -31.1710  -40.8737 H         1 UNK         0.0716 
     75 H75        15.9506  -29.5623  -41.2633 H         1 UNK         0.0716 
     76 H76        18.0246  -27.0974  -40.1433 H         1 UNK         0.0695 
     77 H77        17.7191  -27.7288  -41.7366 H         1 UNK         0.0695 
     78 H78        20.1626  -28.4528  -41.8788 H         1 UNK         0.0983 
     79 H79        19.1300  -25.8849  -42.2658 H         1 UNK         0.3095 
     80 H80        20.5083  -23.9232  -42.9276 H         1 UNK         0.0454 
     81 H81        22.8009  -24.8785  -44.7179 H         1 UNK         0.0851 
     82 H82        23.0097  -23.9865  -43.2171 H         1 UNK         0.0851 
     83 H83        22.1960  -23.2325  -44.5757 H         1 UNK         0.0851 
     84 H84        20.5919  -25.3851  -45.4955 H         1 UNK         0.2976 
     85 H85        21.6015  -29.2675  -40.5486 H         1 UNK         0.3116 
     86 H86        22.9895  -29.7400  -38.9214 H         1 UNK         0.0646 
     87 H87        21.6579  -27.6483  -37.1289 H         1 UNK         0.0847 
     88 H88        22.7700  -28.9066  -36.6212 H         1 UNK         0.0847 
     89 H89        21.1892  -29.3442  -37.2496 H         1 UNK         0.0847 
     90 H90        22.6509  -26.2997  -39.5973 H         1 UNK         0.3040 
     91 H91        25.2607  -25.4502  -38.8187 H         1 UNK         0.1015 
     92 H92        23.2897  -24.2862  -40.8596 H         1 UNK         0.0786 
     93 H93        24.7310  -23.4617  -40.2780 H         1 UNK         0.0786 
     94 H94        23.4304  -23.8439  -39.1615 H         1 UNK         0.0786 
     95 H95        23.9794  -26.4673  -42.0309 H         1 UNK         0.3172 
     96 H96        26.7387  -26.6699  -43.1287 H         1 UNK         0.0595 
     97 H97        25.5674  -27.2143  -45.2531 H         1 UNK         0.0839 
     98 H98        25.0520  -25.6667  -44.6084 H         1 UNK         0.0839 
     99 H99        24.0084  -27.0825  -44.4541 H         1 UNK         0.0839 
    100 H100       23.8092  -28.7321  -42.5809 H         1 UNK         0.2998 
    101 H101       25.3709  -30.9653  -41.6776 H         1 UNK         0.0822 
    102 H102       24.6003  -32.5411  -43.4995 H         1 UNK         0.0787 
    103 H103       23.9298  -31.1847  -44.3950 H         1 UNK         0.0787 
    104 H104       25.6703  -31.3143  -44.1508 H         1 UNK         0.0787 
    105 H105       24.0433  -32.4611  -40.6182 H         1 UNK         0.3055 
    106 H106       21.2057  -31.7101  -40.1769 H         1 UNK         0.1106 
    107 H107       21.3288  -33.4268  -38.3860 H         1 UNK         0.0828 
    108 H108       22.9694  -33.8463  -38.8589 H         1 UNK         0.0828 
    109 H109       22.6157  -32.2487  -38.2004 H         1 UNK         0.0828 
    110 H110       23.1378  -34.0134  -41.9080 H         1 UNK         0.2931 
    111 H111       22.8547  -35.7632  -43.1195 H         1 UNK         0.0412 
    112 H112       20.4588  -37.6370  -40.8208 H         1 UNK         0.3472 
    113 H113       21.3438  -36.1749  -40.4605 H         1 UNK         0.3472 
    114 H114       21.4454  -35.5878  -45.0645 H         1 UNK         0.0970 
    115 H115       22.1489  -34.0557  -44.6791 H         1 UNK         0.0970 
    116 H116       20.6173  -32.0527  -45.4238 H         1 UNK         0.0612 
    117 H117       20.9161  -32.0397  -43.7009 H         1 UNK         0.0612 
@<TRIPOS>BOND
     1    1    2 1    
     2    1   62 1    
     3    1   63 1    
     4    1   64 1    
     5    2    3 2    
     6    2    4 am   BACKBONE|DICT|INTERRES
     7    4    5 1    
     8    4   65 1    
     9    5    6 1    
    10    5   25 1    
    11    5   66 1    
    12    6    7 1    
    13    6   67 1    
    14    6   68 1    
    15    7    8 1    
    16    8    9 1    
    17    8   69 1    
    18    8   70 1    
    19    9   10 ar   
    20    9   14 ar   
    21   10   11 ar   
    22   10   71 1    
    23   11   12 ar   
    24   11   61 1    
    25   12   13 ar   
    26   12   72 1    
    27   13   14 ar   
    28   13   15 1    
    29   14   73 1    
    30   15   16 1    
    31   15   74 1    
    32   15   75 1    
    33   16   17 1    
    34   17   18 1    
    35   17   76 1    
    36   17   77 1    
    37   18   19 1    
    38   18   27 1    
    39   18   78 1    
    40   19   20 am   BACKBONE|DICT|INTERRES
    41   19   79 1    
    42   20   21 2    
    43   20   22 1    
    44   22   23 1    
    45   22   24 1    
    46   22   80 1    
    47   23   81 1    
    48   23   82 1    
    49   23   83 1    
    50   24   25 am   BACKBONE|DICT|INTERRES
    51   24   84 1    
    52   25   26 2    
    53   27   28 2    
    54   27   29 am   BACKBONE|DICT|INTERRES
    55   29   30 1    
    56   29   85 1    
    57   30   31 1    
    58   30   32 1    
    59   30   86 1    
    60   31   87 1    
    61   31   88 1    
    62   31   89 1    
    63   32   33 2    
    64   32   34 am   BACKBONE|DICT|INTERRES
    65   34   35 1    
    66   34   90 1    
    67   35   36 1    
    68   35   37 1    
    69   35   91 1    
    70   36   92 1    
    71   36   93 1    
    72   36   94 1    
    73   37   38 2    
    74   37   39 am   BACKBONE|DICT|INTERRES
    75   39   40 1    
    76   39   95 1    
    77   40   41 1    
    78   40   42 1    
    79   40   96 1    
    80   41   97 1    
    81   41   98 1    
    82   41   99 1    
    83   42   43 2    
    84   42   44 am   BACKBONE|DICT|INTERRES
    85   44   45 1    
    86   44  100 1    
    87   45   46 1    
    88   45   47 1    
    89   45  101 1    
    90   46  102 1    
    91   46  103 1    
    92   46  104 1    
    93   47   48 2    
    94   47   49 am   BACKBONE|DICT|INTERRES
    95   49   50 1    
    96   49  105 1    
    97   50   51 1    
    98   50   52 1    
    99   50  106 1    
   100   51  107 1    
   101   51  108 1    
   102   51  109 1    
   103   52   53 2    
   104   52   54 am   BACKBONE|DICT|INTERRES
   105   54   55 1    
   106   54  110 1    
   107   55   56 1    
   108   55   59 1    
   109   55  111 1    
   110   56   57 am   BACKBONE|DICT|INTERRES
   111   56   58 2    
   112   57  112 1    
   113   57  113 1    
   114   59   60 1    
   115   59  114 1    
   116   59  115 1    
   117   60   61 1    
   118   61  116 1    
   119   61  117 1    
@<TRIPOS>SUBSTRUCTURE
     1 UNK         1 GROUP             0       ****    0 ROOT    
