@<TRIPOS>MOLECULE
3R8
117   119    1
SMALL
USER_CHARGES


@<TRIPOS>ATOM
      1 CA         20.4984  -22.1208  -45.2485 C.3       0 UNK        -0.2013 
      2 C          20.4191  -23.5795  -45.6735 C.2       0 UNK         0.4866 
      3 O          21.2503  -24.0338  -46.4607 O.2       0 UNK        -0.5176 
      4 N          19.4225  -24.3141  -45.1633 N.am      1 UNK        -0.4884 
      5 CA         19.2614  -25.7573  -45.3723 C.3       1 UNK         0.0853 
      6 C6         17.8030  -26.2102  -45.0752 C.3       10 UNK        -0.0849 
      7 S7         17.3004  -27.6494  -46.0822 S.3       10 UNK        -0.2776 
      8 C8         15.9097  -28.3326  -45.1171 C.3       10 UNK         0.0316 
      9 C9         16.3017  -29.5588  -44.2988 C.ar      10 UNK        -0.0863 
     10 C10        16.6359  -30.7524  -44.9463 C.ar      10 UNK        -0.1009 
     11 C11        16.9431  -31.9021  -44.2122 C.ar      10 UNK        -0.0712 
     12 C12        16.9320  -31.8494  -42.8148 C.ar      10 UNK        -0.0894 
     13 C13        16.5855  -30.6677  -42.1505 C.ar      10 UNK        -0.0745 
     14 C14        16.2659  -29.5282  -42.9001 C.ar      10 UNK        -0.0972 
     15 C15        16.4713  -30.6506  -40.6287 C.3       10 UNK         0.0209 
     16 S16        17.5501  -29.4230  -39.8201 S.3       10 UNK        -0.2568 
     17 C17        19.1807  -30.2583  -39.8083 C.3       10 UNK        -0.0983 
     18 CA         20.4482  -29.3966  -40.1168 C.3       3 UNK         0.0876 
     19 N          20.8611  -29.4072  -41.5246 N.am      3 UNK        -0.4424 
     20 C          20.1980  -28.9056  -42.5685 C.2       2 UNK         0.4918 
     21 O          19.0671  -28.4276  -42.4873 O.2       2 UNK        -0.4875 
     22 CA         20.9551  -28.8584  -43.9095 C.3       2 UNK         0.0481 
     23 CB         20.9225  -30.2286  -44.5964 C.3       2 UNK        -0.1831 
     24 N          20.3710  -27.8605  -44.8086 N.am      2 UNK        -0.4498 
     25 C          20.2723  -26.5555  -44.5223 C.2       1 UNK         0.5027 
     26 O          20.8665  -26.0176  -43.5819 O.2       1 UNK        -0.4969 
     27 C          20.4580  -27.9709  -39.5090 C.2       3 UNK         0.5005 
     28 O          21.1060  -27.7573  -38.4837 O.2       3 UNK        -0.5279 
     29 N          19.8000  -27.0117  -40.1759 N.am      4 UNK        -0.4463 
     30 CA         19.7166  -25.5944  -39.8183 C.3       4 UNK         0.0283 
     31 CB         18.7068  -24.8939  -40.7418 C.3       4 UNK        -0.1875 
     32 C          21.0804  -24.8883  -39.8643 C.2       4 UNK         0.4949 
     33 O          21.4207  -24.1660  -38.9279 O.2       4 UNK        -0.5039 
     34 N          21.8567  -25.1457  -40.9262 N.am      5 UNK        -0.4663 
     35 CA         23.2307  -24.6578  -41.0953 C.3       5 UNK         0.0242 
     36 CB         23.5364  -24.5506  -42.6002 C.3       5 UNK        -0.1982 
     37 C          24.2825  -25.5316  -40.3799 C.2       5 UNK         0.5017 
     38 O          25.4759  -25.3180  -40.5926 O.2       5 UNK        -0.5012 
     39 N          23.8356  -26.5186  -39.5862 N.am      6 UNK        -0.4439 
     40 CA         24.6125  -27.5281  -38.8503 C.3       6 UNK         0.0297 
     41 CB         25.6118  -26.8763  -37.8716 C.3       6 UNK        -0.2006 
     42 C          25.2839  -28.5997  -39.7341 C.2       6 UNK         0.4892 
     43 O          25.9307  -29.4979  -39.1929 O.2       6 UNK        -0.5089 
     44 N          25.1021  -28.5225  -41.0590 N.am      7 UNK        -0.4243 
     45 CA         25.5163  -29.5423  -42.0210 C.3       7 UNK         0.0196 
     46 CB         25.5314  -28.9259  -43.4291 C.3       7 UNK        -0.2007 
     47 C          24.5530  -30.7361  -41.9715 C.2       7 UNK         0.5020 
     48 O          23.3449  -30.5300  -41.8359 O.2       7 UNK        -0.5147 
     49 N          25.0875  -31.9548  -42.1025 N.am      8 UNK        -0.4734 
     50 CA         24.2978  -33.1874  -42.1439 C.3       8 UNK         0.0238 
     51 CB         25.2250  -34.3964  -41.9373 C.3       8 UNK        -0.1912 
     52 C          23.5361  -33.3093  -43.4735 C.2       8 UNK         0.5038 
     53 O          24.1375  -33.1121  -44.5324 O.2       8 UNK        -0.5046 
     54 N          22.2421  -33.6390  -43.3935 N.am      9 UNK        -0.4200 
     55 CA         21.3832  -33.8930  -44.5566 C.3       9 UNK         0.0839 
     56 C          21.6646  -35.2897  -45.1758 C.2       9 UNK         0.5513 
     57 N          21.6312  -35.4066  -46.4958 N.am      9 UNK        -0.7519 
     58 O          21.8829  -36.2703  -44.4668 O.2       9 UNK        -0.4960 
     59 C59        19.8868  -33.7022  -44.1921 C.3       10 UNK        -0.0876 
     60 S60        18.8833  -33.2794  -45.6540 S.3       10 UNK        -0.2414 
     61 C61        17.2155  -33.2142  -44.9355 C.3       10 UNK         0.0169 
     62 H62        20.4368  -21.4711  -46.1212 H         1 UNK         0.0903 
     63 H63        19.6932  -21.8496  -44.5661 H         1 UNK         0.0903 
     64 H64        21.4465  -21.9291  -44.7465 H         1 UNK         0.0903 
     65 H65        18.7893  -23.8933  -44.4988 H         1 UNK         0.3096 
     66 H66        19.4863  -25.9571  -46.4229 H         1 UNK         0.1121 
     67 H67        17.6573  -26.4265  -44.0139 H         1 UNK         0.0849 
     68 H68        17.1023  -25.4082  -45.3138 H         1 UNK         0.0849 
     69 H69        15.4807  -27.5574  -44.4803 H         1 UNK         0.0865 
     70 H70        15.1175  -28.6184  -45.8106 H         1 UNK         0.0865 
     71 H71        16.6387  -30.7917  -46.0273 H         1 UNK         0.1346 
     72 H72        17.1552  -32.7408  -42.2449 H         1 UNK         0.1412 
     73 H73        15.9912  -28.6168  -42.3873 H         1 UNK         0.1426 
     74 H74        16.6748  -31.6360  -40.2066 H         1 UNK         0.0716 
     75 H75        15.4377  -30.4198  -40.3679 H         1 UNK         0.0716 
     76 H76        19.2894  -30.6894  -38.8120 H         1 UNK         0.0695 
     77 H77        19.1478  -31.1136  -40.4850 H         1 UNK         0.0695 
     78 H78        21.2758  -29.9111  -39.6246 H         1 UNK         0.0983 
     79 H79        21.7968  -29.7858  -41.6866 H         1 UNK         0.3095 
     80 H80        21.9928  -28.5796  -43.7165 H         1 UNK         0.0454 
     81 H81        19.8991  -30.5563  -44.7843 H         1 UNK         0.0851 
     82 H82        21.4552  -30.2156  -45.5470 H         1 UNK         0.0851 
     83 H83        21.4005  -30.9806  -43.9698 H         1 UNK         0.0851 
     84 H84        19.7769  -28.2207  -45.5424 H         1 UNK         0.2976 
     85 H85        19.3143  -27.3099  -41.0202 H         1 UNK         0.3116 
     86 H86        19.3433  -25.5345  -38.7940 H         1 UNK         0.0646 
     87 H87        18.6128  -23.8372  -40.4880 H         1 UNK         0.0847 
     88 H88        17.7151  -25.3379  -40.6528 H         1 UNK         0.0847 
     89 H89        19.0060  -24.9533  -41.7890 H         1 UNK         0.0847 
     90 H90        21.4743  -25.6913  -41.6944 H         1 UNK         0.3040 
     91 H91        23.3062  -23.6565  -40.6653 H         1 UNK         0.1015 
     92 H92        22.8015  -23.9279  -43.1112 H         1 UNK         0.0786 
     93 H93        23.5365  -25.5290  -43.0824 H         1 UNK         0.0786 
     94 H94        24.5147  -24.1006  -42.7744 H         1 UNK         0.0786 
     95 H95        22.8323  -26.5958  -39.4709 H         1 UNK         0.3172 
     96 H96        23.8804  -28.0673  -38.2476 H         1 UNK         0.0595 
     97 H97        25.1224  -26.1380  -37.2365 H         1 UNK         0.0839 
     98 H98        26.4321  -26.3823  -38.3928 H         1 UNK         0.0839 
     99 H99        26.0557  -27.6239  -37.2131 H         1 UNK         0.0839 
    100 H100       24.5443  -27.7621  -41.4153 H         1 UNK         0.2998 
    101 H101       26.5249  -29.8780  -41.7699 H         1 UNK         0.0822 
    102 H102       26.2201  -28.0826  -43.4855 H         1 UNK         0.0787 
    103 H103       25.8530  -29.6576  -44.1716 H         1 UNK         0.0787 
    104 H104       24.5435  -28.5726  -43.7278 H         1 UNK         0.0787 
    105 H105       26.0819  -32.0451  -42.2549 H         1 UNK         0.3055 
    106 H106       23.5795  -33.1605  -41.3208 H         1 UNK         0.1106 
    107 H107       24.6577  -35.3283  -41.9453 H         1 UNK         0.0828 
    108 H108       25.9780  -34.4681  -42.7234 H         1 UNK         0.0828 
    109 H109       25.7427  -34.3418  -40.9794 H         1 UNK         0.0828 
    110 H110       21.8369  -33.8322  -42.4898 H         1 UNK         0.2931 
    111 H111       21.6411  -33.1383  -45.3034 H         1 UNK         0.0412 
    112 H112       21.4232  -34.6108  -47.0794 H         1 UNK         0.3472 
    113 H113       21.7994  -36.3075  -46.9158 H         1 UNK         0.3472 
    114 H114       19.4788  -34.5891  -43.7031 H         1 UNK         0.0970 
    115 H115       19.7711  -32.8842  -43.4791 H         1 UNK         0.0970 
    116 H116       16.4886  -33.3335  -45.7403 H         1 UNK         0.0612 
    117 H117       17.0687  -34.0657  -44.2693 H         1 UNK         0.0612 
@<TRIPOS>BOND
     1    1    2 1    
     2    1   62 1    
     3    1   63 1    
     4    1   64 1    
     5    2    3 2    
     6    2    4 am   BACKBONE|DICT|INTERRES
     7    4    5 1    
     8    4   65 1    
     9    5    6 1    
    10    5   25 1    
    11    5   66 1    
    12    6    7 1    
    13    6   67 1    
    14    6   68 1    
    15    7    8 1    
    16    8    9 1    
    17    8   69 1    
    18    8   70 1    
    19    9   10 ar   
    20    9   14 ar   
    21   10   11 ar   
    22   10   71 1    
    23   11   12 ar   
    24   11   61 1    
    25   12   13 ar   
    26   12   72 1    
    27   13   14 ar   
    28   13   15 1    
    29   14   73 1    
    30   15   16 1    
    31   15   74 1    
    32   15   75 1    
    33   16   17 1    
    34   17   18 1    
    35   17   76 1    
    36   17   77 1    
    37   18   19 1    
    38   18   27 1    
    39   18   78 1    
    40   19   20 am   BACKBONE|DICT|INTERRES
    41   19   79 1    
    42   20   21 2    
    43   20   22 1    
    44   22   23 1    
    45   22   24 1    
    46   22   80 1    
    47   23   81 1    
    48   23   82 1    
    49   23   83 1    
    50   24   25 am   BACKBONE|DICT|INTERRES
    51   24   84 1    
    52   25   26 2    
    53   27   28 2    
    54   27   29 am   BACKBONE|DICT|INTERRES
    55   29   30 1    
    56   29   85 1    
    57   30   31 1    
    58   30   32 1    
    59   30   86 1    
    60   31   87 1    
    61   31   88 1    
    62   31   89 1    
    63   32   33 2    
    64   32   34 am   BACKBONE|DICT|INTERRES
    65   34   35 1    
    66   34   90 1    
    67   35   36 1    
    68   35   37 1    
    69   35   91 1    
    70   36   92 1    
    71   36   93 1    
    72   36   94 1    
    73   37   38 2    
    74   37   39 am   BACKBONE|DICT|INTERRES
    75   39   40 1    
    76   39   95 1    
    77   40   41 1    
    78   40   42 1    
    79   40   96 1    
    80   41   97 1    
    81   41   98 1    
    82   41   99 1    
    83   42   43 2    
    84   42   44 am   BACKBONE|DICT|INTERRES
    85   44   45 1    
    86   44  100 1    
    87   45   46 1    
    88   45   47 1    
    89   45  101 1    
    90   46  102 1    
    91   46  103 1    
    92   46  104 1    
    93   47   48 2    
    94   47   49 am   BACKBONE|DICT|INTERRES
    95   49   50 1    
    96   49  105 1    
    97   50   51 1    
    98   50   52 1    
    99   50  106 1    
   100   51  107 1    
   101   51  108 1    
   102   51  109 1    
   103   52   53 2    
   104   52   54 am   BACKBONE|DICT|INTERRES
   105   54   55 1    
   106   54  110 1    
   107   55   56 1    
   108   55   59 1    
   109   55  111 1    
   110   56   57 am   BACKBONE|DICT|INTERRES
   111   56   58 2    
   112   57  112 1    
   113   57  113 1    
   114   59   60 1    
   115   59  114 1    
   116   59  115 1    
   117   60   61 1    
   118   61  116 1    
   119   61  117 1    
@<TRIPOS>SUBSTRUCTURE
     1 UNK         1 GROUP             0       ****    0 ROOT    
