@<TRIPOS>MOLECULE
3R8
117   119    1
SMALL
USER_CHARGES


@<TRIPOS>ATOM
      1 CA         12.7953  -25.2386  -48.1198 C.3       0 UNK        -0.2013 
      2 C          14.1412  -25.9465  -48.0695 C.2       0 UNK         0.4866 
      3 O          14.6364  -26.3954  -49.1041 O.2       0 UNK        -0.5176 
      4 N          14.7324  -26.0587  -46.8738 N.am      1 UNK        -0.4884 
      5 CA         16.0475  -26.6662  -46.6457 C.3       1 UNK         0.0853 
      6 C6         16.3204  -26.9014  -45.1397 C.3       10 UNK        -0.0849 
      7 S7         15.1761  -28.0792  -44.3566 S.3       10 UNK        -0.2776 
      8 C8         15.1104  -27.4125  -42.6614 C.3       10 UNK         0.0316 
      9 C9         16.4745  -27.4122  -41.9783 C.ar      10 UNK        -0.0863 
     10 C10        16.9794  -28.5898  -41.4168 C.ar      10 UNK        -0.1009 
     11 C11        18.1993  -28.5824  -40.7338 C.ar      10 UNK        -0.0712 
     12 C12        18.9198  -27.3906  -40.6234 C.ar      10 UNK        -0.0894 
     13 C13        18.4371  -26.2096  -41.1941 C.ar      10 UNK        -0.0745 
     14 C14        17.2122  -26.2268  -41.8693 C.ar      10 UNK        -0.0972 
     15 C15        19.2131  -24.9083  -41.0295 C.3       10 UNK         0.0209 
     16 S16        20.9009  -25.0047  -41.7099 S.3       10 UNK        -0.2568 
     17 C17        20.6007  -24.9137  -43.5084 C.3       10 UNK        -0.0983 
     18 CA         20.5580  -26.3055  -44.1928 C.3       3 UNK         0.0876 
     19 N          19.9950  -26.2897  -45.5458 N.am      3 UNK        -0.4424 
     20 C          20.3108  -25.5049  -46.5890 C.2       2 UNK         0.4918 
     21 O          21.1269  -24.5840  -46.5570 O.2       2 UNK        -0.4875 
     22 CA         19.5579  -25.7924  -47.9060 C.3       2 UNK         0.0481 
     23 CB         20.4079  -26.6837  -48.8257 C.3       2 UNK        -0.1831 
     24 N          18.2579  -26.4327  -47.6717 N.am      2 UNK        -0.4498 
     25 C          17.1805  -25.7843  -47.2066 C.2       1 UNK         0.5027 
     26 O          17.1041  -24.5560  -47.1149 O.2       1 UNK        -0.4969 
     27 C          21.9135  -27.0411  -44.1679 C.2       3 UNK         0.5005 
     28 O          22.7929  -26.7686  -44.9884 O.2       3 UNK        -0.5279 
     29 N          22.0509  -27.9701  -43.2159 N.am      4 UNK        -0.4463 
     30 CA         23.2365  -28.7968  -43.0022 C.3       4 UNK         0.0283 
     31 CB         23.1871  -30.0203  -43.9361 C.3       4 UNK        -0.1875 
     32 C          23.3199  -29.1793  -41.5182 C.2       4 UNK         0.4949 
     33 O          23.5602  -30.3441  -41.1953 O.2       4 UNK        -0.5039 
     34 N          23.0794  -28.1914  -40.6415 N.am      5 UNK        -0.4663 
     35 CA         22.8991  -28.3379  -39.1903 C.3       5 UNK         0.0242 
     36 CB         22.6704  -26.9493  -38.5707 C.3       5 UNK        -0.1982 
     37 C          24.0387  -29.0650  -38.4538 C.2       5 UNK         0.5017 
     38 O          23.7710  -29.7815  -37.4894 O.2       5 UNK        -0.5012 
     39 N          25.2750  -28.8714  -38.9281 N.am      6 UNK        -0.4439 
     40 CA         26.4935  -29.4849  -38.3942 C.3       6 UNK         0.0297 
     41 CB         27.5639  -28.3880  -38.2436 C.3       6 UNK        -0.2006 
     42 C          27.0081  -30.6455  -39.2695 C.2       6 UNK         0.4892 
     43 O          28.1305  -31.1023  -39.0453 O.2       6 UNK        -0.5089 
     44 N          26.2171  -31.0896  -40.2553 N.am      7 UNK        -0.4243 
     45 CA         26.5853  -32.1142  -41.2279 C.3       7 UNK         0.0196 
     46 CB         27.0449  -31.4336  -42.5351 C.3       7 UNK        -0.2007 
     47 C          25.4182  -33.0982  -41.3924 C.2       7 UNK         0.5020 
     48 O          25.1385  -33.8534  -40.4607 O.2       7 UNK        -0.5147 
     49 N          24.7687  -33.0935  -42.5653 N.am      8 UNK        -0.4734 
     50 CA         23.7339  -34.0484  -42.9836 C.3       8 UNK         0.0238 
     51 CB         23.3590  -33.7870  -44.4520 C.3       8 UNK        -0.1912 
     52 C          22.4718  -34.1088  -42.1017 C.2       8 UNK         0.5038 
     53 O          21.7781  -35.1263  -42.1464 O.2       8 UNK        -0.5046 
     54 N          22.1997  -33.0632  -41.3081 N.am      9 UNK        -0.4200 
     55 CA         21.1683  -33.0901  -40.2565 C.3       9 UNK         0.0839 
     56 C          21.5101  -34.0193  -39.0518 C.2       9 UNK         0.5513 
     57 N          22.7493  -34.4609  -38.8681 N.am      9 UNK        -0.7519 
     58 O          20.6240  -34.3496  -38.2678 O.2       9 UNK        -0.4960 
     59 C59        20.8164  -31.6704  -39.7504 C.3       10 UNK        -0.0876 
     60 S60        20.0644  -30.6070  -41.0307 S.3       10 UNK        -0.2414 
     61 C61        18.7251  -29.8428  -40.0671 C.3       10 UNK         0.0169 
     62 H62        12.0338  -25.9081  -48.5189 H         1 UNK         0.0903 
     63 H63        12.4715  -24.9068  -47.1334 H         1 UNK         0.0903 
     64 H64        12.8554  -24.3650  -48.7685 H         1 UNK         0.0903 
     65 H65        14.2856  -25.6665  -46.0575 H         1 UNK         0.3096 
     66 H66        16.0669  -27.6286  -47.1627 H         1 UNK         0.1121 
     67 H67        17.3246  -27.2962  -44.9784 H         1 UNK         0.0849 
     68 H68        16.2797  -25.9502  -44.6054 H         1 UNK         0.0849 
     69 H69        14.6922  -26.4049  -42.6853 H         1 UNK         0.0865 
     70 H70        14.4119  -28.0117  -42.0752 H         1 UNK         0.0865 
     71 H71        16.4112  -29.5069  -41.4948 H         1 UNK         0.1346 
     72 H72        19.8556  -27.3814  -40.0824 H         1 UNK         0.1412 
     73 H73        16.8218  -25.3108  -42.2914 H         1 UNK         0.1426 
     74 H74        19.2825  -24.6799  -39.9651 H         1 UNK         0.0716 
     75 H75        18.6844  -24.0702  -41.4860 H         1 UNK         0.0716 
     76 H76        19.6628  -24.3840  -43.6818 H         1 UNK         0.0695 
     77 H77        21.3817  -24.2911  -43.9477 H         1 UNK         0.0695 
     78 H78        19.8509  -26.9139  -43.6261 H         1 UNK         0.0983 
     79 H79        19.3417  -27.0341  -45.7314 H         1 UNK         0.3095 
     80 H80        19.3948  -24.8396  -48.4144 H         1 UNK         0.0454 
     81 H81        20.6125  -27.6559  -48.3754 H         1 UNK         0.0851 
     82 H82        19.9140  -26.8526  -49.7827 H         1 UNK         0.0851 
     83 H83        21.3704  -26.2161  -49.0382 H         1 UNK         0.0851 
     84 H84        18.2266  -27.4391  -47.7603 H         1 UNK         0.2976 
     85 H85        21.2899  -28.1325  -42.5685 H         1 UNK         0.3116 
     86 H86        24.1331  -28.2163  -43.2294 H         1 UNK         0.0646 
     87 H87        24.0849  -30.6269  -43.8349 H         1 UNK         0.0847 
     88 H88        23.1193  -29.7231  -44.9826 H         1 UNK         0.0847 
     89 H89        22.3291  -30.6547  -43.7105 H         1 UNK         0.0847 
     90 H90        22.9181  -27.2660  -41.0145 H         1 UNK         0.3040 
     91 H91        21.9913  -28.9228  -39.0370 H         1 UNK         0.1015 
     92 H92        21.7974  -26.4568  -38.9982 H         1 UNK         0.0786 
     93 H93        23.5298  -26.2944  -38.7203 H         1 UNK         0.0786 
     94 H94        22.5012  -27.0240  -37.4954 H         1 UNK         0.0786 
     95 H95        25.3824  -28.2769  -39.7379 H         1 UNK         0.3172 
     96 H96        26.3007  -29.9005  -37.4031 H         1 UNK         0.0595 
     97 H97        27.2105  -27.5733  -37.6112 H         1 UNK         0.0839 
     98 H98        27.8483  -27.9656  -39.2081 H         1 UNK         0.0839 
     99 H99        28.4698  -28.7814  -37.7804 H         1 UNK         0.0839 
    100 H100       25.2758  -30.7174  -40.3492 H         1 UNK         0.2998 
    101 H101       27.4188  -32.7102  -40.8501 H         1 UNK         0.0822 
    102 H102       27.9500  -30.8496  -42.3668 H         1 UNK         0.0787 
    103 H103       27.2829  -32.1679  -43.3062 H         1 UNK         0.0787 
    104 H104       26.2912  -30.7535  -42.9319 H         1 UNK         0.0787 
    105 H105       25.0684  -32.4268  -43.2604 H         1 UNK         0.3055 
    106 H106       24.1874  -35.0406  -42.9283 H         1 UNK         0.1106 
    107 H107       22.8891  -32.8136  -44.5857 H         1 UNK         0.0828 
    108 H108       24.2325  -33.8338  -45.1026 H         1 UNK         0.0828 
    109 H109       22.6524  -34.5364  -44.8117 H         1 UNK         0.0828 
    110 H110       22.8017  -32.2471  -41.3306 H         1 UNK         0.2931 
    111 H111       20.2627  -33.5050  -40.7037 H         1 UNK         0.0412 
    112 H112       22.9444  -35.0628  -38.0841 H         1 UNK         0.3472 
    113 H113       23.5022  -34.1974  -39.4977 H         1 UNK         0.3472 
    114 H114       21.7114  -31.1833  -39.3630 H         1 UNK         0.0970 
    115 H115       20.1249  -31.7357  -38.9079 H         1 UNK         0.0970 
    116 H116       17.9248  -30.5706  -39.9246 H         1 UNK         0.0612 
    117 H117       19.0917  -29.5858  -39.0719 H         1 UNK         0.0612 
@<TRIPOS>BOND
     1    1    2 1    
     2    1   62 1    
     3    1   63 1    
     4    1   64 1    
     5    2    3 2    
     6    2    4 am   BACKBONE|DICT|INTERRES
     7    4    5 1    
     8    4   65 1    
     9    5    6 1    
    10    5   25 1    
    11    5   66 1    
    12    6    7 1    
    13    6   67 1    
    14    6   68 1    
    15    7    8 1    
    16    8    9 1    
    17    8   69 1    
    18    8   70 1    
    19    9   10 ar   
    20    9   14 ar   
    21   10   11 ar   
    22   10   71 1    
    23   11   12 ar   
    24   11   61 1    
    25   12   13 ar   
    26   12   72 1    
    27   13   14 ar   
    28   13   15 1    
    29   14   73 1    
    30   15   16 1    
    31   15   74 1    
    32   15   75 1    
    33   16   17 1    
    34   17   18 1    
    35   17   76 1    
    36   17   77 1    
    37   18   19 1    
    38   18   27 1    
    39   18   78 1    
    40   19   20 am   BACKBONE|DICT|INTERRES
    41   19   79 1    
    42   20   21 2    
    43   20   22 1    
    44   22   23 1    
    45   22   24 1    
    46   22   80 1    
    47   23   81 1    
    48   23   82 1    
    49   23   83 1    
    50   24   25 am   BACKBONE|DICT|INTERRES
    51   24   84 1    
    52   25   26 2    
    53   27   28 2    
    54   27   29 am   BACKBONE|DICT|INTERRES
    55   29   30 1    
    56   29   85 1    
    57   30   31 1    
    58   30   32 1    
    59   30   86 1    
    60   31   87 1    
    61   31   88 1    
    62   31   89 1    
    63   32   33 2    
    64   32   34 am   BACKBONE|DICT|INTERRES
    65   34   35 1    
    66   34   90 1    
    67   35   36 1    
    68   35   37 1    
    69   35   91 1    
    70   36   92 1    
    71   36   93 1    
    72   36   94 1    
    73   37   38 2    
    74   37   39 am   BACKBONE|DICT|INTERRES
    75   39   40 1    
    76   39   95 1    
    77   40   41 1    
    78   40   42 1    
    79   40   96 1    
    80   41   97 1    
    81   41   98 1    
    82   41   99 1    
    83   42   43 2    
    84   42   44 am   BACKBONE|DICT|INTERRES
    85   44   45 1    
    86   44  100 1    
    87   45   46 1    
    88   45   47 1    
    89   45  101 1    
    90   46  102 1    
    91   46  103 1    
    92   46  104 1    
    93   47   48 2    
    94   47   49 am   BACKBONE|DICT|INTERRES
    95   49   50 1    
    96   49  105 1    
    97   50   51 1    
    98   50   52 1    
    99   50  106 1    
   100   51  107 1    
   101   51  108 1    
   102   51  109 1    
   103   52   53 2    
   104   52   54 am   BACKBONE|DICT|INTERRES
   105   54   55 1    
   106   54  110 1    
   107   55   56 1    
   108   55   59 1    
   109   55  111 1    
   110   56   57 am   BACKBONE|DICT|INTERRES
   111   56   58 2    
   112   57  112 1    
   113   57  113 1    
   114   59   60 1    
   115   59  114 1    
   116   59  115 1    
   117   60   61 1    
   118   61  116 1    
   119   61  117 1    
@<TRIPOS>SUBSTRUCTURE
     1 UNK         1 GROUP             0       ****    0 ROOT    
