@<TRIPOS>MOLECULE
3R8
117   119    1
SMALL
USER_CHARGES


@<TRIPOS>ATOM
      1 CA         16.3882  -25.8171  -41.5133 C.3       0 UNK        -0.2013 
      2 C          16.7396  -26.4417  -42.8542 C.2       0 UNK         0.4866 
      3 O          17.8276  -27.0016  -42.9964 O.2       0 UNK        -0.5176 
      4 N          15.8369  -26.3332  -43.8427 N.am      1 UNK        -0.4884 
      5 CA         15.9519  -26.9152  -45.1932 C.3       1 UNK         0.0853 
      6 C6         15.9947  -28.4669  -45.1329 C.3       10 UNK        -0.0849 
      7 S7         15.3860  -29.2963  -46.6463 S.3       10 UNK        -0.2776 
      8 C8         15.6026  -31.0686  -46.2463 C.3       10 UNK         0.0316 
      9 C9         16.8963  -31.3487  -45.4920 C.ar      10 UNK        -0.0863 
     10 C10        16.8510  -31.8147  -44.1746 C.ar      10 UNK        -0.1009 
     11 C11        18.0276  -31.9730  -43.4381 C.ar      10 UNK        -0.0712 
     12 C12        19.2571  -31.6703  -44.0305 C.ar      10 UNK        -0.0894 
     13 C13        19.3160  -31.2112  -45.3482 C.ar      10 UNK        -0.0745 
     14 C14        18.1342  -31.0740  -46.0824 C.ar      10 UNK        -0.0972 
     15 C15        20.6529  -30.8413  -45.9721 C.3       10 UNK         0.0209 
     16 S16        20.8051  -29.0449  -46.2284 S.3       10 UNK        -0.2568 
     17 C17        21.0150  -28.4284  -44.5235 C.3       10 UNK        -0.0983 
     18 CA         21.2949  -26.9021  -44.5199 C.3       3 UNK         0.0876 
     19 N          20.1189  -26.1452  -44.9540 N.am      3 UNK        -0.4424 
     20 C          20.1141  -25.1759  -45.8773 C.2       2 UNK         0.4918 
     21 O          21.1087  -24.8506  -46.5285 O.2       2 UNK        -0.4875 
     22 CA         18.7870  -24.4134  -46.0961 C.3       2 UNK         0.0481 
     23 CB         18.5978  -23.9604  -47.5597 C.3       2 UNK        -0.1831 
     24 N          17.6010  -25.1251  -45.6001 N.am      2 UNK        -0.4498 
     25 C          17.1120  -26.3024  -46.0251 C.2       1 UNK         0.5027 
     26 O          17.5487  -26.8952  -47.0118 O.2       1 UNK        -0.4969 
     27 C          21.7536  -26.3653  -43.1467 C.2       3 UNK         0.5005 
     28 O          21.1985  -25.3811  -42.6458 O.2       3 UNK        -0.5279 
     29 N          22.7886  -26.9854  -42.5706 N.am      4 UNK        -0.4463 
     30 CA         23.3757  -26.6153  -41.2865 C.3       4 UNK         0.0283 
     31 CB         24.5505  -25.6485  -41.5151 C.3       4 UNK        -0.1875 
     32 C          23.8433  -27.8826  -40.5704 C.2       4 UNK         0.4949 
     33 O          24.1395  -28.8825  -41.2291 O.2       4 UNK        -0.5039 
     34 N          23.9443  -27.7956  -39.2376 N.am      5 UNK        -0.4663 
     35 CA         24.2334  -28.8939  -38.3054 C.3       5 UNK         0.0242 
     36 CB         24.1386  -28.3597  -36.8669 C.3       5 UNK        -0.1982 
     37 C          25.5693  -29.6296  -38.5203 C.2       5 UNK         0.5017 
     38 O          25.7314  -30.7314  -37.9955 O.2       5 UNK        -0.5012 
     39 N          26.4842  -29.0367  -39.3013 N.am      6 UNK        -0.4439 
     40 CA         27.6982  -29.6799  -39.8136 C.3       6 UNK         0.0297 
     41 CB         28.5546  -28.6363  -40.5485 C.3       6 UNK        -0.2006 
     42 C          27.3994  -30.8807  -40.7348 C.2       6 UNK         0.4892 
     43 O          28.1990  -31.8166  -40.7768 O.2       6 UNK        -0.5089 
     44 N          26.2515  -30.8411  -41.4253 N.am      7 UNK        -0.4243 
     45 CA         25.6564  -31.9692  -42.1326 C.3       7 UNK         0.0196 
     46 CB         25.1498  -31.5068  -43.5132 C.3       7 UNK        -0.2007 
     47 C          24.5310  -32.5310  -41.2532 C.2       7 UNK         0.5020 
     48 O          24.7064  -33.5872  -40.6462 O.2       7 UNK        -0.5147 
     49 N          23.4189  -31.7914  -41.1795 N.am      8 UNK        -0.4734 
     50 CA         22.2038  -32.0429  -40.4055 C.3       8 UNK         0.0238 
     51 CB         21.5596  -33.3923  -40.7883 C.3       8 UNK        -0.1912 
     52 C          21.2330  -30.8861  -40.6915 C.2       8 UNK         0.5038 
     53 O          21.3808  -30.2189  -41.7181 O.2       8 UNK        -0.5046 
     54 N          20.2491  -30.6850  -39.8049 N.am      9 UNK        -0.4200 
     55 CA         19.2504  -29.6021  -39.8740 C.3       9 UNK         0.0839 
     56 C          19.9146  -28.1941  -39.7862 C.2       9 UNK         0.5513 
     57 N          19.5612  -27.2347  -40.6310 N.am      9 UNK        -0.7519 
     58 O          20.7281  -27.9515  -38.8982 O.2       9 UNK        -0.4960 
     59 C59        18.2375  -29.7740  -41.0449 C.3       10 UNK        -0.0876 
     60 S60        17.1879  -31.2585  -40.8726 S.3       10 UNK        -0.2414 
     61 C61        17.9715  -32.4581  -41.9976 C.3       10 UNK         0.0169 
     62 H62        17.1521  -25.0952  -41.2253 H         1 UNK         0.0903 
     63 H63        15.4277  -25.3031  -41.5401 H         1 UNK         0.0903 
     64 H64        16.3407  -26.5860  -40.7428 H         1 UNK         0.0903 
     65 H65        14.9707  -25.8426  -43.6622 H         1 UNK         0.3096 
     66 H66        15.0372  -26.6261  -45.7135 H         1 UNK         0.1121 
     67 H67        15.3780  -28.8281  -44.3082 H         1 UNK         0.0849 
     68 H68        17.0112  -28.7921  -44.9052 H         1 UNK         0.0849 
     69 H69        14.7403  -31.4008  -45.6661 H         1 UNK         0.0865 
     70 H70        15.5898  -31.6479  -47.1705 H         1 UNK         0.0865 
     71 H71        15.8992  -32.0234  -43.7052 H         1 UNK         0.1346 
     72 H72        20.1695  -31.7732  -43.4603 H         1 UNK         0.1412 
     73 H73        18.1734  -30.6944  -47.0946 H         1 UNK         0.1426 
     74 H74        20.7477  -31.3438  -46.9356 H         1 UNK         0.0716 
     75 H75        21.4849  -31.1919  -45.3590 H         1 UNK         0.0716 
     76 H76        21.8382  -28.9873  -44.0768 H         1 UNK         0.0695 
     77 H77        20.1240  -28.6640  -43.9378 H         1 UNK         0.0695 
     78 H78        22.1279  -26.7139  -45.2006 H         1 UNK         0.0983 
     79 H79        19.2763  -26.3185  -44.4178 H         1 UNK         0.3095 
     80 H80        18.8627  -23.5124  -45.4862 H         1 UNK         0.0454 
     81 H81        17.6586  -23.4238  -47.6922 H         1 UNK         0.0851 
     82 H82        18.6041  -24.8039  -48.2504 H         1 UNK         0.0851 
     83 H83        19.3988  -23.2872  -47.8671 H         1 UNK         0.0851 
     84 H84        17.1688  -24.7274  -44.7777 H         1 UNK         0.2976 
     85 H85        23.1580  -27.8408  -42.9665 H         1 UNK         0.3116 
     86 H86        22.6221  -26.1343  -40.6588 H         1 UNK         0.0646 
     87 H87        25.3307  -26.1005  -42.1291 H         1 UNK         0.0847 
     88 H88        25.0076  -25.3517  -40.5704 H         1 UNK         0.0847 
     89 H89        24.2203  -24.7366  -42.0129 H         1 UNK         0.0847 
     90 H90        23.6849  -26.9197  -38.8061 H         1 UNK         0.3040 
     91 H91        23.4464  -29.6384  -38.4431 H         1 UNK         0.1015 
     92 H92        24.8765  -27.5792  -36.6775 H         1 UNK         0.0786 
     93 H93        24.3105  -29.1548  -36.1398 H         1 UNK         0.0786 
     94 H94        23.1501  -27.9474  -36.6622 H         1 UNK         0.0786 
     95 H95        26.2554  -28.1272  -39.6748 H         1 UNK         0.3172 
     96 H96        28.2660  -30.0512  -38.9580 H         1 UNK         0.0595 
     97 H97        28.0300  -28.2136  -41.4065 H         1 UNK         0.0839 
     98 H98        29.4781  -29.0830  -40.9199 H         1 UNK         0.0839 
     99 H99        28.8369  -27.8162  -39.8881 H         1 UNK         0.0839 
    100 H100       25.6387  -30.0396  -41.2951 H         1 UNK         0.2998 
    101 H101       26.3915  -32.7619  -42.2880 H         1 UNK         0.0822 
    102 H102       25.9810  -31.2087  -44.1522 H         1 UNK         0.0787 
    103 H103       24.6213  -32.3123  -44.0246 H         1 UNK         0.0787 
    104 H104       24.4686  -30.6576  -43.4452 H         1 UNK         0.0787 
    105 H105       23.3861  -30.9039  -41.6747 H         1 UNK         0.3055 
    106 H106       22.4632  -32.0386  -39.3451 H         1 UNK         0.1106 
    107 H107       20.6325  -33.5542  -40.2379 H         1 UNK         0.0828 
    108 H108       21.3279  -33.4398  -41.8529 H         1 UNK         0.0828 
    109 H109       22.2065  -34.2359  -40.5513 H         1 UNK         0.0828 
    110 H110       20.1993  -31.2686  -38.9830 H         1 UNK         0.2931 
    111 H111       18.6765  -29.6825  -38.9500 H         1 UNK         0.0412 
    112 H112       18.9218  -27.3983  -41.4006 H         1 UNK         0.3472 
    113 H113       20.0107  -26.3358  -40.5596 H         1 UNK         0.3472 
    114 H114       18.7455  -29.7618  -42.0094 H         1 UNK         0.0970 
    115 H115       17.5447  -28.9326  -41.0667 H         1 UNK         0.0970 
    116 H116       17.4117  -33.3934  -41.9578 H         1 UNK         0.0612 
    117 H117       18.9691  -32.6852  -41.6294 H         1 UNK         0.0612 
@<TRIPOS>BOND
     1    1    2 1    
     2    1   62 1    
     3    1   63 1    
     4    1   64 1    
     5    2    3 2    
     6    2    4 am   BACKBONE|DICT|INTERRES
     7    4    5 1    
     8    4   65 1    
     9    5    6 1    
    10    5   25 1    
    11    5   66 1    
    12    6    7 1    
    13    6   67 1    
    14    6   68 1    
    15    7    8 1    
    16    8    9 1    
    17    8   69 1    
    18    8   70 1    
    19    9   10 ar   
    20    9   14 ar   
    21   10   11 ar   
    22   10   71 1    
    23   11   12 ar   
    24   11   61 1    
    25   12   13 ar   
    26   12   72 1    
    27   13   14 ar   
    28   13   15 1    
    29   14   73 1    
    30   15   16 1    
    31   15   74 1    
    32   15   75 1    
    33   16   17 1    
    34   17   18 1    
    35   17   76 1    
    36   17   77 1    
    37   18   19 1    
    38   18   27 1    
    39   18   78 1    
    40   19   20 am   BACKBONE|DICT|INTERRES
    41   19   79 1    
    42   20   21 2    
    43   20   22 1    
    44   22   23 1    
    45   22   24 1    
    46   22   80 1    
    47   23   81 1    
    48   23   82 1    
    49   23   83 1    
    50   24   25 am   BACKBONE|DICT|INTERRES
    51   24   84 1    
    52   25   26 2    
    53   27   28 2    
    54   27   29 am   BACKBONE|DICT|INTERRES
    55   29   30 1    
    56   29   85 1    
    57   30   31 1    
    58   30   32 1    
    59   30   86 1    
    60   31   87 1    
    61   31   88 1    
    62   31   89 1    
    63   32   33 2    
    64   32   34 am   BACKBONE|DICT|INTERRES
    65   34   35 1    
    66   34   90 1    
    67   35   36 1    
    68   35   37 1    
    69   35   91 1    
    70   36   92 1    
    71   36   93 1    
    72   36   94 1    
    73   37   38 2    
    74   37   39 am   BACKBONE|DICT|INTERRES
    75   39   40 1    
    76   39   95 1    
    77   40   41 1    
    78   40   42 1    
    79   40   96 1    
    80   41   97 1    
    81   41   98 1    
    82   41   99 1    
    83   42   43 2    
    84   42   44 am   BACKBONE|DICT|INTERRES
    85   44   45 1    
    86   44  100 1    
    87   45   46 1    
    88   45   47 1    
    89   45  101 1    
    90   46  102 1    
    91   46  103 1    
    92   46  104 1    
    93   47   48 2    
    94   47   49 am   BACKBONE|DICT|INTERRES
    95   49   50 1    
    96   49  105 1    
    97   50   51 1    
    98   50   52 1    
    99   50  106 1    
   100   51  107 1    
   101   51  108 1    
   102   51  109 1    
   103   52   53 2    
   104   52   54 am   BACKBONE|DICT|INTERRES
   105   54   55 1    
   106   54  110 1    
   107   55   56 1    
   108   55   59 1    
   109   55  111 1    
   110   56   57 am   BACKBONE|DICT|INTERRES
   111   56   58 2    
   112   57  112 1    
   113   57  113 1    
   114   59   60 1    
   115   59  114 1    
   116   59  115 1    
   117   60   61 1    
   118   61  116 1    
   119   61  117 1    
@<TRIPOS>SUBSTRUCTURE
     1 UNK         1 GROUP             0       ****    0 ROOT    
