@<TRIPOS>MOLECULE
3R8
117   119    1
SMALL
USER_CHARGES


@<TRIPOS>ATOM
      1 CA         20.1363  -27.1470  -49.1614 C.3       0 UNK        -0.2013 
      2 C          19.7179  -27.4323  -47.7274 C.2       0 UNK         0.4866 
      3 O          20.3298  -28.2702  -47.0650 O.2       0 UNK        -0.5176 
      4 N          18.6925  -26.7282  -47.2314 N.am      1 UNK        -0.4884 
      5 CA         18.0922  -26.8852  -45.8974 C.3       1 UNK         0.0853 
      6 C6         16.6412  -26.3350  -45.8583 C.3       10 UNK        -0.0849 
      7 S7         15.5317  -27.2223  -47.0016 S.3       10 UNK        -0.2776 
      8 C8         14.4076  -28.0700  -45.8405 C.3       10 UNK         0.0316 
      9 C9         15.1165  -29.0992  -44.9663 C.ar      10 UNK        -0.0863 
     10 C10        15.7863  -30.1770  -45.5536 C.ar      10 UNK        -0.1009 
     11 C11        16.4056  -31.1450  -44.7596 C.ar      10 UNK        -0.0712 
     12 C12        16.3248  -31.0488  -43.3692 C.ar      10 UNK        -0.0894 
     13 C13        15.6801  -29.9673  -42.7653 C.ar      10 UNK        -0.0745 
     14 C14        15.0767  -28.9937  -43.5702 C.ar      10 UNK        -0.0972 
     15 C15        15.6193  -29.8682  -41.2443 C.3       10 UNK         0.0209 
     16 S16        17.2630  -29.9748  -40.4539 S.3       10 UNK        -0.2568 
     17 C17        18.0191  -28.4049  -40.9824 C.3       10 UNK        -0.0983 
     18 CA         19.5502  -28.5191  -41.2081 C.3       3 UNK         0.0876 
     19 N          19.9892  -27.4812  -42.1380 N.am      3 UNK        -0.4424 
     20 C          21.2167  -27.1946  -42.5915 C.2       2 UNK         0.4918 
     21 O          22.2625  -27.7026  -42.1798 O.2       2 UNK        -0.4875 
     22 CA         21.2478  -26.1742  -43.7498 C.3       2 UNK         0.0481 
     23 CB         22.6414  -26.0313  -44.3818 C.3       2 UNK        -0.1831 
     24 N          20.2816  -26.5306  -44.7974 N.am      2 UNK        -0.4498 
     25 C          18.9642  -26.2868  -44.7666 C.2       1 UNK         0.5027 
     26 O          18.4361  -25.6538  -43.8500 O.2       1 UNK        -0.4969 
     27 C          20.3406  -28.4700  -39.8891 C.2       3 UNK         0.5005 
     28 O          20.0943  -27.5835  -39.0680 O.2       3 UNK        -0.5279 
     29 N          21.3230  -29.3712  -39.7471 N.am      4 UNK        -0.4463 
     30 CA         22.2807  -29.5240  -38.6412 C.3       4 UNK         0.0283 
     31 CB         21.5610  -29.8386  -37.3160 C.3       4 UNK        -0.1875 
     32 C          23.2747  -28.3581  -38.4628 C.2       4 UNK         0.4949 
     33 O          24.3889  -28.6001  -38.0015 O.2       4 UNK        -0.5039 
     34 N          22.8924  -27.1352  -38.8516 N.am      5 UNK        -0.4663 
     35 CA         23.6770  -25.8992  -38.7671 C.3       5 UNK         0.0242 
     36 CB         22.8280  -24.7317  -39.2957 C.3       5 UNK        -0.1982 
     37 C          25.0254  -25.9569  -39.5042 C.2       5 UNK         0.5017 
     38 O          26.0072  -25.4079  -39.0035 O.2       5 UNK        -0.5012 
     39 N          25.0513  -26.6420  -40.6547 N.am      6 UNK        -0.4439 
     40 CA         26.2625  -26.9216  -41.4335 C.3       6 UNK         0.0297 
     41 CB         25.9976  -26.5643  -42.9066 C.3       6 UNK        -0.2006 
     42 C          26.7117  -28.3888  -41.2923 C.2       6 UNK         0.4892 
     43 O          27.5121  -28.8460  -42.1094 O.2       6 UNK        -0.5089 
     44 N          26.1675  -29.1112  -40.2971 N.am      7 UNK        -0.4243 
     45 CA         26.2672  -30.5644  -40.0964 C.3       7 UNK         0.0196 
     46 CB         27.7051  -30.9742  -39.7128 C.3       7 UNK        -0.2007 
     47 C          25.7086  -31.3594  -41.2956 C.2       7 UNK         0.5020 
     48 O          26.2441  -32.4132  -41.6434 O.2       7 UNK        -0.5147 
     49 N          24.6536  -30.8203  -41.9188 N.am      8 UNK        -0.4734 
     50 CA         24.0410  -31.3223  -43.1440 C.3       8 UNK         0.0238 
     51 CB         24.2525  -30.2752  -44.2519 C.3       8 UNK        -0.1912 
     52 C          22.5435  -31.5592  -42.9268 C.2       8 UNK         0.5038 
     53 O          21.9458  -30.9631  -42.0261 O.2       8 UNK        -0.5046 
     54 N          21.9667  -32.4019  -43.7915 N.am      9 UNK        -0.4200 
     55 CA         20.5313  -32.7150  -43.8774 C.3       9 UNK         0.0839 
     56 C          19.9300  -33.4580  -42.6432 C.2       9 UNK         0.5513 
     57 N          20.7373  -34.0120  -41.7469 N.am      9 UNK        -0.7519 
     58 O          18.7152  -33.5711  -42.5112 O.2       9 UNK        -0.4960 
     59 C59        19.6911  -31.4838  -44.3450 C.3       10 UNK        -0.0876 
     60 S60        18.8330  -31.7837  -45.9303 S.3       10 UNK        -0.2414 
     61 C61        17.1670  -32.2929  -45.4016 C.3       10 UNK         0.0169 
     62 H62        19.5122  -26.3830  -49.6247 H         1 UNK         0.0903 
     63 H63        21.1703  -26.8044  -49.1895 H         1 UNK         0.0903 
     64 H64        20.0615  -28.0545  -49.7600 H         1 UNK         0.0903 
     65 H65        18.2410  -26.0434  -47.8215 H         1 UNK         0.3096 
     66 H66        18.0370  -27.9559  -45.6835 H         1 UNK         0.1121 
     67 H67        16.6272  -25.2739  -46.1136 H         1 UNK         0.0849 
     68 H68        16.2234  -26.4050  -44.8521 H         1 UNK         0.0849 
     69 H69        13.8967  -27.3231  -45.2306 H         1 UNK         0.0865 
     70 H70        13.6293  -28.5755  -46.4138 H         1 UNK         0.0865 
     71 H71        15.8337  -30.2572  -46.6313 H         1 UNK         0.1346 
     72 H72        16.7873  -31.8058  -42.7508 H         1 UNK         0.1412 
     73 H73        14.5619  -28.1619  -43.1087 H         1 UNK         0.1426 
     74 H74        15.1368  -28.9407  -40.9318 H         1 UNK         0.0716 
     75 H75        14.9972  -30.6810  -40.8673 H         1 UNK         0.0716 
     76 H76        17.7671  -27.6228  -40.2636 H         1 UNK         0.0695 
     77 H77        17.5358  -28.1064  -41.9140 H         1 UNK         0.0695 
     78 H78        19.7532  -29.4720  -41.7006 H         1 UNK         0.0983 
     79 H79        19.2423  -26.9235  -42.5363 H         1 UNK         0.3095 
     80 H80        20.9752  -25.2027  -43.3324 H         1 UNK         0.0454 
     81 H81        23.0140  -26.9825  -44.7635 H         1 UNK         0.0851 
     82 H82        22.6337  -25.3181  -45.2060 H         1 UNK         0.0851 
     83 H83        23.3561  -25.6629  -43.6468 H         1 UNK         0.0851 
     84 H84        20.6172  -27.1210  -45.5543 H         1 UNK         0.2976 
     85 H85        21.4950  -29.9885  -40.5421 H         1 UNK         0.3116 
     86 H86        22.8802  -30.3976  -38.9023 H         1 UNK         0.0646 
     87 H87        20.9093  -30.7066  -37.4149 H         1 UNK         0.0847 
     88 H88        22.2803  -30.0617  -36.5269 H         1 UNK         0.0847 
     89 H89        20.9544  -29.0007  -36.9712 H         1 UNK         0.0847 
     90 H90        21.9266  -27.0445  -39.1539 H         1 UNK         0.3040 
     91 H91        23.8911  -25.7216  -37.7110 H         1 UNK         0.1015 
     92 H92        22.5503  -24.8759  -40.3409 H         1 UNK         0.0786 
     93 H93        23.3731  -23.7890  -39.2286 H         1 UNK         0.0786 
     94 H94        21.9103  -24.6158  -38.7186 H         1 UNK         0.0786 
     95 H95        24.1853  -27.0478  -40.9916 H         1 UNK         0.3172 
     96 H96        27.0921  -26.3037  -41.0848 H         1 UNK         0.0595 
     97 H97        25.2280  -27.2029  -43.3413 H         1 UNK         0.0839 
     98 H98        26.8982  -26.6852  -43.5100 H         1 UNK         0.0839 
     99 H99        25.6822  -25.5264  -43.0117 H         1 UNK         0.0839 
    100 H100       25.5662  -28.6331  -39.6337 H         1 UNK         0.2998 
    101 H101       25.6218  -30.8026  -39.2497 H         1 UNK         0.0822 
    102 H102       27.7491  -32.0272  -39.4320 H         1 UNK         0.0787 
    103 H103       28.4030  -30.8297  -40.5379 H         1 UNK         0.0787 
    104 H104       28.0672  -30.3977  -38.8616 H         1 UNK         0.0787 
    105 H105       24.2230  -29.9922  -41.5327 H         1 UNK         0.3055 
    106 H106       24.5024  -32.2653  -43.4462 H         1 UNK         0.1106 
    107 H107       25.3127  -30.0748  -44.4095 H         1 UNK         0.0828 
    108 H108       23.8422  -30.6157  -45.2034 H         1 UNK         0.0828 
    109 H109       23.7676  -29.3289  -44.0079 H         1 UNK         0.0828 
    110 H110       22.5444  -32.8551  -44.4848 H         1 UNK         0.2931 
    111 H111       20.4905  -33.4714  -44.6619 H         1 UNK         0.0412 
    112 H112       20.3382  -34.5006  -40.9609 H         1 UNK         0.3472 
    113 H113       21.7371  -33.9368  -41.8413 H         1 UNK         0.3472 
    114 H114       18.9908  -31.1507  -43.5804 H         1 UNK         0.0970 
    115 H115       20.3312  -30.6161  -44.5126 H         1 UNK         0.0970 
    116 H116       16.6170  -32.6508  -46.2730 H         1 UNK         0.0612 
    117 H117       17.2422  -33.1412  -44.7203 H         1 UNK         0.0612 
@<TRIPOS>BOND
     1    1    2 1    
     2    1   62 1    
     3    1   63 1    
     4    1   64 1    
     5    2    3 2    
     6    2    4 am   BACKBONE|DICT|INTERRES
     7    4    5 1    
     8    4   65 1    
     9    5    6 1    
    10    5   25 1    
    11    5   66 1    
    12    6    7 1    
    13    6   67 1    
    14    6   68 1    
    15    7    8 1    
    16    8    9 1    
    17    8   69 1    
    18    8   70 1    
    19    9   10 ar   
    20    9   14 ar   
    21   10   11 ar   
    22   10   71 1    
    23   11   12 ar   
    24   11   61 1    
    25   12   13 ar   
    26   12   72 1    
    27   13   14 ar   
    28   13   15 1    
    29   14   73 1    
    30   15   16 1    
    31   15   74 1    
    32   15   75 1    
    33   16   17 1    
    34   17   18 1    
    35   17   76 1    
    36   17   77 1    
    37   18   19 1    
    38   18   27 1    
    39   18   78 1    
    40   19   20 am   BACKBONE|DICT|INTERRES
    41   19   79 1    
    42   20   21 2    
    43   20   22 1    
    44   22   23 1    
    45   22   24 1    
    46   22   80 1    
    47   23   81 1    
    48   23   82 1    
    49   23   83 1    
    50   24   25 am   BACKBONE|DICT|INTERRES
    51   24   84 1    
    52   25   26 2    
    53   27   28 2    
    54   27   29 am   BACKBONE|DICT|INTERRES
    55   29   30 1    
    56   29   85 1    
    57   30   31 1    
    58   30   32 1    
    59   30   86 1    
    60   31   87 1    
    61   31   88 1    
    62   31   89 1    
    63   32   33 2    
    64   32   34 am   BACKBONE|DICT|INTERRES
    65   34   35 1    
    66   34   90 1    
    67   35   36 1    
    68   35   37 1    
    69   35   91 1    
    70   36   92 1    
    71   36   93 1    
    72   36   94 1    
    73   37   38 2    
    74   37   39 am   BACKBONE|DICT|INTERRES
    75   39   40 1    
    76   39   95 1    
    77   40   41 1    
    78   40   42 1    
    79   40   96 1    
    80   41   97 1    
    81   41   98 1    
    82   41   99 1    
    83   42   43 2    
    84   42   44 am   BACKBONE|DICT|INTERRES
    85   44   45 1    
    86   44  100 1    
    87   45   46 1    
    88   45   47 1    
    89   45  101 1    
    90   46  102 1    
    91   46  103 1    
    92   46  104 1    
    93   47   48 2    
    94   47   49 am   BACKBONE|DICT|INTERRES
    95   49   50 1    
    96   49  105 1    
    97   50   51 1    
    98   50   52 1    
    99   50  106 1    
   100   51  107 1    
   101   51  108 1    
   102   51  109 1    
   103   52   53 2    
   104   52   54 am   BACKBONE|DICT|INTERRES
   105   54   55 1    
   106   54  110 1    
   107   55   56 1    
   108   55   59 1    
   109   55  111 1    
   110   56   57 am   BACKBONE|DICT|INTERRES
   111   56   58 2    
   112   57  112 1    
   113   57  113 1    
   114   59   60 1    
   115   59  114 1    
   116   59  115 1    
   117   60   61 1    
   118   61  116 1    
   119   61  117 1    
@<TRIPOS>SUBSTRUCTURE
     1 UNK         1 GROUP             0       ****    0 ROOT    
