@<TRIPOS>MOLECULE
3R8
117   119    1
SMALL
USER_CHARGES


@<TRIPOS>ATOM
      1 CA         14.4167  -22.1067  -43.3383 C.3       0 UNK        -0.2013 
      2 C          15.2940  -23.3133  -43.6373 C.2       0 UNK         0.4866 
      3 O          15.4151  -23.7098  -44.7968 O.2       0 UNK        -0.5176 
      4 N          15.8999  -23.9058  -42.6004 N.am      1 UNK        -0.4884 
      5 CA         16.8352  -25.0285  -42.7139 C.3       1 UNK         0.0853 
      6 C6         16.9806  -25.7601  -41.3548 C.3       10 UNK        -0.0849 
      7 S7         17.9097  -27.3250  -41.4710 S.3       10 UNK        -0.2776 
      8 C8         16.6228  -28.4993  -41.9958 C.3       10 UNK         0.0316 
      9 C9         17.2057  -29.5095  -42.9709 C.ar      10 UNK        -0.0863 
     10 C10        17.9560  -30.5891  -42.4947 C.ar      10 UNK        -0.1009 
     11 C11        18.5414  -31.4938  -43.3846 C.ar      10 UNK        -0.0712 
     12 C12        18.3508  -31.3265  -44.7586 C.ar      10 UNK        -0.0894 
     13 C13        17.6141  -30.2441  -45.2482 C.ar      10 UNK        -0.0745 
     14 C14        17.0334  -29.3438  -44.3494 C.ar      10 UNK        -0.0972 
     15 C15        17.4839  -30.0305  -46.7500 C.3       10 UNK         0.0209 
     16 S16        18.5381  -28.6669  -47.3475 S.3       10 UNK        -0.2568 
     17 C17        20.2080  -29.2261  -46.8554 C.3       10 UNK        -0.0983 
     18 CA         21.2943  -28.1287  -47.0234 C.3       3 UNK         0.0876 
     19 N          20.9561  -26.8468  -46.3783 N.am      3 UNK        -0.4424 
     20 C          20.6370  -26.6213  -45.0962 C.2       2 UNK         0.4918 
     21 O          20.7138  -27.4744  -44.2121 O.2       2 UNK        -0.4875 
     22 CA         20.1189  -25.2226  -44.7266 C.3       2 UNK         0.0481 
     23 CB         20.0095  -24.2367  -45.9121 C.3       2 UNK        -0.1831 
     24 N          18.8174  -25.4115  -44.0958 N.am      2 UNK        -0.4498 
     25 C          18.1908  -24.5527  -43.2858 C.2       1 UNK         0.5027 
     26 O          18.6371  -23.4444  -42.9751 O.2       1 UNK        -0.4969 
     27 C          22.6875  -28.6808  -46.6455 C.2       3 UNK         0.5005 
     28 O          23.3849  -29.1971  -47.5208 O.2       3 UNK        -0.5279 
     29 N          23.0750  -28.5602  -45.3730 N.am      4 UNK        -0.4463 
     30 CA         24.3559  -28.9730  -44.8073 C.3       4 UNK         0.0283 
     31 CB         24.1860  -30.3464  -44.1329 C.3       4 UNK        -0.1875 
     32 C          24.8364  -27.9119  -43.8067 C.2       4 UNK         0.4949 
     33 O          24.1288  -26.9357  -43.5466 O.2       4 UNK        -0.5039 
     34 N          26.0387  -28.1256  -43.2555 N.am      5 UNK        -0.4663 
     35 CA         26.6845  -27.2413  -42.2768 C.3       5 UNK         0.0242 
     36 CB         28.1531  -27.6669  -42.1123 C.3       5 UNK        -0.1982 
     37 C          25.9844  -27.1892  -40.9043 C.2       5 UNK         0.5017 
     38 O          26.2002  -26.2318  -40.1599 O.2       5 UNK        -0.5012 
     39 N          25.1685  -28.2020  -40.5928 N.am      6 UNK        -0.4439 
     40 CA         24.3342  -28.2895  -39.4007 C.3       6 UNK         0.0297 
     41 CB         25.1025  -29.0029  -38.2744 C.3       6 UNK        -0.2006 
     42 C          23.0632  -29.0580  -39.7697 C.2       6 UNK         0.4892 
     43 O          23.1224  -29.9502  -40.6192 O.2       6 UNK        -0.5089 
     44 N          21.9553  -28.7316  -39.0908 N.am      7 UNK        -0.4243 
     45 CA         20.6170  -29.2998  -39.3073 C.3       7 UNK         0.0196 
     46 CB         19.6017  -28.5118  -38.4629 C.3       7 UNK        -0.2007 
     47 C          20.4935  -30.8087  -39.0197 C.2       7 UNK         0.5020 
     48 O          19.5050  -31.4193  -39.4237 O.2       7 UNK        -0.5147 
     49 N          21.4835  -31.3912  -38.3308 N.am      8 UNK        -0.4734 
     50 CA         21.6060  -32.8359  -38.1289 C.3       8 UNK         0.0238 
     51 CB         22.6287  -33.1035  -37.0124 C.3       8 UNK        -0.1912 
     52 C          22.0004  -33.5917  -39.4123 C.2       8 UNK         0.5038 
     53 O          21.6877  -34.7782  -39.5188 O.2       8 UNK        -0.5046 
     54 N          22.6809  -32.9061  -40.3453 N.am      9 UNK        -0.4200 
     55 CA         23.1779  -33.4367  -41.6274 C.3       9 UNK         0.0839 
     56 C          24.2029  -34.6067  -41.5010 C.2       9 UNK         0.5513 
     57 N          24.9119  -34.7382  -40.3860 N.am      9 UNK        -0.7519 
     58 O          24.3871  -35.3879  -42.4311 O.2       9 UNK        -0.4960 
     59 C59        22.0315  -33.7241  -42.6392 C.3       10 UNK        -0.0876 
     60 S60        21.1744  -32.1917  -43.1298 S.3       10 UNK        -0.2414 
     61 C61        19.4274  -32.6202  -42.8762 C.3       10 UNK         0.0169 
     62 H62        13.3961  -22.2929  -43.6715 H         1 UNK         0.0903 
     63 H63        14.3887  -21.8757  -42.2736 H         1 UNK         0.0903 
     64 H64        14.7928  -21.2302  -43.8654 H         1 UNK         0.0903 
     65 H65        15.7928  -23.5144  -41.6751 H         1 UNK         0.3096 
     66 H66        16.4019  -25.7323  -43.4286 H         1 UNK         0.1121 
     67 H67        15.9970  -25.9769  -40.9344 H         1 UNK         0.0849 
     68 H68        17.4806  -25.1180  -40.6270 H         1 UNK         0.0849 
     69 H69        16.2185  -29.0090  -41.1199 H         1 UNK         0.0865 
     70 H70        15.7871  -27.9712  -42.4572 H         1 UNK         0.0865 
     71 H71        18.1114  -30.7028  -41.4314 H         1 UNK         0.1346 
     72 H72        18.8195  -32.0154  -45.4481 H         1 UNK         0.1412 
     73 H73        16.4729  -28.5001  -44.7282 H         1 UNK         0.1426 
     74 H74        16.4446  -29.8082  -46.9956 H         1 UNK         0.0716 
     75 H75        17.7383  -30.9415  -47.2940 H         1 UNK         0.0716 
     76 H76        20.4574  -30.1059  -47.4516 H         1 UNK         0.0695 
     77 H77        20.1824  -29.5588  -45.8173 H         1 UNK         0.0695 
     78 H78        21.3492  -27.8985  -48.0889 H         1 UNK         0.0983 
     79 H79        20.8833  -26.0667  -47.0150 H         1 UNK         0.3095 
     80 H80        20.8117  -24.8116  -43.9896 H         1 UNK         0.0454 
     81 H81        19.3074  -24.5863  -46.6703 H         1 UNK         0.0851 
     82 H82        20.9771  -24.0794  -46.3900 H         1 UNK         0.0851 
     83 H83        19.6657  -23.2575  -45.5785 H         1 UNK         0.0851 
     84 H84        18.4277  -26.3378  -44.2154 H         1 UNK         0.2976 
     85 H85        22.4410  -28.0961  -44.7255 H         1 UNK         0.3116 
     86 H86        25.1056  -29.0458  -45.5979 H         1 UNK         0.0646 
     87 H87        23.4959  -30.2913  -43.2903 H         1 UNK         0.0847 
     88 H88        25.1334  -30.7317  -43.7557 H         1 UNK         0.0847 
     89 H89        23.7955  -31.0864  -44.8317 H         1 UNK         0.0847 
     90 H90        26.5591  -28.9469  -43.5302 H         1 UNK         0.3040 
     91 H91        26.6656  -26.2264  -42.6807 H         1 UNK         0.1015 
     92 H92        28.2381  -28.6834  -41.7259 H         1 UNK         0.0786 
     93 H93        28.6749  -27.0093  -41.4154 H         1 UNK         0.0786 
     94 H94        28.6897  -27.6199  -43.0602 H         1 UNK         0.0786 
     95 H95        24.9968  -28.9270  -41.2780 H         1 UNK         0.3172 
     96 H96        24.0528  -27.2855  -39.0752 H         1 UNK         0.0595 
     97 H97        24.4965  -29.0780  -37.3708 H         1 UNK         0.0839 
     98 H98        26.0101  -28.4602  -38.0096 H         1 UNK         0.0839 
     99 H99        25.3908  -30.0150  -38.5616 H         1 UNK         0.0839 
    100 H100       22.0181  -28.0025  -38.3944 H         1 UNK         0.2998 
    101 H101       20.3688  -29.1600  -40.3623 H         1 UNK         0.0822 
    102 H102       18.5872  -28.8755  -38.6335 H         1 UNK         0.0787 
    103 H103       19.8064  -28.6022  -37.3955 H         1 UNK         0.0787 
    104 H104       19.6072  -27.4526  -38.7209 H         1 UNK         0.0787 
    105 H105       22.2475  -30.8132  -38.0137 H         1 UNK         0.3055 
    106 H106       20.6361  -33.2234  -37.8082 H         1 UNK         0.1106 
    107 H107       22.7299  -34.1736  -36.8249 H         1 UNK         0.0828 
    108 H108       23.6182  -32.7226  -37.2681 H         1 UNK         0.0828 
    109 H109       22.3220  -32.6407  -36.0742 H         1 UNK         0.0828 
    110 H110       22.8492  -31.9162  -40.2010 H         1 UNK         0.2931 
    111 H111       23.7732  -32.6260  -42.0492 H         1 UNK         0.0412 
    112 H112       25.5805  -35.4890  -40.3113 H         1 UNK         0.3472 
    113 H113       24.7834  -34.0973  -39.6198 H         1 UNK         0.3472 
    114 H114       21.3235  -34.4451  -42.2280 H         1 UNK         0.0970 
    115 H115       22.4204  -34.1706  -43.5558 H         1 UNK         0.0970 
    116 H116       19.2498  -32.8106  -41.8167 H         1 UNK         0.0612 
    117 H117       19.1941  -33.5431  -43.4091 H         1 UNK         0.0612 
@<TRIPOS>BOND
     1    1    2 1    
     2    1   62 1    
     3    1   63 1    
     4    1   64 1    
     5    2    3 2    
     6    2    4 am   BACKBONE|DICT|INTERRES
     7    4    5 1    
     8    4   65 1    
     9    5    6 1    
    10    5   25 1    
    11    5   66 1    
    12    6    7 1    
    13    6   67 1    
    14    6   68 1    
    15    7    8 1    
    16    8    9 1    
    17    8   69 1    
    18    8   70 1    
    19    9   10 ar   
    20    9   14 ar   
    21   10   11 ar   
    22   10   71 1    
    23   11   12 ar   
    24   11   61 1    
    25   12   13 ar   
    26   12   72 1    
    27   13   14 ar   
    28   13   15 1    
    29   14   73 1    
    30   15   16 1    
    31   15   74 1    
    32   15   75 1    
    33   16   17 1    
    34   17   18 1    
    35   17   76 1    
    36   17   77 1    
    37   18   19 1    
    38   18   27 1    
    39   18   78 1    
    40   19   20 am   BACKBONE|DICT|INTERRES
    41   19   79 1    
    42   20   21 2    
    43   20   22 1    
    44   22   23 1    
    45   22   24 1    
    46   22   80 1    
    47   23   81 1    
    48   23   82 1    
    49   23   83 1    
    50   24   25 am   BACKBONE|DICT|INTERRES
    51   24   84 1    
    52   25   26 2    
    53   27   28 2    
    54   27   29 am   BACKBONE|DICT|INTERRES
    55   29   30 1    
    56   29   85 1    
    57   30   31 1    
    58   30   32 1    
    59   30   86 1    
    60   31   87 1    
    61   31   88 1    
    62   31   89 1    
    63   32   33 2    
    64   32   34 am   BACKBONE|DICT|INTERRES
    65   34   35 1    
    66   34   90 1    
    67   35   36 1    
    68   35   37 1    
    69   35   91 1    
    70   36   92 1    
    71   36   93 1    
    72   36   94 1    
    73   37   38 2    
    74   37   39 am   BACKBONE|DICT|INTERRES
    75   39   40 1    
    76   39   95 1    
    77   40   41 1    
    78   40   42 1    
    79   40   96 1    
    80   41   97 1    
    81   41   98 1    
    82   41   99 1    
    83   42   43 2    
    84   42   44 am   BACKBONE|DICT|INTERRES
    85   44   45 1    
    86   44  100 1    
    87   45   46 1    
    88   45   47 1    
    89   45  101 1    
    90   46  102 1    
    91   46  103 1    
    92   46  104 1    
    93   47   48 2    
    94   47   49 am   BACKBONE|DICT|INTERRES
    95   49   50 1    
    96   49  105 1    
    97   50   51 1    
    98   50   52 1    
    99   50  106 1    
   100   51  107 1    
   101   51  108 1    
   102   51  109 1    
   103   52   53 2    
   104   52   54 am   BACKBONE|DICT|INTERRES
   105   54   55 1    
   106   54  110 1    
   107   55   56 1    
   108   55   59 1    
   109   55  111 1    
   110   56   57 am   BACKBONE|DICT|INTERRES
   111   56   58 2    
   112   57  112 1    
   113   57  113 1    
   114   59   60 1    
   115   59  114 1    
   116   59  115 1    
   117   60   61 1    
   118   61  116 1    
   119   61  117 1    
@<TRIPOS>SUBSTRUCTURE
     1 UNK         1 GROUP             0       ****    0 ROOT    
