@<TRIPOS>MOLECULE
3R8
117   119    1
SMALL
USER_CHARGES


@<TRIPOS>ATOM
      1 CA         17.5885  -22.4842  -44.7746 C.3       0 UNK        -0.2013 
      2 C          17.0943  -22.7309  -43.3509 C.2       0 UNK         0.4866 
      3 O          16.7459  -21.7728  -42.6639 O.2       0 UNK        -0.5176 
      4 N          17.0257  -23.9771  -42.8599 N.am      1 UNK        -0.4884 
      5 CA         17.4834  -25.2215  -43.4861 C.3       1 UNK         0.0853 
      6 C6         16.8520  -26.4455  -42.7685 C.3       10 UNK        -0.0849 
      7 S7         17.5361  -28.0603  -43.2659 S.3       10 UNK        -0.2776 
      8 C8         16.2119  -28.8037  -44.2673 C.3       10 UNK         0.0316 
      9 C9         16.7400  -30.1197  -44.8059 C.ar      10 UNK        -0.0863 
     10 C10        16.5521  -31.3047  -44.0887 C.ar      10 UNK        -0.1009 
     11 C11        17.2475  -32.4643  -44.4472 C.ar      10 UNK        -0.0712 
     12 C12        18.1096  -32.4375  -45.5471 C.ar      10 UNK        -0.0894 
     13 C13        18.2916  -31.2588  -46.2752 C.ar      10 UNK        -0.0745 
     14 C14        17.5664  -30.1155  -45.9312 C.ar      10 UNK        -0.0972 
     15 C15        19.3926  -31.1723  -47.3213 C.3       10 UNK         0.0209 
     16 S16        20.6909  -29.9605  -46.8673 S.3       10 UNK        -0.2568 
     17 C17        20.8791  -30.1648  -45.0538 C.3       10 UNK        -0.0983 
     18 CA         21.6477  -28.9972  -44.3930 C.3       3 UNK         0.0876 
     19 N          21.1115  -27.6771  -44.7435 N.am      3 UNK        -0.4424 
     20 C          21.7619  -26.5272  -44.5198 C.2       2 UNK         0.4918 
     21 O          22.8666  -26.4639  -43.9827 O.2       2 UNK        -0.4875 
     22 CA         21.0575  -25.2285  -44.9408 C.3       2 UNK         0.0481 
     23 CB         21.3456  -24.9167  -46.4173 C.3       2 UNK        -0.1831 
     24 N          19.6101  -25.2545  -44.7167 N.am      2 UNK        -0.4498 
     25 C          19.0296  -25.2509  -43.5075 C.2       1 UNK         0.5027 
     26 O          19.6567  -25.2711  -42.4451 O.2       1 UNK        -0.4969 
     27 C          21.7120  -29.1835  -42.8649 C.2       3 UNK         0.5005 
     28 O          22.6778  -29.7620  -42.3705 O.2       3 UNK        -0.5279 
     29 N          20.7146  -28.6576  -42.1368 N.am      4 UNK        -0.4463 
     30 CA         20.6974  -28.6256  -40.6731 C.3       4 UNK         0.0283 
     31 CB         19.3060  -28.2272  -40.1615 C.3       4 UNK        -0.1875 
     32 C          21.7812  -27.7032  -40.0968 C.2       4 UNK         0.4949 
     33 O          22.4419  -28.0868  -39.1328 O.2       4 UNK        -0.5039 
     34 N          21.9899  -26.5353  -40.7240 N.am      5 UNK        -0.4663 
     35 CA         23.0723  -25.6023  -40.3866 C.3       5 UNK         0.0242 
     36 CB         22.8869  -24.2905  -41.1656 C.3       5 UNK        -0.1982 
     37 C          24.4736  -26.1962  -40.6289 C.2       5 UNK         0.5017 
     38 O          25.3818  -25.9495  -39.8354 O.2       5 UNK        -0.5012 
     39 N          24.6083  -27.0008  -41.6921 N.am      6 UNK        -0.4439 
     40 CA         25.8065  -27.7766  -42.0262 C.3       6 UNK         0.0297 
     41 CB         25.7552  -28.1443  -43.5189 C.3       6 UNK        -0.2006 
     42 C          25.9933  -29.0470  -41.1691 C.2       6 UNK         0.4892 
     43 O          27.0363  -29.6904  -41.2925 O.2       6 UNK        -0.5089 
     44 N          24.9943  -29.3971  -40.3432 N.am      7 UNK        -0.4243 
     45 CA         24.9040  -30.5933  -39.4945 C.3       7 UNK         0.0196 
     46 CB         26.0120  -30.6035  -38.4197 C.3       7 UNK        -0.2007 
     47 C          24.8191  -31.9151  -40.2870 C.2       7 UNK         0.5020 
     48 O          25.2007  -32.9662  -39.7700 O.2       7 UNK        -0.5147 
     49 N          24.2889  -31.8509  -41.5148 N.am      8 UNK        -0.4734 
     50 CA         23.9659  -33.0039  -42.3609 C.3       8 UNK         0.0238 
     51 CB         24.1818  -32.6129  -43.8324 C.3       8 UNK        -0.1912 
     52 C          22.5249  -33.5009  -42.1327 C.2       8 UNK         0.5038 
     53 O          22.1917  -34.6034  -42.5680 O.2       8 UNK        -0.5046 
     54 N          21.7081  -32.6907  -41.4521 N.am      9 UNK        -0.4200 
     55 CA         20.3478  -32.9880  -40.9949 C.3       9 UNK         0.0839 
     56 C          20.1202  -32.3651  -39.5856 C.2       9 UNK         0.5513 
     57 N          18.8944  -32.3582  -39.0848 N.am      9 UNK        -0.7519 
     58 O          21.0498  -31.9007  -38.9271 O.2       9 UNK        -0.4960 
     59 C59        19.2917  -32.5860  -42.0649 C.3       10 UNK        -0.0876 
     60 S60        17.6858  -33.4453  -41.8715 S.3       10 UNK        -0.2414 
     61 C61        17.1481  -33.7221  -43.5942 C.3       10 UNK         0.0169 
     62 H62        17.3030  -21.4849  -45.1029 H         1 UNK         0.0903 
     63 H63        18.6751  -22.5464  -44.8215 H         1 UNK         0.0903 
     64 H64        17.1582  -23.1890  -45.4841 H         1 UNK         0.0903 
     65 H65        16.7088  -24.0809  -41.9064 H         1 UNK         0.3096 
     66 H66        17.1211  -25.2470  -44.5150 H         1 UNK         0.1121 
     67 H67        16.9970  -26.3601  -41.6901 H         1 UNK         0.0849 
     68 H68        15.7714  -26.4493  -42.9204 H         1 UNK         0.0849 
     69 H69        15.3203  -28.9591  -43.6576 H         1 UNK         0.0865 
     70 H70        15.9336  -28.1361  -45.0843 H         1 UNK         0.0865 
     71 H71        15.9357  -31.3052  -43.2000 H         1 UNK         0.1346 
     72 H72        18.6903  -33.3157  -45.7944 H         1 UNK         0.1412 
     73 H73        17.7499  -29.1895  -46.4591 H         1 UNK         0.1426 
     74 H74        18.9598  -30.8911  -48.2822 H         1 UNK         0.0716 
     75 H75        19.8635  -32.1456  -47.4674 H         1 UNK         0.0716 
     76 H76        21.3838  -31.1144  -44.8697 H         1 UNK         0.0695 
     77 H77        19.9026  -30.2474  -44.5787 H         1 UNK         0.0695 
     78 H78        22.6751  -29.0362  -44.7614 H         1 UNK         0.0983 
     79 H79        20.2134  -27.6592  -45.2031 H         1 UNK         0.3095 
     80 H80        21.4743  -24.4178  -44.3394 H         1 UNK         0.0454 
     81 H81        20.9258  -23.9541  -46.7096 H         1 UNK         0.0851 
     82 H82        20.9365  -25.6787  -47.0819 H         1 UNK         0.0851 
     83 H83        22.4198  -24.8676  -46.6019 H         1 UNK         0.0851 
     84 H84        19.0295  -25.2530  -45.5432 H         1 UNK         0.2976 
     85 H85        19.9464  -28.2042  -42.6139 H         1 UNK         0.3116 
     86 H86        20.9086  -29.6342  -40.3182 H         1 UNK         0.0646 
     87 H87        18.5444  -28.9326  -40.4944 H         1 UNK         0.0847 
     88 H88        19.0196  -27.2317  -40.5016 H         1 UNK         0.0847 
     89 H89        19.2809  -28.2191  -39.0710 H         1 UNK         0.0847 
     90 H90        21.3731  -26.2696  -41.4834 H         1 UNK         0.3040 
     91 H91        22.9939  -25.3781  -39.3204 H         1 UNK         0.1015 
     92 H92        23.6453  -23.5596  -40.8820 H         1 UNK         0.0786 
     93 H93        21.9132  -23.8433  -40.9638 H         1 UNK         0.0786 
     94 H94        22.9680  -24.4415  -42.2418 H         1 UNK         0.0786 
     95 H95        23.8267  -27.0728  -42.3365 H         1 UNK         0.3172 
     96 H96        26.6810  -27.1436  -41.8628 H         1 UNK         0.0595 
     97 H97        24.9197  -28.8084  -43.7405 H         1 UNK         0.0839 
     98 H98        26.6673  -28.6564  -43.8284 H         1 UNK         0.0839 
     99 H99        25.6545  -27.2575  -44.1450 H         1 UNK         0.0839 
    100 H100       24.1754  -28.8015  -40.3239 H         1 UNK         0.2998 
    101 H101       23.9493  -30.5077  -38.9727 H         1 UNK         0.0822 
    102 H102       26.0399  -29.6622  -37.8707 H         1 UNK         0.0787 
    103 H103       25.8419  -31.3968  -37.6908 H         1 UNK         0.0787 
    104 H104       26.9981  -30.7697  -38.8540 H         1 UNK         0.0787 
    105 H105       23.9423  -30.9497  -41.8429 H         1 UNK         0.3055 
    106 H106       24.6365  -33.8330  -42.1245 H         1 UNK         0.1106 
    107 H107       23.5570  -31.7690  -44.1234 H         1 UNK         0.0828 
    108 H108       23.9435  -33.4431  -44.4988 H         1 UNK         0.0828 
    109 H109       25.2200  -32.3370  -44.0178 H         1 UNK         0.0828 
    110 H110       22.0886  -31.8201  -41.1057 H         1 UNK         0.2931 
    111 H111       20.2898  -34.0673  -40.8417 H         1 UNK         0.0412 
    112 H112       18.7330  -31.9684  -38.1697 H         1 UNK         0.3472 
    113 H113       18.1265  -32.7342  -39.6225 H         1 UNK         0.3472 
    114 H114       19.1259  -31.5068  -42.0667 H         1 UNK         0.0970 
    115 H115       19.6778  -32.8276  -43.0562 H         1 UNK         0.0970 
    116 H116       17.7472  -34.5291  -44.0190 H         1 UNK         0.0612 
    117 H117       16.1153  -34.0725  -43.5912 H         1 UNK         0.0612 
@<TRIPOS>BOND
     1    1    2 1    
     2    1   62 1    
     3    1   63 1    
     4    1   64 1    
     5    2    3 2    
     6    2    4 am   BACKBONE|DICT|INTERRES
     7    4    5 1    
     8    4   65 1    
     9    5    6 1    
    10    5   25 1    
    11    5   66 1    
    12    6    7 1    
    13    6   67 1    
    14    6   68 1    
    15    7    8 1    
    16    8    9 1    
    17    8   69 1    
    18    8   70 1    
    19    9   10 ar   
    20    9   14 ar   
    21   10   11 ar   
    22   10   71 1    
    23   11   12 ar   
    24   11   61 1    
    25   12   13 ar   
    26   12   72 1    
    27   13   14 ar   
    28   13   15 1    
    29   14   73 1    
    30   15   16 1    
    31   15   74 1    
    32   15   75 1    
    33   16   17 1    
    34   17   18 1    
    35   17   76 1    
    36   17   77 1    
    37   18   19 1    
    38   18   27 1    
    39   18   78 1    
    40   19   20 am   BACKBONE|DICT|INTERRES
    41   19   79 1    
    42   20   21 2    
    43   20   22 1    
    44   22   23 1    
    45   22   24 1    
    46   22   80 1    
    47   23   81 1    
    48   23   82 1    
    49   23   83 1    
    50   24   25 am   BACKBONE|DICT|INTERRES
    51   24   84 1    
    52   25   26 2    
    53   27   28 2    
    54   27   29 am   BACKBONE|DICT|INTERRES
    55   29   30 1    
    56   29   85 1    
    57   30   31 1    
    58   30   32 1    
    59   30   86 1    
    60   31   87 1    
    61   31   88 1    
    62   31   89 1    
    63   32   33 2    
    64   32   34 am   BACKBONE|DICT|INTERRES
    65   34   35 1    
    66   34   90 1    
    67   35   36 1    
    68   35   37 1    
    69   35   91 1    
    70   36   92 1    
    71   36   93 1    
    72   36   94 1    
    73   37   38 2    
    74   37   39 am   BACKBONE|DICT|INTERRES
    75   39   40 1    
    76   39   95 1    
    77   40   41 1    
    78   40   42 1    
    79   40   96 1    
    80   41   97 1    
    81   41   98 1    
    82   41   99 1    
    83   42   43 2    
    84   42   44 am   BACKBONE|DICT|INTERRES
    85   44   45 1    
    86   44  100 1    
    87   45   46 1    
    88   45   47 1    
    89   45  101 1    
    90   46  102 1    
    91   46  103 1    
    92   46  104 1    
    93   47   48 2    
    94   47   49 am   BACKBONE|DICT|INTERRES
    95   49   50 1    
    96   49  105 1    
    97   50   51 1    
    98   50   52 1    
    99   50  106 1    
   100   51  107 1    
   101   51  108 1    
   102   51  109 1    
   103   52   53 2    
   104   52   54 am   BACKBONE|DICT|INTERRES
   105   54   55 1    
   106   54  110 1    
   107   55   56 1    
   108   55   59 1    
   109   55  111 1    
   110   56   57 am   BACKBONE|DICT|INTERRES
   111   56   58 2    
   112   57  112 1    
   113   57  113 1    
   114   59   60 1    
   115   59  114 1    
   116   59  115 1    
   117   60   61 1    
   118   61  116 1    
   119   61  117 1    
@<TRIPOS>SUBSTRUCTURE
     1 UNK         1 GROUP             0       ****    0 ROOT    
