@<TRIPOS>MOLECULE
3R8
117   119    1
SMALL
USER_CHARGES


@<TRIPOS>ATOM
      1 CA         17.5473  -24.9303  -49.8624 C.3       0 UNK        -0.2013 
      2 C          18.4020  -24.9645  -48.6041 C.2       0 UNK         0.4866 
      3 O          19.2747  -24.1122  -48.4332 O.2       0 UNK        -0.5176 
      4 N          18.1656  -25.9477  -47.7273 N.am      1 UNK        -0.4884 
      5 CA         18.8578  -26.1059  -46.4445 C.3       1 UNK         0.0853 
      6 C6         18.5710  -27.4850  -45.8020 C.3       10 UNK        -0.0849 
      7 S7         19.2814  -28.8877  -46.7196 S.3       10 UNK        -0.2776 
      8 C8         18.2804  -30.2693  -46.0692 C.3       10 UNK         0.0316 
      9 C9         18.2484  -30.2994  -44.5448 C.ar      10 UNK        -0.0863 
     10 C10        19.3694  -30.7193  -43.8241 C.ar      10 UNK        -0.1009 
     11 C11        19.3503  -30.7345  -42.4257 C.ar      10 UNK        -0.0712 
     12 C12        18.1961  -30.3328  -41.7479 C.ar      10 UNK        -0.0894 
     13 C13        17.0735  -29.8949  -42.4566 C.ar      10 UNK        -0.0745 
     14 C14        17.1024  -29.8900  -43.8544 C.ar      10 UNK        -0.0972 
     15 C15        15.8312  -29.4183  -41.7175 C.3       10 UNK         0.0209 
     16 S16        15.8153  -27.6055  -41.5204 S.3       10 UNK        -0.2568 
     17 C17        17.0187  -27.3580  -40.1697 C.3       10 UNK        -0.0983 
     18 CA         18.4215  -26.9556  -40.6873 C.3       3 UNK         0.0876 
     19 N          18.3908  -25.7132  -41.4762 N.am      3 UNK        -0.4424 
     20 C          19.4009  -25.2800  -42.2392 C.2       2 UNK         0.4918 
     21 O          20.5268  -25.7798  -42.2305 O.2       2 UNK        -0.4875 
     22 CA         19.1094  -24.1368  -43.2155 C.3       2 UNK         0.0481 
     23 CB         20.0309  -22.9338  -42.9555 C.3       2 UNK        -0.1831 
     24 N          19.3852  -24.6965  -44.5331 N.am      2 UNK        -0.4498 
     25 C          18.4511  -25.0142  -45.4352 C.2       1 UNK         0.5027 
     26 O          17.2976  -24.5755  -45.4252 O.2       1 UNK        -0.4969 
     27 C          19.4620  -26.9766  -39.5447 C.2       3 UNK         0.5005 
     28 O          19.7714  -28.0554  -39.0368 O.2       3 UNK        -0.5279 
     29 N          20.0083  -25.8073  -39.1795 N.am      4 UNK        -0.4463 
     30 CA         21.1427  -25.6608  -38.2641 C.3       4 UNK         0.0283 
     31 CB         21.3144  -24.1761  -37.9058 C.3       4 UNK        -0.1875 
     32 C          22.4611  -26.2321  -38.8240 C.2       4 UNK         0.4949 
     33 O          23.3378  -26.5925  -38.0371 O.2       4 UNK        -0.5039 
     34 N          22.5895  -26.3234  -40.1568 N.am      5 UNK        -0.4663 
     35 CA         23.7336  -26.9200  -40.8473 C.3       5 UNK         0.0242 
     36 CB         23.8166  -26.3530  -42.2770 C.3       5 UNK        -0.1982 
     37 C          23.6296  -28.4549  -40.8314 C.2       5 UNK         0.5017 
     38 O          23.3520  -29.0666  -41.8635 O.2       5 UNK        -0.5012 
     39 N          23.8541  -29.0499  -39.6512 N.am      6 UNK        -0.4439 
     40 CA         23.7558  -30.4890  -39.3695 C.3       6 UNK         0.0297 
     41 CB         24.1252  -30.7449  -37.9006 C.3       6 UNK        -0.2006 
     42 C          24.5897  -31.3930  -40.2962 C.2       6 UNK         0.4892 
     43 O          24.1899  -32.5286  -40.5485 O.2       6 UNK        -0.5089 
     44 N          25.6991  -30.8667  -40.8337 N.am      7 UNK        -0.4243 
     45 CA         26.5479  -31.5212  -41.8345 C.3       7 UNK         0.0196 
     46 CB         27.7654  -30.6263  -42.1176 C.3       7 UNK        -0.2007 
     47 C          25.8248  -31.8750  -43.1506 C.2       7 UNK         0.5020 
     48 O          26.2884  -32.7652  -43.8632 O.2       7 UNK        -0.5147 
     49 N          24.7058  -31.1987  -43.4500 N.am      8 UNK        -0.4734 
     50 CA         23.8626  -31.4690  -44.6163 C.3       8 UNK         0.0238 
     51 CB         23.0849  -30.1911  -44.9815 C.3       8 UNK        -0.1912 
     52 C          22.9042  -32.6628  -44.4309 C.2       8 UNK         0.5038 
     53 O          22.2339  -33.0213  -45.4004 O.2       8 UNK        -0.5046 
     54 N          22.8258  -33.2481  -43.2260 N.am      9 UNK        -0.4200 
     55 CA         21.9132  -34.3598  -42.9089 C.3       9 UNK         0.0839 
     56 C          22.4878  -35.4311  -41.9422 C.2       9 UNK         0.5513 
     57 N          23.5353  -35.1609  -41.1755 N.am      9 UNK        -0.7519 
     58 O          21.9873  -36.5528  -41.9118 O.2       9 UNK        -0.4960 
     59 C59        20.5006  -33.8661  -42.4943 C.3       10 UNK        -0.0876 
     60 S60        20.4714  -32.8380  -40.9806 S.3       10 UNK        -0.2414 
     61 C61        20.5874  -31.1448  -41.6420 C.3       10 UNK         0.0169 
     62 H62        16.8275  -25.7483  -49.8893 H         1 UNK         0.0903 
     63 H63        16.9959  -23.9919  -49.9156 H         1 UNK         0.0903 
     64 H64        18.1787  -25.0055  -50.7473 H         1 UNK         0.0903 
     65 H65        17.4328  -26.6173  -47.9132 H         1 UNK         0.3096 
     66 H66        19.9313  -26.0192  -46.6298 H         1 UNK         0.1121 
     67 H67        18.9826  -27.5372  -44.7908 H         1 UNK         0.0849 
     68 H68        17.4942  -27.6332  -45.6972 H         1 UNK         0.0849 
     69 H69        17.2692  -30.1967  -46.4727 H         1 UNK         0.0865 
     70 H70        18.6887  -31.2097  -46.4424 H         1 UNK         0.0865 
     71 H71        20.2593  -31.0248  -44.3562 H         1 UNK         0.1346 
     72 H72        18.1843  -30.3376  -40.6663 H         1 UNK         0.1412 
     73 H73        16.2346  -29.5504  -44.4035 H         1 UNK         0.1426 
     74 H74        15.7508  -29.9011  -40.7423 H         1 UNK         0.0716 
     75 H75        14.9412  -29.7160  -42.2740 H         1 UNK         0.0716 
     76 H76        17.0689  -28.2717  -39.5744 H         1 UNK         0.0695 
     77 H77        16.6277  -26.5878  -39.5025 H         1 UNK         0.0695 
     78 H78        18.7540  -27.7317  -41.3781 H         1 UNK         0.0983 
     79 H79        17.4897  -25.2625  -41.5503 H         1 UNK         0.3095 
     80 H80        18.0688  -23.8192  -43.1203 H         1 UNK         0.0454 
     81 H81        19.8521  -22.5127  -41.9655 H         1 UNK         0.0851 
     82 H82        19.8558  -22.1403  -43.6821 H         1 UNK         0.0851 
     83 H83        21.0859  -23.2066  -43.0089 H         1 UNK         0.0851 
     84 H84        20.2917  -25.1392  -44.6083 H         1 UNK         0.2976 
     85 H85        19.6863  -24.9714  -39.6451 H         1 UNK         0.3116 
     86 H86        20.9104  -26.2098  -37.3492 H         1 UNK         0.0646 
     87 H87        20.4167  -23.7729  -37.4367 H         1 UNK         0.0847 
     88 H88        21.5371  -23.5704  -38.7852 H         1 UNK         0.0847 
     89 H89        22.1351  -24.0382  -37.2003 H         1 UNK         0.0847 
     90 H90        21.8080  -26.0555  -40.7481 H         1 UNK         0.3040 
     91 H91        24.6527  -26.6401  -40.3274 H         1 UNK         0.1015 
     92 H92        24.6941  -26.7391  -42.7972 H         1 UNK         0.0786 
     93 H93        23.8942  -25.2657  -42.2700 H         1 UNK         0.0786 
     94 H94        22.9441  -26.6223  -42.8732 H         1 UNK         0.0786 
     95 H95        24.0108  -28.4402  -38.8558 H         1 UNK         0.3172 
     96 H96        22.7108  -30.7703  -39.5070 H         1 UNK         0.0595 
     97 H97        24.0341  -31.8040  -37.6542 H         1 UNK         0.0839 
     98 H98        23.4661  -30.2002  -37.2242 H         1 UNK         0.0839 
     99 H99        25.1517  -30.4466  -37.6839 H         1 UNK         0.0839 
    100 H100       25.9465  -29.9229  -40.5754 H         1 UNK         0.2998 
    101 H101       26.9022  -32.4587  -41.4008 H         1 UNK         0.0822 
    102 H102       28.3434  -30.4421  -41.2118 H         1 UNK         0.0787 
    103 H103       28.4371  -31.0966  -42.8374 H         1 UNK         0.0787 
    104 H104       27.4687  -29.6615  -42.5312 H         1 UNK         0.0787 
    105 H105       24.3727  -30.4801  -42.8120 H         1 UNK         0.3055 
    106 H106       24.5084  -31.7168  -45.4618 H         1 UNK         0.1106 
    107 H107       23.7604  -29.3583  -45.1766 H         1 UNK         0.0828 
    108 H108       22.4857  -30.3371  -45.8815 H         1 UNK         0.0828 
    109 H109       22.4044  -29.8861  -44.1870 H         1 UNK         0.0828 
    110 H110       23.3997  -32.9097  -42.4632 H         1 UNK         0.2931 
    111 H111       21.7739  -34.9240  -43.8334 H         1 UNK         0.0412 
    112 H112       23.8781  -34.2095  -41.0657 H         1 UNK         0.3472 
    113 H113       23.8940  -35.8855  -40.5748 H         1 UNK         0.3472 
    114 H114       19.8406  -34.7198  -42.3305 H         1 UNK         0.0970 
    115 H115       20.0475  -33.3194  -43.3200 H         1 UNK         0.0970 
    116 H116       21.4831  -31.0511  -42.2544 H         1 UNK         0.0612 
    117 H117       20.7231  -30.4528  -40.8097 H         1 UNK         0.0612 
@<TRIPOS>BOND
     1    1    2 1    
     2    1   62 1    
     3    1   63 1    
     4    1   64 1    
     5    2    3 2    
     6    2    4 am   BACKBONE|DICT|INTERRES
     7    4    5 1    
     8    4   65 1    
     9    5    6 1    
    10    5   25 1    
    11    5   66 1    
    12    6    7 1    
    13    6   67 1    
    14    6   68 1    
    15    7    8 1    
    16    8    9 1    
    17    8   69 1    
    18    8   70 1    
    19    9   10 ar   
    20    9   14 ar   
    21   10   11 ar   
    22   10   71 1    
    23   11   12 ar   
    24   11   61 1    
    25   12   13 ar   
    26   12   72 1    
    27   13   14 ar   
    28   13   15 1    
    29   14   73 1    
    30   15   16 1    
    31   15   74 1    
    32   15   75 1    
    33   16   17 1    
    34   17   18 1    
    35   17   76 1    
    36   17   77 1    
    37   18   19 1    
    38   18   27 1    
    39   18   78 1    
    40   19   20 am   BACKBONE|DICT|INTERRES
    41   19   79 1    
    42   20   21 2    
    43   20   22 1    
    44   22   23 1    
    45   22   24 1    
    46   22   80 1    
    47   23   81 1    
    48   23   82 1    
    49   23   83 1    
    50   24   25 am   BACKBONE|DICT|INTERRES
    51   24   84 1    
    52   25   26 2    
    53   27   28 2    
    54   27   29 am   BACKBONE|DICT|INTERRES
    55   29   30 1    
    56   29   85 1    
    57   30   31 1    
    58   30   32 1    
    59   30   86 1    
    60   31   87 1    
    61   31   88 1    
    62   31   89 1    
    63   32   33 2    
    64   32   34 am   BACKBONE|DICT|INTERRES
    65   34   35 1    
    66   34   90 1    
    67   35   36 1    
    68   35   37 1    
    69   35   91 1    
    70   36   92 1    
    71   36   93 1    
    72   36   94 1    
    73   37   38 2    
    74   37   39 am   BACKBONE|DICT|INTERRES
    75   39   40 1    
    76   39   95 1    
    77   40   41 1    
    78   40   42 1    
    79   40   96 1    
    80   41   97 1    
    81   41   98 1    
    82   41   99 1    
    83   42   43 2    
    84   42   44 am   BACKBONE|DICT|INTERRES
    85   44   45 1    
    86   44  100 1    
    87   45   46 1    
    88   45   47 1    
    89   45  101 1    
    90   46  102 1    
    91   46  103 1    
    92   46  104 1    
    93   47   48 2    
    94   47   49 am   BACKBONE|DICT|INTERRES
    95   49   50 1    
    96   49  105 1    
    97   50   51 1    
    98   50   52 1    
    99   50  106 1    
   100   51  107 1    
   101   51  108 1    
   102   51  109 1    
   103   52   53 2    
   104   52   54 am   BACKBONE|DICT|INTERRES
   105   54   55 1    
   106   54  110 1    
   107   55   56 1    
   108   55   59 1    
   109   55  111 1    
   110   56   57 am   BACKBONE|DICT|INTERRES
   111   56   58 2    
   112   57  112 1    
   113   57  113 1    
   114   59   60 1    
   115   59  114 1    
   116   59  115 1    
   117   60   61 1    
   118   61  116 1    
   119   61  117 1    
@<TRIPOS>SUBSTRUCTURE
     1 UNK         1 GROUP             0       ****    0 ROOT    
