@<TRIPOS>MOLECULE
3R8
117   119    1
SMALL
USER_CHARGES


@<TRIPOS>ATOM
      1 CA         15.4641  -25.2986  -44.3897 C.3       0 UNK        -0.2013 
      2 C          16.7592  -25.1027  -45.1623 C.2       0 UNK         0.4866 
      3 O          17.1444  -23.9663  -45.4372 O.2       0 UNK        -0.5176 
      4 N          17.4484  -26.1967  -45.5085 N.am      1 UNK        -0.4884 
      5 CA         18.6407  -26.2239  -46.3707 C.3       1 UNK         0.0853 
      6 C6         18.7591  -27.5521  -47.1766 C.3       10 UNK        -0.0849 
      7 S7         17.1653  -28.1406  -47.8635 S.3       10 UNK        -0.2776 
      8 C8         17.1036  -29.9030  -47.3738 C.3       10 UNK         0.0316 
      9 C9         17.5098  -30.1653  -45.9258 C.ar      10 UNK        -0.0863 
     10 C10        18.5992  -30.9984  -45.6525 C.ar      10 UNK        -0.1009 
     11 C11        18.9958  -31.2447  -44.3356 C.ar      10 UNK        -0.0712 
     12 C12        18.3071  -30.6372  -43.2822 C.ar      10 UNK        -0.0894 
     13 C13        17.2122  -29.8076  -43.5410 C.ar      10 UNK        -0.0745 
     14 C14        16.8090  -29.5855  -44.8632 C.ar      10 UNK        -0.0972 
     15 C15        16.4507  -29.1622  -42.3954 C.3       10 UNK         0.0209 
     16 S16        17.0337  -27.4673  -42.0885 S.3       10 UNK        -0.2568 
     17 C17        18.2959  -27.6751  -40.7839 C.3       10 UNK        -0.0983 
     18 CA         19.7592  -27.4441  -41.2509 C.3       3 UNK         0.0876 
     19 N          19.8887  -26.2701  -42.1199 N.am      3 UNK        -0.4424 
     20 C          21.0181  -25.7828  -42.6532 C.2       2 UNK         0.4918 
     21 O          22.1414  -26.2467  -42.4458 O.2       2 UNK        -0.4875 
     22 CA         20.8276  -24.5958  -43.6185 C.3       2 UNK         0.0481 
     23 CB         22.1489  -24.0735  -44.2195 C.3       2 UNK        -0.1831 
     24 N          19.8537  -24.9207  -44.6688 N.am      2 UNK        -0.4498 
     25 C          19.9260  -25.9196  -45.5642 C.2       1 UNK         0.5027 
     26 O          20.9322  -26.6110  -45.7323 O.2       1 UNK        -0.4969 
     27 C          20.6835  -27.3332  -40.0209 C.2       3 UNK         0.5005 
     28 O          20.6585  -26.3052  -39.3396 O.2       3 UNK        -0.5279 
     29 N          21.5010  -28.3661  -39.7828 N.am      4 UNK        -0.4463 
     30 CA         22.5270  -28.5061  -38.7373 C.3       4 UNK         0.0283 
     31 CB         21.9400  -28.3441  -37.3218 C.3       4 UNK        -0.1875 
     32 C          23.7688  -27.6173  -38.9388 C.2       4 UNK         0.4949 
     33 O          24.8659  -28.0473  -38.5838 O.2       4 UNK        -0.5039 
     34 N          23.5952  -26.4188  -39.5105 N.am      5 UNK        -0.4663 
     35 CA         24.6672  -25.4829  -39.8523 C.3       5 UNK         0.0242 
     36 CB         24.0661  -24.1093  -40.1935 C.3       5 UNK        -0.1982 
     37 C          25.5513  -26.0059  -40.9957 C.2       5 UNK         0.5017 
     38 O          26.7734  -26.0367  -40.8459 O.2       5 UNK        -0.5012 
     39 N          24.9195  -26.4233  -42.1013 N.am      6 UNK        -0.4439 
     40 CA         25.5829  -27.0809  -43.2277 C.3       6 UNK         0.0297 
     41 CB         24.8255  -26.7898  -44.5333 C.3       6 UNK        -0.2006 
     42 C          25.6996  -28.5911  -42.9828 C.2       6 UNK         0.4892 
     43 O          26.7932  -29.1425  -43.1125 O.2       6 UNK        -0.5089 
     44 N          24.5795  -29.2247  -42.6152 N.am      7 UNK        -0.4243 
     45 CA         24.4791  -30.6423  -42.2839 C.3       7 UNK         0.0196 
     46 CB         24.4880  -31.4998  -43.5640 C.3       7 UNK        -0.2007 
     47 C          23.1815  -30.8671  -41.5079 C.2       7 UNK         0.5020 
     48 O          22.1836  -30.1974  -41.7855 O.2       7 UNK        -0.5147 
     49 N          23.2043  -31.8096  -40.5595 N.am      8 UNK        -0.4734 
     50 CA         22.0113  -32.2616  -39.8332 C.3       8 UNK         0.0238 
     51 CB         22.4225  -32.7806  -38.4459 C.3       8 UNK        -0.1912 
     52 C          21.2377  -33.3411  -40.6103 C.2       8 UNK         0.5038 
     53 O          20.0159  -33.4075  -40.4778 O.2       8 UNK        -0.5046 
     54 N          21.9737  -34.1372  -41.4023 N.am      9 UNK        -0.4200 
     55 CA         21.5260  -35.2537  -42.2507 C.3       9 UNK         0.0839 
     56 C          20.5852  -36.2851  -41.5527 C.2       9 UNK         0.5513 
     57 N          19.6664  -36.9187  -42.2698 N.am      9 UNK        -0.7519 
     58 O          20.7378  -36.5746  -40.3675 O.2       9 UNK        -0.4960 
     59 C59        21.1344  -34.8017  -43.6899 C.3       10 UNK        -0.0876 
     60 S60        19.5624  -33.8865  -43.8397 S.3       10 UNK        -0.2414 
     61 C61        20.1573  -32.1825  -44.0552 C.3       10 UNK         0.0169 
     62 H62        15.1853  -26.3501  -44.3239 H         1 UNK         0.0903 
     63 H63        15.5672  -24.9085  -43.3776 H         1 UNK         0.0903 
     64 H64        14.6504  -24.7652  -44.8800 H         1 UNK         0.0903 
     65 H65        17.1193  -27.1059  -45.2170 H         1 UNK         0.3096 
     66 H66        18.5437  -25.4182  -47.1021 H         1 UNK         0.1121 
     67 H67        19.2001  -28.3340  -46.5589 H         1 UNK         0.0849 
     68 H68        19.4544  -27.4184  -48.0071 H         1 UNK         0.0849 
     69 H69        16.0905  -30.2758  -47.5301 H         1 UNK         0.0865 
     70 H70        17.7399  -30.4674  -48.0573 H         1 UNK         0.0865 
     71 H71        19.1389  -31.4655  -46.4652 H         1 UNK         0.1346 
     72 H72        18.6154  -30.8253  -42.2625 H         1 UNK         0.1412 
     73 H73        15.9547  -28.9547  -45.0677 H         1 UNK         0.1426 
     74 H74        16.5220  -29.7649  -41.4890 H         1 UNK         0.0716 
     75 H75        15.3891  -29.1226  -42.6441 H         1 UNK         0.0716 
     76 H76        18.2006  -28.6641  -40.3330 H         1 UNK         0.0695 
     77 H77        18.0317  -26.9656  -39.9966 H         1 UNK         0.0695 
     78 H78        20.0674  -28.3047  -41.8490 H         1 UNK         0.0983 
     79 H79        19.0152  -25.8265  -42.3606 H         1 UNK         0.3095 
     80 H80        20.3934  -23.7864  -43.0299 H         1 UNK         0.0454 
     81 H81        22.6365  -24.8216  -44.8426 H         1 UNK         0.0851 
     82 H82        22.8541  -23.7942  -43.4364 H         1 UNK         0.0851 
     83 H83        21.9802  -23.1892  -44.8334 H         1 UNK         0.0851 
     84 H84        18.9816  -24.4013  -44.6490 H         1 UNK         0.2976 
     85 H85        21.5253  -29.1050  -40.4850 H         1 UNK         0.3116 
     86 H86        22.8796  -29.5345  -38.8144 H         1 UNK         0.0646 
     87 H87        21.6083  -27.3239  -37.1280 H         1 UNK         0.0847 
     88 H88        22.6866  -28.5868  -36.5646 H         1 UNK         0.0847 
     89 H89        21.0917  -29.0101  -37.1649 H         1 UNK         0.0847 
     90 H90        22.6447  -26.1419  -39.7326 H         1 UNK         0.3040 
     91 H91        25.3036  -25.3646  -38.9723 H         1 UNK         0.1015 
     92 H92        23.3719  -24.1650  -41.0319 H         1 UNK         0.0786 
     93 H93        24.8473  -23.3968  -40.4620 H         1 UNK         0.0786 
     94 H94        23.5268  -23.6927  -39.3426 H         1 UNK         0.0786 
     95 H95        23.9026  -26.3539  -42.1419 H         1 UNK         0.3172 
     96 H96        26.5926  -26.6792  -43.3380 H         1 UNK         0.0595 
     97 H97        23.7838  -27.1105  -44.4865 H         1 UNK         0.0839 
     98 H98        25.2873  -27.3064  -45.3757 H         1 UNK         0.0839 
     99 H99        24.8402  -25.7249  -44.7633 H         1 UNK         0.0839 
    100 H100       23.7141  -28.7069  -42.5225 H         1 UNK         0.2998 
    101 H101       25.3249  -30.9167  -41.6496 H         1 UNK         0.0822 
    102 H102       25.4186  -31.3818  -44.1192 H         1 UNK         0.0787 
    103 H103       24.3869  -32.5599  -43.3285 H         1 UNK         0.0787 
    104 H104       23.6658  -31.2333  -44.2299 H         1 UNK         0.0787 
    105 H105       24.0720  -32.2889  -40.3617 H         1 UNK         0.3055 
    106 H106       21.3313  -31.4191  -39.6874 H         1 UNK         0.1106 
    107 H107       21.5494  -33.1058  -37.8783 H         1 UNK         0.0828 
    108 H108       23.1009  -33.6319  -38.5141 H         1 UNK         0.0828 
    109 H109       22.9152  -32.0036  -37.8612 H         1 UNK         0.0828 
    110 H110       22.9705  -33.9894  -41.3955 H         1 UNK         0.2931 
    111 H111       22.4408  -35.8324  -42.3843 H         1 UNK         0.0412 
    112 H112       19.0799  -37.6056  -41.8221 H         1 UNK         0.3472 
    113 H113       19.5145  -36.6803  -43.2373 H         1 UNK         0.3472 
    114 H114       21.0756  -35.6714  -44.3461 H         1 UNK         0.0970 
    115 H115       21.9398  -34.1968  -44.1089 H         1 UNK         0.0970 
    116 H116       20.8781  -32.1423  -44.8733 H         1 UNK         0.0612 
    117 H117       20.6865  -31.8679  -43.1568 H         1 UNK         0.0612 
@<TRIPOS>BOND
     1    1    2 1    
     2    1   62 1    
     3    1   63 1    
     4    1   64 1    
     5    2    3 2    
     6    2    4 am   BACKBONE|DICT|INTERRES
     7    4    5 1    
     8    4   65 1    
     9    5    6 1    
    10    5   25 1    
    11    5   66 1    
    12    6    7 1    
    13    6   67 1    
    14    6   68 1    
    15    7    8 1    
    16    8    9 1    
    17    8   69 1    
    18    8   70 1    
    19    9   10 ar   
    20    9   14 ar   
    21   10   11 ar   
    22   10   71 1    
    23   11   12 ar   
    24   11   61 1    
    25   12   13 ar   
    26   12   72 1    
    27   13   14 ar   
    28   13   15 1    
    29   14   73 1    
    30   15   16 1    
    31   15   74 1    
    32   15   75 1    
    33   16   17 1    
    34   17   18 1    
    35   17   76 1    
    36   17   77 1    
    37   18   19 1    
    38   18   27 1    
    39   18   78 1    
    40   19   20 am   BACKBONE|DICT|INTERRES
    41   19   79 1    
    42   20   21 2    
    43   20   22 1    
    44   22   23 1    
    45   22   24 1    
    46   22   80 1    
    47   23   81 1    
    48   23   82 1    
    49   23   83 1    
    50   24   25 am   BACKBONE|DICT|INTERRES
    51   24   84 1    
    52   25   26 2    
    53   27   28 2    
    54   27   29 am   BACKBONE|DICT|INTERRES
    55   29   30 1    
    56   29   85 1    
    57   30   31 1    
    58   30   32 1    
    59   30   86 1    
    60   31   87 1    
    61   31   88 1    
    62   31   89 1    
    63   32   33 2    
    64   32   34 am   BACKBONE|DICT|INTERRES
    65   34   35 1    
    66   34   90 1    
    67   35   36 1    
    68   35   37 1    
    69   35   91 1    
    70   36   92 1    
    71   36   93 1    
    72   36   94 1    
    73   37   38 2    
    74   37   39 am   BACKBONE|DICT|INTERRES
    75   39   40 1    
    76   39   95 1    
    77   40   41 1    
    78   40   42 1    
    79   40   96 1    
    80   41   97 1    
    81   41   98 1    
    82   41   99 1    
    83   42   43 2    
    84   42   44 am   BACKBONE|DICT|INTERRES
    85   44   45 1    
    86   44  100 1    
    87   45   46 1    
    88   45   47 1    
    89   45  101 1    
    90   46  102 1    
    91   46  103 1    
    92   46  104 1    
    93   47   48 2    
    94   47   49 am   BACKBONE|DICT|INTERRES
    95   49   50 1    
    96   49  105 1    
    97   50   51 1    
    98   50   52 1    
    99   50  106 1    
   100   51  107 1    
   101   51  108 1    
   102   51  109 1    
   103   52   53 2    
   104   52   54 am   BACKBONE|DICT|INTERRES
   105   54   55 1    
   106   54  110 1    
   107   55   56 1    
   108   55   59 1    
   109   55  111 1    
   110   56   57 am   BACKBONE|DICT|INTERRES
   111   56   58 2    
   112   57  112 1    
   113   57  113 1    
   114   59   60 1    
   115   59  114 1    
   116   59  115 1    
   117   60   61 1    
   118   61  116 1    
   119   61  117 1    
@<TRIPOS>SUBSTRUCTURE
     1 UNK         1 GROUP             0       ****    0 ROOT    
