@<TRIPOS>MOLECULE
3R8
117   119    1
SMALL
USER_CHARGES


@<TRIPOS>ATOM
      1 CA         16.1069  -25.7001  -46.4657 C.3       0 UNK        -0.2013 
      2 C          17.5930  -25.5330  -46.7431 C.2       0 UNK         0.4866 
      3 O          18.0715  -24.4035  -46.8437 O.2       0 UNK        -0.5176 
      4 N          18.3394  -26.6399  -46.8582 N.am      1 UNK        -0.4884 
      5 CA         19.7643  -26.6844  -47.2177 C.3       1 UNK         0.0853 
      6 C6         20.1042  -27.9893  -47.9966 C.3       10 UNK        -0.0849 
      7 S7         20.1760  -29.5364  -47.0212 S.3       10 UNK        -0.2776 
      8 C8         18.4767  -30.1894  -47.0611 C.3       10 UNK         0.0316 
      9 C9         17.9658  -30.3848  -45.6406 C.ar      10 UNK        -0.0863 
     10 C10        18.4265  -31.4561  -44.8694 C.ar      10 UNK        -0.1009 
     11 C11        18.0327  -31.6015  -43.5326 C.ar      10 UNK        -0.0712 
     12 C12        17.1425  -30.6731  -42.9811 C.ar      10 UNK        -0.0894 
     13 C13        16.6483  -29.6173  -43.7535 C.ar      10 UNK        -0.0745 
     14 C14        17.0590  -29.4834  -45.0815 C.ar      10 UNK        -0.0972 
     15 C15        15.6618  -28.6184  -43.1705 C.3       10 UNK         0.0209 
     16 S16        16.4226  -26.9801  -42.9510 S.3       10 UNK        -0.2568 
     17 C17        17.3688  -27.2003  -41.4069 C.3       10 UNK        -0.0983 
     18 CA         18.9033  -27.3219  -41.6044 C.3       3 UNK         0.0876 
     19 N          19.4216  -26.2752  -42.4989 N.am      3 UNK        -0.4424 
     20 C          20.6962  -26.0595  -42.8545 C.2       2 UNK         0.4918 
     21 O          21.6584  -26.6739  -42.3930 O.2       2 UNK        -0.4875 
     22 CA         20.8959  -24.9676  -43.9205 C.3       2 UNK         0.0481 
     23 CB         22.3640  -24.5186  -44.0762 C.3       2 UNK        -0.1831 
     24 N          20.3064  -25.3778  -45.2006 N.am      2 UNK        -0.4498 
     25 C          20.7065  -26.3574  -46.0274 C.2       1 UNK         0.5027 
     26 O          21.7628  -26.9740  -45.8890 O.2       1 UNK        -0.4969 
     27 C          19.5738  -27.3715  -40.2131 C.2       3 UNK         0.5005 
     28 O          19.6027  -28.4351  -39.5924 O.2       3 UNK        -0.5279 
     29 N          20.0751  -26.2242  -39.7330 N.am      4 UNK        -0.4463 
     30 CA         20.7639  -26.0537  -38.4537 C.3       4 UNK         0.0283 
     31 CB         20.7770  -24.5566  -38.0928 C.3       4 UNK        -0.1875 
     32 C          22.1789  -26.6619  -38.4807 C.2       4 UNK         0.4949 
     33 O          23.1671  -25.9272  -38.5119 O.2       4 UNK        -0.5039 
     34 N          22.2432  -27.9993  -38.4996 N.am      5 UNK        -0.4663 
     35 CA         23.4190  -28.8822  -38.4474 C.3       5 UNK         0.0242 
     36 CB         24.2216  -28.6652  -37.1500 C.3       5 UNK        -0.1982 
     37 C          24.3466  -28.8398  -39.6756 C.2       5 UNK         0.5017 
     38 O          24.9302  -29.8723  -40.0054 O.2       5 UNK        -0.5012 
     39 N          24.4625  -27.6840  -40.3432 N.am      6 UNK        -0.4439 
     40 CA         25.2996  -27.4457  -41.5269 C.3       6 UNK         0.0297 
     41 CB         25.2173  -25.9616  -41.9124 C.3       6 UNK        -0.2006 
     42 C          24.9694  -28.3474  -42.7326 C.2       6 UNK         0.4892 
     43 O          25.8661  -28.6573  -43.5174 O.2       6 UNK        -0.5089 
     44 N          23.7099  -28.7931  -42.8229 N.am      7 UNK        -0.4243 
     45 CA         23.2151  -29.8051  -43.7591 C.3       7 UNK         0.0196 
     46 CB         21.6798  -29.8309  -43.6722 C.3       7 UNK        -0.2007 
     47 C          23.7826  -31.2244  -43.5316 C.2       7 UNK         0.5020 
     48 O          23.5832  -32.0818  -44.3921 O.2       7 UNK        -0.5147 
     49 N          24.4560  -31.4564  -42.3916 N.am      8 UNK        -0.4734 
     50 CA         24.9666  -32.7406  -41.8891 C.3       8 UNK         0.0238 
     51 CB         25.9881  -33.3756  -42.8576 C.3       8 UNK        -0.1912 
     52 C          23.8303  -33.6970  -41.4788 C.2       8 UNK         0.5038 
     53 O          23.9338  -34.9097  -41.6741 O.2       8 UNK        -0.5046 
     54 N          22.7700  -33.1210  -40.9060 N.am      9 UNK        -0.4200 
     55 CA         21.5422  -33.7789  -40.4504 C.3       9 UNK         0.0839 
     56 C          20.7610  -32.8489  -39.4840 C.2       9 UNK         0.5513 
     57 N          19.7113  -33.3519  -38.8488 N.am      9 UNK        -0.7519 
     58 O          21.1012  -31.6820  -39.2943 O.2       9 UNK        -0.4960 
     59 C59        20.6721  -34.3227  -41.6223 C.3       10 UNK        -0.0876 
     60 S60        20.3224  -33.0813  -42.9145 S.3       10 UNK        -0.2414 
     61 C61        18.5448  -32.7603  -42.6790 C.3       10 UNK         0.0169 
     62 H62        15.7847  -26.7367  -46.5474 H         1 UNK         0.0903 
     63 H63        15.8684  -25.3432  -45.4645 H         1 UNK         0.0903 
     64 H64        15.5272  -25.1150  -47.1792 H         1 UNK         0.0903 
     65 H65        17.9179  -27.5421  -46.7032 H         1 UNK         0.3096 
     66 H66        19.9363  -25.8701  -47.9259 H         1 UNK         0.1121 
     67 H67        19.4081  -28.1228  -48.8262 H         1 UNK         0.0849 
     68 H68        21.0817  -27.8725  -48.4681 H         1 UNK         0.0849 
     69 H69        17.8192  -29.5292  -47.6279 H         1 UNK         0.0865 
     70 H70        18.4744  -31.1454  -47.5869 H         1 UNK         0.0865 
     71 H71        19.1209  -32.1604  -45.3065 H         1 UNK         0.1346 
     72 H72        16.8272  -30.7765  -41.9518 H         1 UNK         0.1412 
     73 H73        16.6742  -28.6657  -45.6700 H         1 UNK         0.1426 
     74 H74        15.2503  -28.9708  -42.2235 H         1 UNK         0.0716 
     75 H75        14.8141  -28.5201  -43.8503 H         1 UNK         0.0716 
     76 H76        16.9872  -28.0728  -40.8730 H         1 UNK         0.0695 
     77 H77        17.1353  -26.3407  -40.7749 H         1 UNK         0.0695 
     78 H78        19.1118  -28.2769  -42.0920 H         1 UNK         0.0983 
     79 H79        18.7051  -25.7271  -42.9526 H         1 UNK         0.3095 
     80 H80        20.3285  -24.0957  -43.5915 H         1 UNK         0.0454 
     81 H81        22.7269  -24.0697  -43.1514 H         1 UNK         0.0851 
     82 H82        22.4693  -23.7702  -44.8611 H         1 UNK         0.0851 
     83 H83        23.0279  -25.3500  -44.3146 H         1 UNK         0.0851 
     84 H84        19.4485  -24.9036  -45.4651 H         1 UNK         0.2976 
     85 H85        20.0265  -25.4103  -40.3279 H         1 UNK         0.3116 
     86 H86        20.1962  -26.5760  -37.6806 H         1 UNK         0.0646 
     87 H87        19.7655  -24.1606  -38.0014 H         1 UNK         0.0847 
     88 H88        21.3044  -23.9627  -38.8405 H         1 UNK         0.0847 
     89 H89        21.2750  -24.3912  -37.1364 H         1 UNK         0.0847 
     90 H90        21.3530  -28.4806  -38.6055 H         1 UNK         0.3040 
     91 H91        23.0149  -29.8955  -38.4133 H         1 UNK         0.1015 
     92 H92        25.0300  -29.3930  -37.0669 H         1 UNK         0.0786 
     93 H93        23.5904  -28.7816  -36.2690 H         1 UNK         0.0786 
     94 H94        24.6748  -27.6741  -37.1106 H         1 UNK         0.0786 
     95 H95        23.9711  -26.8844  -39.9527 H         1 UNK         0.3172 
     96 H96        26.3303  -27.6636  -41.2403 H         1 UNK         0.0595 
     97 H97        25.7988  -25.7536  -42.8117 H         1 UNK         0.0839 
     98 H98        25.6070  -25.3237  -41.1190 H         1 UNK         0.0839 
     99 H99        24.1893  -25.6600  -42.1077 H         1 UNK         0.0839 
    100 H100       23.0244  -28.3839  -42.1997 H         1 UNK         0.2998 
    101 H101       23.4976  -29.4974  -44.7679 H         1 UNK         0.0822 
    102 H102       21.2632  -30.5763  -44.3502 H         1 UNK         0.0787 
    103 H103       21.2473  -28.8729  -43.9577 H         1 UNK         0.0787 
    104 H104       21.3320  -30.0735  -42.6672 H         1 UNK         0.0787 
    105 H105       24.5745  -30.6807  -41.7453 H         1 UNK         0.3055 
    106 H106       25.5014  -32.5070  -40.9668 H         1 UNK         0.1106 
    107 H107       26.7667  -32.6653  -43.1351 H         1 UNK         0.0828 
    108 H108       26.4806  -34.2317  -42.3951 H         1 UNK         0.0828 
    109 H109       25.5163  -33.7333  -43.7729 H         1 UNK         0.0828 
    110 H110       22.7725  -32.1208  -40.7578 H         1 UNK         0.2931 
    111 H111       21.8565  -34.6296  -39.8429 H         1 UNK         0.0412 
    112 H112       19.4311  -34.3121  -38.9733 H         1 UNK         0.3472 
    113 H113       19.1977  -32.7592  -38.2155 H         1 UNK         0.3472 
    114 H114       21.1968  -35.1492  -42.1032 H         1 UNK         0.0970 
    115 H115       19.7394  -34.7546  -41.2568 H         1 UNK         0.0970 
    116 H116       18.3683  -32.5570  -41.6216 H         1 UNK         0.0612 
    117 H117       17.9818  -33.6606  -42.9277 H         1 UNK         0.0612 
@<TRIPOS>BOND
     1    1    2 1    
     2    1   62 1    
     3    1   63 1    
     4    1   64 1    
     5    2    3 2    
     6    2    4 am   BACKBONE|DICT|INTERRES
     7    4    5 1    
     8    4   65 1    
     9    5    6 1    
    10    5   25 1    
    11    5   66 1    
    12    6    7 1    
    13    6   67 1    
    14    6   68 1    
    15    7    8 1    
    16    8    9 1    
    17    8   69 1    
    18    8   70 1    
    19    9   10 ar   
    20    9   14 ar   
    21   10   11 ar   
    22   10   71 1    
    23   11   12 ar   
    24   11   61 1    
    25   12   13 ar   
    26   12   72 1    
    27   13   14 ar   
    28   13   15 1    
    29   14   73 1    
    30   15   16 1    
    31   15   74 1    
    32   15   75 1    
    33   16   17 1    
    34   17   18 1    
    35   17   76 1    
    36   17   77 1    
    37   18   19 1    
    38   18   27 1    
    39   18   78 1    
    40   19   20 am   BACKBONE|DICT|INTERRES
    41   19   79 1    
    42   20   21 2    
    43   20   22 1    
    44   22   23 1    
    45   22   24 1    
    46   22   80 1    
    47   23   81 1    
    48   23   82 1    
    49   23   83 1    
    50   24   25 am   BACKBONE|DICT|INTERRES
    51   24   84 1    
    52   25   26 2    
    53   27   28 2    
    54   27   29 am   BACKBONE|DICT|INTERRES
    55   29   30 1    
    56   29   85 1    
    57   30   31 1    
    58   30   32 1    
    59   30   86 1    
    60   31   87 1    
    61   31   88 1    
    62   31   89 1    
    63   32   33 2    
    64   32   34 am   BACKBONE|DICT|INTERRES
    65   34   35 1    
    66   34   90 1    
    67   35   36 1    
    68   35   37 1    
    69   35   91 1    
    70   36   92 1    
    71   36   93 1    
    72   36   94 1    
    73   37   38 2    
    74   37   39 am   BACKBONE|DICT|INTERRES
    75   39   40 1    
    76   39   95 1    
    77   40   41 1    
    78   40   42 1    
    79   40   96 1    
    80   41   97 1    
    81   41   98 1    
    82   41   99 1    
    83   42   43 2    
    84   42   44 am   BACKBONE|DICT|INTERRES
    85   44   45 1    
    86   44  100 1    
    87   45   46 1    
    88   45   47 1    
    89   45  101 1    
    90   46  102 1    
    91   46  103 1    
    92   46  104 1    
    93   47   48 2    
    94   47   49 am   BACKBONE|DICT|INTERRES
    95   49   50 1    
    96   49  105 1    
    97   50   51 1    
    98   50   52 1    
    99   50  106 1    
   100   51  107 1    
   101   51  108 1    
   102   51  109 1    
   103   52   53 2    
   104   52   54 am   BACKBONE|DICT|INTERRES
   105   54   55 1    
   106   54  110 1    
   107   55   56 1    
   108   55   59 1    
   109   55  111 1    
   110   56   57 am   BACKBONE|DICT|INTERRES
   111   56   58 2    
   112   57  112 1    
   113   57  113 1    
   114   59   60 1    
   115   59  114 1    
   116   59  115 1    
   117   60   61 1    
   118   61  116 1    
   119   61  117 1    
@<TRIPOS>SUBSTRUCTURE
     1 UNK         1 GROUP             0       ****    0 ROOT    
