@<TRIPOS>MOLECULE
3R8
117   119    1
SMALL
USER_CHARGES


@<TRIPOS>ATOM
      1 CA         19.7559  -22.9597  -43.5459 C.3       0 UNK        -0.2013 
      2 C          19.9213  -23.9427  -44.6951 C.2       0 UNK         0.4866 
      3 O          20.9665  -23.9530  -45.3445 O.2       0 UNK        -0.5176 
      4 N          18.8927  -24.7600  -44.9585 N.am      1 UNK        -0.4884 
      5 CA         18.8610  -25.7653  -46.0305 C.3       1 UNK         0.0853 
      6 C6         17.4273  -26.2819  -46.3199 C.3       10 UNK        -0.0849 
      7 S7         16.4489  -26.6731  -44.8247 S.3       10 UNK        -0.2776 
      8 C8         15.7103  -28.2878  -45.2334 C.3       10 UNK         0.0316 
      9 C9         16.4141  -29.4284  -44.5139 C.ar      10 UNK        -0.0863 
     10 C10        17.1370  -30.3921  -45.2233 C.ar      10 UNK        -0.1009 
     11 C11        17.7373  -31.4706  -44.5608 C.ar      10 UNK        -0.0712 
     12 C12        17.6276  -31.5540  -43.1643 C.ar      10 UNK        -0.0894 
     13 C13        16.9090  -30.5952  -42.4453 C.ar      10 UNK        -0.0745 
     14 C14        16.2997  -29.5408  -43.1271 C.ar      10 UNK        -0.0972 
     15 C15        16.7418  -30.7140  -40.9380 C.3       10 UNK         0.0209 
     16 S16        17.5874  -29.3709  -40.0471 S.3       10 UNK        -0.2568 
     17 C17        19.3018  -29.9921  -39.9267 C.3       10 UNK        -0.0983 
     18 CA         20.3868  -29.0185  -40.4512 C.3       3 UNK         0.0876 
     19 N          20.3128  -28.8160  -41.9045 N.am      3 UNK        -0.4424 
     20 C          21.2720  -28.2146  -42.6243 C.2       2 UNK         0.4918 
     21 O          22.2396  -27.6396  -42.1274 O.2       2 UNK        -0.4875 
     22 CA         21.1278  -28.2440  -44.1453 C.3       2 UNK         0.0481 
     23 CB         20.9179  -29.6778  -44.6649 C.3       2 UNK        -0.1831 
     24 N          20.0673  -27.3296  -44.5617 N.am      2 UNK        -0.4498 
     25 C          19.8673  -26.9150  -45.8198 C.2       1 UNK         0.5027 
     26 O          20.4673  -27.3665  -46.7968 O.2       1 UNK        -0.4969 
     27 C          20.4453  -27.6975  -39.6528 C.2       3 UNK         0.5005 
     28 O          21.1907  -27.6069  -38.6769 O.2       3 UNK        -0.5279 
     29 N          19.7246  -26.6726  -40.1309 N.am      4 UNK        -0.4463 
     30 CA         19.7358  -25.3072  -39.5964 C.3       4 UNK         0.0283 
     31 CB         18.5818  -24.5133  -40.2285 C.3       4 UNK        -0.1875 
     32 C          21.0776  -24.5707  -39.7864 C.2       4 UNK         0.4949 
     33 O          21.3461  -23.6204  -39.0522 O.2       4 UNK        -0.5039 
     34 N          21.8995  -25.0264  -40.7421 N.am      5 UNK        -0.4663 
     35 CA         23.2682  -24.5579  -40.9777 C.3       5 UNK         0.0242 
     36 CB         23.4887  -24.4218  -42.4959 C.3       5 UNK        -0.1982 
     37 C          24.3166  -25.5000  -40.3505 C.2       5 UNK         0.5017 
     38 O          25.5100  -25.2933  -40.5729 O.2       5 UNK        -0.5012 
     39 N          23.8640  -26.5172  -39.5982 N.am      6 UNK        -0.4439 
     40 CA         24.6443  -27.5854  -38.9626 C.3       6 UNK         0.0297 
     41 CB         25.6006  -27.0166  -37.8921 C.3       6 UNK        -0.2006 
     42 C          25.3514  -28.5275  -39.9598 C.2       6 UNK         0.4892 
     43 O          26.3473  -29.1553  -39.5937 O.2       6 UNK        -0.5089 
     44 N          24.8249  -28.6344  -41.1876 N.am      7 UNK        -0.4243 
     45 CA         25.2841  -29.5831  -42.2022 C.3       7 UNK         0.0196 
     46 CB         25.0592  -28.9790  -43.5977 C.3       7 UNK        -0.2007 
     47 C          24.5448  -30.9238  -42.0602 C.2       7 UNK         0.5020 
     48 O          23.4857  -30.9907  -41.4303 O.2       7 UNK        -0.5147 
     49 N          25.1212  -31.9710  -42.6609 N.am      8 UNK        -0.4734 
     50 CA         24.5736  -33.3297  -42.6775 C.3       8 UNK         0.0238 
     51 CB         25.6641  -34.2961  -43.1712 C.3       8 UNK        -0.1912 
     52 C          23.3120  -33.4531  -43.5517 C.2       8 UNK         0.5038 
     53 O          23.1224  -32.6658  -44.4820 O.2       8 UNK        -0.5046 
     54 N          22.5019  -34.4732  -43.2557 N.am      9 UNK        -0.4200 
     55 CA         21.2876  -34.8411  -43.9919 C.3       9 UNK         0.0839 
     56 C          21.0470  -36.3693  -43.8895 C.2       9 UNK         0.5513 
     57 N          21.0763  -36.9474  -42.6933 N.am      9 UNK        -0.7519 
     58 O          20.8649  -37.0419  -44.9008 O.2       9 UNK        -0.4960 
     59 C59        20.0607  -34.0029  -43.5418 C.3       10 UNK        -0.0876 
     60 S60        18.6264  -34.1688  -44.6635 S.3       10 UNK        -0.2414 
     61 C61        18.5112  -32.4989  -45.3924 C.3       10 UNK         0.0169 
     62 H62        20.0644  -21.9625  -43.8587 H         1 UNK         0.0903 
     63 H63        18.7212  -22.8982  -43.2094 H         1 UNK         0.0903 
     64 H64        20.3764  -23.2567  -42.7015 H         1 UNK         0.0903 
     65 H65        18.0496  -24.7081  -44.4024 H         1 UNK         0.3096 
     66 H66        19.1970  -25.2561  -46.9373 H         1 UNK         0.1121 
     67 H67        16.8781  -25.5108  -46.8624 H         1 UNK         0.0849 
     68 H68        17.4560  -27.1393  -46.9952 H         1 UNK         0.0849 
     69 H69        14.6639  -28.2753  -44.9248 H         1 UNK         0.0865 
     70 H70        15.6969  -28.4475  -46.3123 H         1 UNK         0.0865 
     71 H71        17.2225  -30.3104  -46.2985 H         1 UNK         0.1346 
     72 H72        18.0833  -32.3707  -42.6257 H         1 UNK         0.1412 
     73 H73        15.7320  -28.8038  -42.5747 H         1 UNK         0.1426 
     74 H74        17.0912  -31.6808  -40.5721 H         1 UNK         0.0716 
     75 H75        15.6779  -30.6696  -40.7007 H         1 UNK         0.0716 
     76 H76        19.4954  -30.2322  -38.8796 H         1 UNK         0.0695 
     77 H77        19.3833  -30.9405  -40.4599 H         1 UNK         0.0695 
     78 H78        21.3480  -29.5076  -40.2726 H         1 UNK         0.0983 
     79 H79        19.5283  -29.2431  -42.3763 H         1 UNK         0.3095 
     80 H80        22.0628  -27.8668  -44.5637 H         1 UNK         0.0454 
     81 H81        20.9786  -29.7328  -45.7512 H         1 UNK         0.0851 
     82 H82        19.9499  -30.0660  -44.3645 H         1 UNK         0.0851 
     83 H83        21.6783  -30.3525  -44.2690 H         1 UNK         0.0851 
     84 H84        19.5313  -26.8899  -43.8274 H         1 UNK         0.2976 
     85 H85        19.1183  -26.8524  -40.9178 H         1 UNK         0.3116 
     86 H86        19.5554  -25.3689  -38.5211 H         1 UNK         0.0646 
     87 H87        18.5804  -23.4780  -39.8843 H         1 UNK         0.0847 
     88 H88        17.6155  -24.9415  -39.9612 H         1 UNK         0.0847 
     89 H89        18.6496  -24.4977  -41.3155 H         1 UNK         0.0847 
     90 H90        21.6266  -25.8446  -41.2740 H         1 UNK         0.3040 
     91 H91        23.4130  -23.5748  -40.5245 H         1 UNK         0.1015 
     92 H92        22.7762  -23.7281  -42.9412 H         1 UNK         0.0786 
     93 H93        23.3888  -25.3788  -43.0091 H         1 UNK         0.0786 
     94 H94        24.4857  -24.0383  -42.7159 H         1 UNK         0.0786 
     95 H95        22.8613  -26.5990  -39.4704 H         1 UNK         0.3172 
     96 H96        23.9151  -28.2087  -38.4433 H         1 UNK         0.0595 
     97 H97        25.0740  -26.3655  -37.1944 H         1 UNK         0.0839 
     98 H98        26.4149  -26.4445  -38.3376 H         1 UNK         0.0839 
     99 H99        26.0524  -27.8174  -37.3055 H         1 UNK         0.0839 
    100 H100       23.9629  -28.1400  -41.3982 H         1 UNK         0.2998 
    101 H101       26.3544  -29.7598  -42.0743 H         1 UNK         0.0822 
    102 H102       25.5060  -27.9880  -43.6805 H         1 UNK         0.0787 
    103 H103       25.5072  -29.6031  -44.3717 H         1 UNK         0.0787 
    104 H104       24.0002  -28.8908  -43.8311 H         1 UNK         0.0787 
    105 H105       25.9664  -31.8208  -43.1929 H         1 UNK         0.3055 
    106 H106       24.3060  -33.5951  -41.6519 H         1 UNK         0.1106 
    107 H107       25.3123  -35.3286  -43.1595 H         1 UNK         0.0828 
    108 H108       25.9708  -34.0698  -44.1933 H         1 UNK         0.0828 
    109 H109       26.5501  -34.2534  -42.5373 H         1 UNK         0.0828 
    110 H110       22.7673  -35.1148  -42.5221 H         1 UNK         0.2931 
    111 H111       21.4691  -34.6260  -45.0475 H         1 UNK         0.0412 
    112 H112       21.1707  -36.4105  -41.8461 H         1 UNK         0.3472 
    113 H113       20.9334  -37.9441  -42.6342 H         1 UNK         0.3472 
    114 H114       19.7517  -34.2838  -42.5336 H         1 UNK         0.0970 
    115 H115       20.3393  -32.9496  -43.4813 H         1 UNK         0.0970 
    116 H116       19.5135  -32.1239  -45.6018 H         1 UNK         0.0612 
    117 H117       18.0221  -32.6090  -46.3615 H         1 UNK         0.0612 
@<TRIPOS>BOND
     1    1    2 1    
     2    1   62 1    
     3    1   63 1    
     4    1   64 1    
     5    2    3 2    
     6    2    4 am   BACKBONE|DICT|INTERRES
     7    4    5 1    
     8    4   65 1    
     9    5    6 1    
    10    5   25 1    
    11    5   66 1    
    12    6    7 1    
    13    6   67 1    
    14    6   68 1    
    15    7    8 1    
    16    8    9 1    
    17    8   69 1    
    18    8   70 1    
    19    9   10 ar   
    20    9   14 ar   
    21   10   11 ar   
    22   10   71 1    
    23   11   12 ar   
    24   11   61 1    
    25   12   13 ar   
    26   12   72 1    
    27   13   14 ar   
    28   13   15 1    
    29   14   73 1    
    30   15   16 1    
    31   15   74 1    
    32   15   75 1    
    33   16   17 1    
    34   17   18 1    
    35   17   76 1    
    36   17   77 1    
    37   18   19 1    
    38   18   27 1    
    39   18   78 1    
    40   19   20 am   BACKBONE|DICT|INTERRES
    41   19   79 1    
    42   20   21 2    
    43   20   22 1    
    44   22   23 1    
    45   22   24 1    
    46   22   80 1    
    47   23   81 1    
    48   23   82 1    
    49   23   83 1    
    50   24   25 am   BACKBONE|DICT|INTERRES
    51   24   84 1    
    52   25   26 2    
    53   27   28 2    
    54   27   29 am   BACKBONE|DICT|INTERRES
    55   29   30 1    
    56   29   85 1    
    57   30   31 1    
    58   30   32 1    
    59   30   86 1    
    60   31   87 1    
    61   31   88 1    
    62   31   89 1    
    63   32   33 2    
    64   32   34 am   BACKBONE|DICT|INTERRES
    65   34   35 1    
    66   34   90 1    
    67   35   36 1    
    68   35   37 1    
    69   35   91 1    
    70   36   92 1    
    71   36   93 1    
    72   36   94 1    
    73   37   38 2    
    74   37   39 am   BACKBONE|DICT|INTERRES
    75   39   40 1    
    76   39   95 1    
    77   40   41 1    
    78   40   42 1    
    79   40   96 1    
    80   41   97 1    
    81   41   98 1    
    82   41   99 1    
    83   42   43 2    
    84   42   44 am   BACKBONE|DICT|INTERRES
    85   44   45 1    
    86   44  100 1    
    87   45   46 1    
    88   45   47 1    
    89   45  101 1    
    90   46  102 1    
    91   46  103 1    
    92   46  104 1    
    93   47   48 2    
    94   47   49 am   BACKBONE|DICT|INTERRES
    95   49   50 1    
    96   49  105 1    
    97   50   51 1    
    98   50   52 1    
    99   50  106 1    
   100   51  107 1    
   101   51  108 1    
   102   51  109 1    
   103   52   53 2    
   104   52   54 am   BACKBONE|DICT|INTERRES
   105   54   55 1    
   106   54  110 1    
   107   55   56 1    
   108   55   59 1    
   109   55  111 1    
   110   56   57 am   BACKBONE|DICT|INTERRES
   111   56   58 2    
   112   57  112 1    
   113   57  113 1    
   114   59   60 1    
   115   59  114 1    
   116   59  115 1    
   117   60   61 1    
   118   61  116 1    
   119   61  117 1    
@<TRIPOS>SUBSTRUCTURE
     1 UNK         1 GROUP             0       ****    0 ROOT    
