@<TRIPOS>MOLECULE
3R8
117   119    1
SMALL
USER_CHARGES


@<TRIPOS>ATOM
      1 CA         19.9187  -29.4137  -42.2265 C.3       0 UNK        -0.2013 
      2 C          18.6134  -28.6422  -42.2786 C.2       0 UNK         0.4866 
      3 O          18.1962  -28.0836  -41.2641 O.2       0 UNK        -0.5176 
      4 N          17.9773  -28.5676  -43.4555 N.am      1 UNK        -0.4884 
      5 CA         16.7351  -27.8179  -43.6997 C.3       1 UNK         0.0853 
      6 C6         15.9444  -28.3675  -44.9164 C.3       10 UNK        -0.0849 
      7 S7         15.6135  -30.1611  -44.8018 S.3       10 UNK        -0.2776 
      8 C8         16.4410  -30.7968  -46.2973 C.3       10 UNK         0.0316 
      9 C9         17.9592  -30.7204  -46.1991 C.ar      10 UNK        -0.0863 
     10 C10        18.6759  -31.7409  -45.5674 C.ar      10 UNK        -0.1009 
     11 C11        20.0722  -31.6916  -45.4948 C.ar      10 UNK        -0.0712 
     12 C12        20.7508  -30.6026  -46.0526 C.ar      10 UNK        -0.0894 
     13 C13        20.0455  -29.5836  -46.7009 C.ar      10 UNK        -0.0745 
     14 C14        18.6520  -29.6514  -46.7745 C.ar      10 UNK        -0.0972 
     15 C15        20.7831  -28.4291  -47.3652 C.3       10 UNK         0.0209 
     16 S16        20.5130  -26.8519  -46.4993 S.3       10 UNK        -0.2568 
     17 C17        21.5191  -27.1135  -45.0069 C.3       10 UNK        -0.0983 
     18 CA         21.4852  -25.8960  -44.0484 C.3       3 UNK         0.0876 
     19 N          20.1298  -25.6199  -43.5775 N.am      3 UNK        -0.4424 
     20 C          19.6639  -24.4491  -43.1247 C.2       2 UNK         0.4918 
     21 O          20.3493  -23.4270  -43.0690 O.2       2 UNK        -0.4875 
     22 CA         18.2088  -24.4190  -42.6066 C.3       2 UNK         0.0481 
     23 CB         17.3977  -23.2549  -43.2117 C.3       2 UNK        -0.1831 
     24 N          17.5184  -25.7128  -42.7341 N.am      2 UNK        -0.4498 
     25 C          17.0631  -26.3146  -43.8443 C.2       1 UNK         0.5027 
     26 O          16.9955  -25.7690  -44.9459 O.2       1 UNK        -0.4969 
     27 C          22.4129  -26.1084  -42.8382 C.2       3 UNK         0.5005 
     28 O          22.7795  -27.2469  -42.5378 O.2       3 UNK        -0.5279 
     29 N          22.7762  -25.0145  -42.1549 N.am      4 UNK        -0.4463 
     30 CA         23.6363  -25.0046  -40.9629 C.3       4 UNK         0.0283 
     31 CB         23.7260  -23.5709  -40.4167 C.3       4 UNK        -0.1875 
     32 C          25.0473  -25.5853  -41.1844 C.2       4 UNK         0.4949 
     33 O          25.6678  -26.0421  -40.2251 O.2       4 UNK        -0.5039 
     34 N          25.5184  -25.5798  -42.4395 N.am      5 UNK        -0.4663 
     35 CA         26.7592  -26.2287  -42.8697 C.3       5 UNK         0.0242 
     36 CB         27.1363  -25.7119  -44.2677 C.3       5 UNK        -0.1982 
     37 C          26.6761  -27.7679  -42.8699 C.2       5 UNK         0.5017 
     38 O          27.7165  -28.4167  -42.7546 O.2       5 UNK        -0.5012 
     39 N          25.4612  -28.3205  -43.0021 N.am      6 UNK        -0.4439 
     40 CA         25.1821  -29.7522  -42.9015 C.3       6 UNK         0.0297 
     41 CB         24.0799  -30.1488  -43.9036 C.3       6 UNK        -0.2006 
     42 C          24.7907  -30.0910  -41.4566 C.2       6 UNK         0.4892 
     43 O          25.5229  -30.8299  -40.7974 O.2       6 UNK        -0.5089 
     44 N          23.6756  -29.4941  -41.0043 N.am      7 UNK        -0.4243 
     45 CA         23.0264  -29.5973  -39.6911 C.3       7 UNK         0.0196 
     46 CB         23.9565  -29.0717  -38.5799 C.3       7 UNK        -0.2007 
     47 C          22.4867  -30.9987  -39.3355 C.2       7 UNK         0.5020 
     48 O          23.0297  -32.0202  -39.7556 O.2       7 UNK        -0.5147 
     49 N          21.4244  -31.0090  -38.5155 N.am      8 UNK        -0.4734 
     50 CA         20.8070  -32.1790  -37.8657 C.3       8 UNK         0.0238 
     51 CB         21.7663  -32.7654  -36.8067 C.3       8 UNK        -0.1912 
     52 C          20.2589  -33.2637  -38.8201 C.2       8 UNK         0.5038 
     53 O          20.1232  -34.4182  -38.4090 O.2       8 UNK        -0.5046 
     54 N          19.9426  -32.8824  -40.0636 N.am      9 UNK        -0.4200 
     55 CA         19.3466  -33.7520  -41.0888 C.3       9 UNK         0.0839 
     56 C          17.9139  -34.2203  -40.7133 C.2       9 UNK         0.5513 
     57 N          17.5390  -35.4334  -41.0952 N.am      9 UNK        -0.7519 
     58 O          17.1297  -33.4805  -40.1223 O.2       9 UNK        -0.4960 
     59 C59        19.3450  -33.0764  -42.4833 C.3       10 UNK        -0.0876 
     60 S60        21.0239  -32.6469  -43.0594 S.3       10 UNK        -0.2414 
     61 C61        20.8526  -32.8364  -44.8606 C.3       10 UNK         0.0169 
     62 H62        19.8467  -30.2211  -41.5011 H         1 UNK         0.0903 
     63 H63        20.1775  -29.8377  -43.1954 H         1 UNK         0.0903 
     64 H64        20.7276  -28.7553  -41.9167 H         1 UNK         0.0903 
     65 H65        18.3434  -29.0630  -44.2588 H         1 UNK         0.3096 
     66 H66        16.0892  -27.9238  -42.8246 H         1 UNK         0.1121 
     67 H67        16.4640  -28.1509  -45.8496 H         1 UNK         0.0849 
     68 H68        14.9822  -27.8577  -44.9935 H         1 UNK         0.0849 
     69 H69        16.1390  -31.8343  -46.4490 H         1 UNK         0.0865 
     70 H70        16.0836  -30.2518  -47.1725 H         1 UNK         0.0865 
     71 H71        18.1435  -32.5823  -45.1467 H         1 UNK         0.1346 
     72 H72        21.8303  -30.5628  -46.0043 H         1 UNK         0.1412 
     73 H73        18.1120  -28.8698  -47.2914 H         1 UNK         0.1426 
     74 H74        21.8536  -28.6310  -47.4277 H         1 UNK         0.0716 
     75 H75        20.4323  -28.3282  -48.3932 H         1 UNK         0.0716 
     76 H76        21.1621  -28.0138  -44.5056 H         1 UNK         0.0695 
     77 H77        22.5433  -27.3215  -45.3234 H         1 UNK         0.0695 
     78 H78        21.8523  -25.0265  -44.5985 H         1 UNK         0.0983 
     79 H79        19.4927  -26.4001  -43.5969 H         1 UNK         0.3095 
     80 H80        18.2814  -24.2374  -41.5335 H         1 UNK         0.0454 
     81 H81        17.3777  -23.2911  -44.3010 H         1 UNK         0.0851 
     82 H82        16.3682  -23.2577  -42.8542 H         1 UNK         0.0851 
     83 H83        17.8337  -22.2946  -42.9339 H         1 UNK         0.0851 
     84 H84        17.5786  -26.3056  -41.9095 H         1 UNK         0.2976 
     85 H85        22.3774  -24.1271  -42.4389 H         1 UNK         0.3116 
     86 H86        23.1510  -25.6276  -40.2085 H         1 UNK         0.0646 
     87 H87        24.1795  -22.8912  -41.1391 H         1 UNK         0.0847 
     88 H88        22.7412  -23.1807  -40.1591 H         1 UNK         0.0847 
     89 H89        24.3328  -23.5352  -39.5106 H         1 UNK         0.0847 
     90 H90        24.9518  -25.1542  -43.1583 H         1 UNK         0.3040 
     91 H91        27.5518  -25.9460  -42.1729 H         1 UNK         0.1015 
     92 H92        26.3747  -25.9571  -45.0091 H         1 UNK         0.0786 
     93 H93        28.0745  -26.1540  -44.6066 H         1 UNK         0.0786 
     94 H94        27.2720  -24.6302  -44.2683 H         1 UNK         0.0786 
     95 H95        24.6510  -27.7098  -43.0084 H         1 UNK         0.3172 
     96 H96        26.0765  -30.3256  -43.1547 H         1 UNK         0.0595 
     97 H97        24.3942  -29.9575  -44.9295 H         1 UNK         0.0839 
     98 H98        23.1473  -29.6096  -43.7377 H         1 UNK         0.0839 
     99 H99        23.8536  -31.2132  -43.8277 H         1 UNK         0.0839 
    100 H100       23.2172  -28.8517  -41.6459 H         1 UNK         0.2998 
    101 H101       22.1690  -28.9247  -39.7489 H         1 UNK         0.0822 
    102 H102       24.3066  -28.0632  -38.8008 H         1 UNK         0.0787 
    103 H103       23.4400  -29.0323  -37.6201 H         1 UNK         0.0787 
    104 H104       24.8319  -29.7085  -38.4488 H         1 UNK         0.0787 
    105 H105       21.0369  -30.1169  -38.2376 H         1 UNK         0.3055 
    106 H106       19.9323  -31.8003  -37.3341 H         1 UNK         0.1106 
    107 H107       22.1132  -31.9973  -36.1155 H         1 UNK         0.0828 
    108 H108       21.2745  -33.5342  -36.2094 H         1 UNK         0.0828 
    109 H109       22.6428  -33.2229  -37.2670 H         1 UNK         0.0828 
    110 H110       20.1053  -31.9239  -40.3252 H         1 UNK         0.2931 
    111 H111       19.9787  -34.6406  -41.1516 H         1 UNK         0.0412 
    112 H112       16.6074  -35.7508  -40.8754 H         1 UNK         0.3472 
    113 H113       18.1728  -36.0453  -41.5861 H         1 UNK         0.3472 
    114 H114       18.8940  -33.7522  -43.2118 H         1 UNK         0.0970 
    115 H115       18.7268  -32.1770  -42.4825 H         1 UNK         0.0970 
    116 H116       21.8517  -32.8871  -45.2958 H         1 UNK         0.0612 
    117 H117       20.3782  -33.7916  -45.0899 H         1 UNK         0.0612 
@<TRIPOS>BOND
     1    1    2 1    
     2    1   62 1    
     3    1   63 1    
     4    1   64 1    
     5    2    3 2    
     6    2    4 am   BACKBONE|DICT|INTERRES
     7    4    5 1    
     8    4   65 1    
     9    5    6 1    
    10    5   25 1    
    11    5   66 1    
    12    6    7 1    
    13    6   67 1    
    14    6   68 1    
    15    7    8 1    
    16    8    9 1    
    17    8   69 1    
    18    8   70 1    
    19    9   10 ar   
    20    9   14 ar   
    21   10   11 ar   
    22   10   71 1    
    23   11   12 ar   
    24   11   61 1    
    25   12   13 ar   
    26   12   72 1    
    27   13   14 ar   
    28   13   15 1    
    29   14   73 1    
    30   15   16 1    
    31   15   74 1    
    32   15   75 1    
    33   16   17 1    
    34   17   18 1    
    35   17   76 1    
    36   17   77 1    
    37   18   19 1    
    38   18   27 1    
    39   18   78 1    
    40   19   20 am   BACKBONE|DICT|INTERRES
    41   19   79 1    
    42   20   21 2    
    43   20   22 1    
    44   22   23 1    
    45   22   24 1    
    46   22   80 1    
    47   23   81 1    
    48   23   82 1    
    49   23   83 1    
    50   24   25 am   BACKBONE|DICT|INTERRES
    51   24   84 1    
    52   25   26 2    
    53   27   28 2    
    54   27   29 am   BACKBONE|DICT|INTERRES
    55   29   30 1    
    56   29   85 1    
    57   30   31 1    
    58   30   32 1    
    59   30   86 1    
    60   31   87 1    
    61   31   88 1    
    62   31   89 1    
    63   32   33 2    
    64   32   34 am   BACKBONE|DICT|INTERRES
    65   34   35 1    
    66   34   90 1    
    67   35   36 1    
    68   35   37 1    
    69   35   91 1    
    70   36   92 1    
    71   36   93 1    
    72   36   94 1    
    73   37   38 2    
    74   37   39 am   BACKBONE|DICT|INTERRES
    75   39   40 1    
    76   39   95 1    
    77   40   41 1    
    78   40   42 1    
    79   40   96 1    
    80   41   97 1    
    81   41   98 1    
    82   41   99 1    
    83   42   43 2    
    84   42   44 am   BACKBONE|DICT|INTERRES
    85   44   45 1    
    86   44  100 1    
    87   45   46 1    
    88   45   47 1    
    89   45  101 1    
    90   46  102 1    
    91   46  103 1    
    92   46  104 1    
    93   47   48 2    
    94   47   49 am   BACKBONE|DICT|INTERRES
    95   49   50 1    
    96   49  105 1    
    97   50   51 1    
    98   50   52 1    
    99   50  106 1    
   100   51  107 1    
   101   51  108 1    
   102   51  109 1    
   103   52   53 2    
   104   52   54 am   BACKBONE|DICT|INTERRES
   105   54   55 1    
   106   54  110 1    
   107   55   56 1    
   108   55   59 1    
   109   55  111 1    
   110   56   57 am   BACKBONE|DICT|INTERRES
   111   56   58 2    
   112   57  112 1    
   113   57  113 1    
   114   59   60 1    
   115   59  114 1    
   116   59  115 1    
   117   60   61 1    
   118   61  116 1    
   119   61  117 1    
@<TRIPOS>SUBSTRUCTURE
     1 UNK         1 GROUP             0       ****    0 ROOT    
