@<TRIPOS>MOLECULE
3R8
117   119    1
SMALL
USER_CHARGES


@<TRIPOS>ATOM
      1 CA         16.4013  -22.1038  -41.7245 C.3       0 UNK        -0.2013 
      2 C          16.1077  -22.8950  -42.9907 C.2       0 UNK         0.4866 
      3 O          15.4102  -22.3963  -43.8752 O.2       0 UNK        -0.5176 
      4 N          16.6273  -24.1260  -43.0801 N.am      1 UNK        -0.4884 
      5 CA         16.5103  -24.9993  -44.2537 C.3       1 UNK         0.0853 
      6 C6         16.6004  -26.4947  -43.8489 C.3       10 UNK        -0.0849 
      7 S7         15.5809  -27.5576  -44.9271 S.3       10 UNK        -0.2776 
      8 C8         15.5452  -29.1103  -43.9721 C.3       10 UNK         0.0316 
      9 C9         16.9358  -29.7119  -43.8373 C.ar      10 UNK        -0.0863 
     10 C10        17.5738  -29.7589  -42.5930 C.ar      10 UNK        -0.1009 
     11 C11        18.8732  -30.2637  -42.4822 C.ar      10 UNK        -0.0712 
     12 C12        19.5332  -30.7176  -43.6279 C.ar      10 UNK        -0.0894 
     13 C13        18.9020  -30.6812  -44.8746 C.ar      10 UNK        -0.0745 
     14 C14        17.5973  -30.1934  -44.9704 C.ar      10 UNK        -0.0972 
     15 C15        19.6507  -31.1156  -46.1264 C.3       10 UNK         0.0209 
     16 S16        20.0800  -29.6960  -47.1893 S.3       10 UNK        -0.2568 
     17 C17        21.0573  -28.6638  -46.0433 C.3       10 UNK        -0.0983 
     18 CA         21.2078  -27.1928  -46.5052 C.3       3 UNK         0.0876 
     19 N          19.9052  -26.5714  -46.7679 N.am      3 UNK        -0.4424 
     20 C          19.7081  -25.5087  -47.5564 C.2       2 UNK         0.4918 
     21 O          20.6066  -24.9444  -48.1827 O.2       2 UNK        -0.4875 
     22 CA         18.2615  -24.9969  -47.6965 C.3       2 UNK         0.0481 
     23 CB         17.5958  -25.6226  -48.9327 C.3       2 UNK        -0.1831 
     24 N          17.4182  -25.2438  -46.5214 N.am      2 UNK        -0.4498 
     25 C          17.5420  -24.6179  -45.3427 C.2       1 UNK         0.5027 
     26 O          18.4140  -23.7762  -45.1100 O.2       1 UNK        -0.4969 
     27 C          22.0008  -26.3954  -45.4467 C.2       3 UNK         0.5005 
     28 O          21.4494  -25.5126  -44.7828 O.2       3 UNK        -0.5279 
     29 N          23.2767  -26.7645  -45.2642 N.am      4 UNK        -0.4463 
     30 CA         24.1094  -26.3241  -44.1417 C.3       4 UNK         0.0283 
     31 CB         25.5587  -26.7805  -44.3756 C.3       4 UNK        -0.1875 
     32 C          23.5816  -26.8738  -42.8023 C.2       4 UNK         0.4949 
     33 O          23.0496  -27.9861  -42.7620 O.2       4 UNK        -0.5039 
     34 N          23.7443  -26.0831  -41.7361 N.am      5 UNK        -0.4663 
     35 CA         23.3117  -26.4201  -40.3782 C.3       5 UNK         0.0242 
     36 CB         23.3099  -25.1357  -39.5309 C.3       5 UNK        -0.1982 
     37 C          24.1959  -27.4959  -39.7215 C.2       5 UNK         0.5017 
     38 O          25.3542  -27.6666  -40.1117 O.2       5 UNK        -0.5012 
     39 N          23.6353  -28.1510  -38.6946 N.am      6 UNK        -0.4439 
     40 CA         24.2436  -29.2037  -37.8729 C.3       6 UNK         0.0297 
     41 CB         25.4471  -28.6535  -37.0711 C.3       6 UNK        -0.2006 
     42 C          24.5514  -30.4792  -38.6848 C.2       6 UNK         0.4892 
     43 O          23.7862  -30.8160  -39.5918 O.2       6 UNK        -0.5089 
     44 N          25.6170  -31.2014  -38.2998 N.am      7 UNK        -0.4243 
     45 CA         26.1130  -32.4554  -38.8924 C.3       7 UNK         0.0196 
     46 CB         26.7120  -32.1811  -40.2884 C.3       7 UNK        -0.2007 
     47 C          25.0706  -33.5942  -38.9190 C.2       7 UNK         0.5020 
     48 O          25.1176  -34.4473  -39.8070 O.2       7 UNK        -0.5147 
     49 N          24.1148  -33.5568  -37.9756 N.am      8 UNK        -0.4734 
     50 CA         22.9236  -34.4150  -37.8764 C.3       8 UNK         0.0238 
     51 CB         23.3280  -35.8490  -37.4721 C.3       8 UNK        -0.1912 
     52 C          22.0297  -34.3884  -39.1377 C.2       8 UNK         0.5038 
     53 O          21.3196  -35.3622  -39.3956 O.2       8 UNK        -0.5046 
     54 N          22.0996  -33.2913  -39.9078 N.am      9 UNK        -0.4200 
     55 CA         21.4937  -33.1198  -41.2377 C.3       9 UNK         0.0839 
     56 C          22.0797  -34.0565  -42.3393 C.2       9 UNK         0.5513 
     57 N          23.2473  -34.6615  -42.1496 N.am      9 UNK        -0.7519 
     58 O          21.4868  -34.2117  -43.4037 O.2       9 UNK        -0.4960 
     59 C59        19.9365  -33.1086  -41.2111 C.3       10 UNK        -0.0876 
     60 S60        19.2353  -31.7838  -40.1657 S.3       10 UNK        -0.2414 
     61 C61        19.5832  -30.2780  -41.1350 C.3       10 UNK         0.0169 
     62 H62        17.0128  -22.6695  -41.0218 H         1 UNK         0.0903 
     63 H63        16.9319  -21.1848  -41.9718 H         1 UNK         0.0903 
     64 H64        15.4706  -21.8363  -41.2247 H         1 UNK         0.0903 
     65 H65        17.2279  -24.4630  -42.3411 H         1 UNK         0.3096 
     66 H66        15.5222  -24.8209  -44.6855 H         1 UNK         0.1121 
     67 H67        16.2294  -26.6306  -42.8313 H         1 UNK         0.0849 
     68 H68        17.6321  -26.8535  -43.8384 H         1 UNK         0.0849 
     69 H69        15.0994  -28.9256  -42.9934 H         1 UNK         0.0865 
     70 H70        14.8921  -29.8240  -44.4764 H         1 UNK         0.0865 
     71 H71        17.0683  -29.3878  -41.7118 H         1 UNK         0.1346 
     72 H72        20.5484  -31.0823  -43.5521 H         1 UNK         0.1412 
     73 H73        17.1130  -30.1452  -45.9365 H         1 UNK         0.1426 
     74 H74        19.0330  -31.8123  -46.6947 H         1 UNK         0.0716 
     75 H75        20.5626  -31.6553  -45.8656 H         1 UNK         0.0716 
     76 H76        22.0319  -29.1409  -45.9261 H         1 UNK         0.0695 
     77 H77        20.5940  -28.6768  -45.0568 H         1 UNK         0.0695 
     78 H78        21.7867  -27.1806  -47.4316 H         1 UNK         0.0983 
     79 H79        19.1167  -26.9668  -46.2797 H         1 UNK         0.3095 
     80 H80        18.3109  -23.9170  -47.8516 H         1 UNK         0.0454 
     81 H81        18.1836  -25.4307  -49.8316 H         1 UNK         0.0851 
     82 H82        16.6027  -25.2070  -49.1037 H         1 UNK         0.0851 
     83 H83        17.4964  -26.7045  -48.8345 H         1 UNK         0.0851 
     84 H84        16.6892  -25.9383  -46.6201 H         1 UNK         0.2976 
     85 H85        23.6491  -27.5160  -45.8266 H         1 UNK         0.3116 
     86 H86        24.0873  -25.2325  -44.1103 H         1 UNK         0.0646 
     87 H87        25.6371  -27.8675  -44.4227 H         1 UNK         0.0847 
     88 H88        25.9611  -26.3723  -45.3028 H         1 UNK         0.0847 
     89 H89        26.2085  -26.4447  -43.5662 H         1 UNK         0.0847 
     90 H90        24.2297  -25.2048  -41.8497 H         1 UNK         0.3040 
     91 H91        22.2905  -26.8047  -40.4356 H         1 UNK         0.1015 
     92 H92        22.9516  -25.3300  -38.5190 H         1 UNK         0.0786 
     93 H93        22.6564  -24.3765  -39.9614 H         1 UNK         0.0786 
     94 H94        24.3101  -24.7088  -39.4442 H         1 UNK         0.0786 
     95 H95        22.6707  -27.9443  -38.4752 H         1 UNK         0.3172 
     96 H96        23.4784  -29.4918  -37.1507 H         1 UNK         0.0595 
     97 H97        26.3081  -28.4530  -37.7102 H         1 UNK         0.0839 
     98 H98        25.7640  -29.3505  -36.2946 H         1 UNK         0.0839 
     99 H99        25.1891  -27.7221  -36.5668 H         1 UNK         0.0839 
    100 H100       26.1604  -30.8467  -37.5248 H         1 UNK         0.2998 
    101 H101       26.9209  -32.8040  -38.2473 H         1 UNK         0.0822 
    102 H102       27.2060  -33.0681  -40.6871 H         1 UNK         0.0787 
    103 H103       27.4576  -31.3869  -40.2513 H         1 UNK         0.0787 
    104 H104       25.9442  -31.8860  -41.0049 H         1 UNK         0.0787 
    105 H105       24.1681  -32.8087  -37.2981 H         1 UNK         0.3055 
    106 H106       22.3112  -34.0042  -37.0720 H         1 UNK         0.1106 
    107 H107       23.9453  -35.8495  -36.5738 H         1 UNK         0.0828 
    108 H108       22.4501  -36.4600  -37.2585 H         1 UNK         0.0828 
    109 H109       23.8867  -36.3494  -38.2636 H         1 UNK         0.0828 
    110 H110       22.7222  -32.5401  -39.6281 H         1 UNK         0.2931 
    111 H111       21.8176  -32.1298  -41.5564 H         1 UNK         0.0412 
    112 H112       23.7713  -34.5387  -41.2891 H         1 UNK         0.3472 
    113 H113       23.6162  -35.2526  -42.8774 H         1 UNK         0.3472 
    114 H114       19.5222  -33.0093  -42.2141 H         1 UNK         0.0970 
    115 H115       19.5582  -34.0641  -40.8463 H         1 UNK         0.0970 
    116 H116       19.2679  -29.4129  -40.5499 H         1 UNK         0.0612 
    117 H117       20.6597  -30.1644  -41.2697 H         1 UNK         0.0612 
@<TRIPOS>BOND
     1    1    2 1    
     2    1   62 1    
     3    1   63 1    
     4    1   64 1    
     5    2    3 2    
     6    2    4 am   BACKBONE|DICT|INTERRES
     7    4    5 1    
     8    4   65 1    
     9    5    6 1    
    10    5   25 1    
    11    5   66 1    
    12    6    7 1    
    13    6   67 1    
    14    6   68 1    
    15    7    8 1    
    16    8    9 1    
    17    8   69 1    
    18    8   70 1    
    19    9   10 ar   
    20    9   14 ar   
    21   10   11 ar   
    22   10   71 1    
    23   11   12 ar   
    24   11   61 1    
    25   12   13 ar   
    26   12   72 1    
    27   13   14 ar   
    28   13   15 1    
    29   14   73 1    
    30   15   16 1    
    31   15   74 1    
    32   15   75 1    
    33   16   17 1    
    34   17   18 1    
    35   17   76 1    
    36   17   77 1    
    37   18   19 1    
    38   18   27 1    
    39   18   78 1    
    40   19   20 am   BACKBONE|DICT|INTERRES
    41   19   79 1    
    42   20   21 2    
    43   20   22 1    
    44   22   23 1    
    45   22   24 1    
    46   22   80 1    
    47   23   81 1    
    48   23   82 1    
    49   23   83 1    
    50   24   25 am   BACKBONE|DICT|INTERRES
    51   24   84 1    
    52   25   26 2    
    53   27   28 2    
    54   27   29 am   BACKBONE|DICT|INTERRES
    55   29   30 1    
    56   29   85 1    
    57   30   31 1    
    58   30   32 1    
    59   30   86 1    
    60   31   87 1    
    61   31   88 1    
    62   31   89 1    
    63   32   33 2    
    64   32   34 am   BACKBONE|DICT|INTERRES
    65   34   35 1    
    66   34   90 1    
    67   35   36 1    
    68   35   37 1    
    69   35   91 1    
    70   36   92 1    
    71   36   93 1    
    72   36   94 1    
    73   37   38 2    
    74   37   39 am   BACKBONE|DICT|INTERRES
    75   39   40 1    
    76   39   95 1    
    77   40   41 1    
    78   40   42 1    
    79   40   96 1    
    80   41   97 1    
    81   41   98 1    
    82   41   99 1    
    83   42   43 2    
    84   42   44 am   BACKBONE|DICT|INTERRES
    85   44   45 1    
    86   44  100 1    
    87   45   46 1    
    88   45   47 1    
    89   45  101 1    
    90   46  102 1    
    91   46  103 1    
    92   46  104 1    
    93   47   48 2    
    94   47   49 am   BACKBONE|DICT|INTERRES
    95   49   50 1    
    96   49  105 1    
    97   50   51 1    
    98   50   52 1    
    99   50  106 1    
   100   51  107 1    
   101   51  108 1    
   102   51  109 1    
   103   52   53 2    
   104   52   54 am   BACKBONE|DICT|INTERRES
   105   54   55 1    
   106   54  110 1    
   107   55   56 1    
   108   55   59 1    
   109   55  111 1    
   110   56   57 am   BACKBONE|DICT|INTERRES
   111   56   58 2    
   112   57  112 1    
   113   57  113 1    
   114   59   60 1    
   115   59  114 1    
   116   59  115 1    
   117   60   61 1    
   118   61  116 1    
   119   61  117 1    
@<TRIPOS>SUBSTRUCTURE
     1 UNK         1 GROUP             0       ****    0 ROOT    
