@<TRIPOS>MOLECULE
3R8
117   119    1
SMALL
USER_CHARGES


@<TRIPOS>ATOM
      1 CA         21.2966  -23.9889  -48.3375 C.3       0 UNK        -0.2013 
      2 C          20.8466  -24.9831  -47.2782 C.2       0 UNK         0.4866 
      3 O          21.6352  -25.3523  -46.4089 O.2       0 UNK        -0.5176 
      4 N          19.5806  -25.4137  -47.3323 N.am      1 UNK        -0.4884 
      5 CA         18.9588  -26.3807  -46.4168 C.3       1 UNK         0.0853 
      6 C6         17.7706  -27.1059  -47.1010 C.3       10 UNK        -0.0849 
      7 S7         18.3844  -28.3352  -48.3046 S.3       10 UNK        -0.2776 
      8 C8         17.7193  -29.9097  -47.6614 C.3       10 UNK         0.0316 
      9 C9         18.0545  -30.1571  -46.1943 C.ar      10 UNK        -0.0863 
     10 C10        19.3580  -30.4816  -45.8019 C.ar      10 UNK        -0.1009 
     11 C11        19.6518  -30.7269  -44.4558 C.ar      10 UNK        -0.0712 
     12 C12        18.6314  -30.6485  -43.5051 C.ar      10 UNK        -0.0894 
     13 C13        17.3325  -30.3055  -43.8795 C.ar      10 UNK        -0.0745 
     14 C14        17.0474  -30.0716  -45.2268 C.ar      10 UNK        -0.0972 
     15 C15        16.2386  -30.1800  -42.8306 C.3       10 UNK         0.0209 
     16 S16        16.1357  -28.4794  -42.1847 S.3       10 UNK        -0.2568 
     17 C17        17.2693  -28.5153  -40.7514 C.3       10 UNK        -0.0983 
     18 CA         18.6939  -27.9848  -41.0527 C.3       3 UNK         0.0876 
     19 N          18.6850  -26.6764  -41.7147 N.am      3 UNK        -0.4424 
     20 C          19.7728  -26.0031  -42.1082 C.2       2 UNK         0.4918 
     21 O          20.9290  -26.3686  -41.8867 O.2       2 UNK        -0.4875 
     22 CA         19.5287  -24.7633  -42.9786 C.3       2 UNK         0.0481 
     23 CB         20.5800  -23.6674  -42.7307 C.3       2 UNK        -0.1831 
     24 N          19.5937  -25.1866  -44.3743 N.am      2 UNK        -0.4498 
     25 C          18.5847  -25.7313  -45.0651 C.2       1 UNK         0.5027 
     26 O          17.4186  -25.7385  -44.6663 O.2       1 UNK        -0.4969 
     27 C          19.5545  -27.9911  -39.7719 C.2       3 UNK         0.5005 
     28 O          19.4267  -27.0812  -38.9499 O.2       3 UNK        -0.5279 
     29 N          20.4350  -28.9961  -39.6531 N.am      4 UNK        -0.4463 
     30 CA         21.4244  -29.2377  -38.5892 C.3       4 UNK         0.0283 
     31 CB         20.7703  -29.3105  -37.1952 C.3       4 UNK        -0.1875 
     32 C          22.6231  -28.2705  -38.5955 C.2       4 UNK         0.4949 
     33 O          23.7139  -28.6742  -38.1921 O.2       4 UNK        -0.5039 
     34 N          22.4229  -27.0296  -39.0547 N.am      5 UNK        -0.4663 
     35 CA         23.4704  -26.0206  -39.2079 C.3       5 UNK         0.0242 
     36 CB         22.8295  -24.6254  -39.2887 C.3       5 UNK        -0.1982 
     37 C          24.3534  -26.2890  -40.4361 C.2       5 UNK         0.5017 
     38 O          25.5761  -26.1822  -40.3349 O.2       5 UNK        -0.5012 
     39 N          23.7199  -26.6204  -41.5700 N.am      6 UNK        -0.4439 
     40 CA         24.3835  -26.8666  -42.8507 C.3       6 UNK         0.0297 
     41 CB         23.3458  -26.8226  -43.9831 C.3       6 UNK        -0.2006 
     42 C          25.1581  -28.1918  -42.8913 C.2       6 UNK         0.4892 
     43 O          26.2694  -28.2193  -43.4219 O.2       6 UNK        -0.5089 
     44 N          24.5601  -29.2600  -42.3498 N.am      7 UNK        -0.4243 
     45 CA         25.0877  -30.6221  -42.3603 C.3       7 UNK         0.0196 
     46 CB         25.0782  -31.1941  -43.7950 C.3       7 UNK        -0.2007 
     47 C          24.2681  -31.5004  -41.4071 C.2       7 UNK         0.5020 
     48 O          23.2139  -31.0779  -40.9225 O.2       7 UNK        -0.5147 
     49 N          24.7633  -32.7263  -41.1860 N.am      8 UNK        -0.4734 
     50 CA         24.2287  -33.7436  -40.2692 C.3       8 UNK         0.0238 
     51 CB         25.1867  -34.9470  -40.2520 C.3       8 UNK        -0.1912 
     52 C          22.7857  -34.2110  -40.5436 C.2       8 UNK         0.5038 
     53 O          22.1883  -34.8331  -39.6642 O.2       8 UNK        -0.5046 
     54 N          22.2421  -33.8916  -41.7254 N.am      9 UNK        -0.4200 
     55 CA         20.8103  -33.9900  -42.0504 C.3       9 UNK         0.0839 
     56 C          19.8820  -33.0969  -41.1752 C.2       9 UNK         0.5513 
     57 N          20.3899  -32.0910  -40.4716 N.am      9 UNK        -0.7519 
     58 O          18.6790  -33.3353  -41.1194 O.2       9 UNK        -0.4960 
     59 C59        20.5183  -33.8241  -43.5732 C.3       10 UNK        -0.0876 
     60 S60        21.6277  -32.7002  -44.5004 S.3       10 UNK        -0.2414 
     61 C61        21.0750  -31.0350  -44.0156 C.3       10 UNK         0.0169 
     62 H62        20.4986  -23.7523  -49.0410 H         1 UNK         0.0903 
     63 H63        21.6210  -23.0613  -47.8668 H         1 UNK         0.0903 
     64 H64        22.1354  -24.3969  -48.9007 H         1 UNK         0.0903 
     65 H65        18.9752  -25.0611  -48.0602 H         1 UNK         0.3096 
     66 H66        19.7019  -27.1421  -46.1647 H         1 UNK         0.1121 
     67 H67        17.1332  -27.6070  -46.3731 H         1 UNK         0.0849 
     68 H68        17.1212  -26.3937  -47.6126 H         1 UNK         0.0849 
     69 H69        16.6391  -29.9217  -47.8154 H         1 UNK         0.0865 
     70 H70        18.1160  -30.7298  -48.2616 H         1 UNK         0.0865 
     71 H71        20.1439  -30.5406  -46.5427 H         1 UNK         0.1346 
     72 H72        18.8464  -30.8349  -42.4644 H         1 UNK         0.1412 
     73 H73        16.0391  -29.8110  -45.5191 H         1 UNK         0.1426 
     74 H74        16.3980  -30.8918  -42.0192 H         1 UNK         0.0716 
     75 H75        15.2762  -30.4415  -43.2732 H         1 UNK         0.0716 
     76 H76        17.3164  -29.5322  -40.3573 H         1 UNK         0.0695 
     77 H77        16.8067  -27.9144  -39.9657 H         1 UNK         0.0695 
     78 H78        19.1642  -28.6588  -41.7671 H         1 UNK         0.0983 
     79 H79        17.7749  -26.3299  -41.9836 H         1 UNK         0.3095 
     80 H80        18.5431  -24.3499  -42.7545 H         1 UNK         0.0454 
     81 H81        21.5932  -24.0133  -42.9385 H         1 UNK         0.0851 
     82 H82        20.5552  -23.3349  -41.6925 H         1 UNK         0.0851 
     83 H83        20.3931  -22.7935  -43.3546 H         1 UNK         0.0851 
     84 H84        20.5152  -25.2201  -44.8021 H         1 UNK         0.2976 
     85 H85        20.5054  -29.6436  -40.4257 H         1 UNK         0.3116 
     86 H86        21.8374  -30.2258  -38.7949 H         1 UNK         0.0646 
     87 H87        20.3820  -28.3444  -36.8722 H         1 UNK         0.0847 
     88 H88        21.4953  -29.6299  -36.4456 H         1 UNK         0.0847 
     89 H89        19.9495  -30.0271  -37.1772 H         1 UNK         0.0847 
     90 H90        21.4822  -26.7735  -39.3325 H         1 UNK         0.3040 
     91 H91        24.1122  -26.0486  -38.3241 H         1 UNK         0.1015 
     92 H92        22.1556  -24.5376  -40.1411 H         1 UNK         0.0786 
     93 H93        23.5913  -23.8516  -39.3935 H         1 UNK         0.0786 
     94 H94        22.2595  -24.3991  -38.3875 H         1 UNK         0.0786 
     95 H95        22.7008  -26.6355  -41.5734 H         1 UNK         0.3172 
     96 H96        25.0979  -26.0581  -43.0203 H         1 UNK         0.0595 
     97 H97        22.5750  -27.5848  -43.8615 H         1 UNK         0.0839 
     98 H98        23.8152  -26.9850  -44.9543 H         1 UNK         0.0839 
     99 H99        22.8512  -25.8529  -44.0248 H         1 UNK         0.0839 
    100 H100       23.6719  -29.1582  -41.8750 H         1 UNK         0.2998 
    101 H101       26.1130  -30.5975  -41.9853 H         1 UNK         0.0822 
    102 H102       25.7810  -30.6664  -44.4395 H         1 UNK         0.0787 
    103 H103       25.3640  -32.2461  -43.8182 H         1 UNK         0.0787 
    104 H104       24.0930  -31.1126  -44.2514 H         1 UNK         0.0787 
    105 H105       25.6237  -32.9743  -41.6540 H         1 UNK         0.3055 
    106 H106       24.2201  -33.3000  -39.2711 H         1 UNK         0.1106 
    107 H107       24.8456  -35.7110  -39.5517 H         1 UNK         0.0828 
    108 H108       25.2616  -35.4164  -41.2337 H         1 UNK         0.0828 
    109 H109       26.1895  -34.6541  -39.9403 H         1 UNK         0.0828 
    110 H110       22.8033  -33.3783  -42.3887 H         1 UNK         0.2931 
    111 H111       20.5202  -35.0110  -41.7939 H         1 UNK         0.0412 
    112 H112       19.7847  -31.5998  -39.8349 H         1 UNK         0.3472 
    113 H113       21.3831  -31.8892  -40.5112 H         1 UNK         0.3472 
    114 H114       20.6265  -34.8014  -44.0456 H         1 UNK         0.0970 
    115 H115       19.4802  -33.5440  -43.7634 H         1 UNK         0.0970 
    116 H116       21.1865  -30.9190  -42.9374 H         1 UNK         0.0612 
    117 H117       21.7471  -30.3022  -44.4641 H         1 UNK         0.0612 
@<TRIPOS>BOND
     1    1    2 1    
     2    1   62 1    
     3    1   63 1    
     4    1   64 1    
     5    2    3 2    
     6    2    4 am   BACKBONE|DICT|INTERRES
     7    4    5 1    
     8    4   65 1    
     9    5    6 1    
    10    5   25 1    
    11    5   66 1    
    12    6    7 1    
    13    6   67 1    
    14    6   68 1    
    15    7    8 1    
    16    8    9 1    
    17    8   69 1    
    18    8   70 1    
    19    9   10 ar   
    20    9   14 ar   
    21   10   11 ar   
    22   10   71 1    
    23   11   12 ar   
    24   11   61 1    
    25   12   13 ar   
    26   12   72 1    
    27   13   14 ar   
    28   13   15 1    
    29   14   73 1    
    30   15   16 1    
    31   15   74 1    
    32   15   75 1    
    33   16   17 1    
    34   17   18 1    
    35   17   76 1    
    36   17   77 1    
    37   18   19 1    
    38   18   27 1    
    39   18   78 1    
    40   19   20 am   BACKBONE|DICT|INTERRES
    41   19   79 1    
    42   20   21 2    
    43   20   22 1    
    44   22   23 1    
    45   22   24 1    
    46   22   80 1    
    47   23   81 1    
    48   23   82 1    
    49   23   83 1    
    50   24   25 am   BACKBONE|DICT|INTERRES
    51   24   84 1    
    52   25   26 2    
    53   27   28 2    
    54   27   29 am   BACKBONE|DICT|INTERRES
    55   29   30 1    
    56   29   85 1    
    57   30   31 1    
    58   30   32 1    
    59   30   86 1    
    60   31   87 1    
    61   31   88 1    
    62   31   89 1    
    63   32   33 2    
    64   32   34 am   BACKBONE|DICT|INTERRES
    65   34   35 1    
    66   34   90 1    
    67   35   36 1    
    68   35   37 1    
    69   35   91 1    
    70   36   92 1    
    71   36   93 1    
    72   36   94 1    
    73   37   38 2    
    74   37   39 am   BACKBONE|DICT|INTERRES
    75   39   40 1    
    76   39   95 1    
    77   40   41 1    
    78   40   42 1    
    79   40   96 1    
    80   41   97 1    
    81   41   98 1    
    82   41   99 1    
    83   42   43 2    
    84   42   44 am   BACKBONE|DICT|INTERRES
    85   44   45 1    
    86   44  100 1    
    87   45   46 1    
    88   45   47 1    
    89   45  101 1    
    90   46  102 1    
    91   46  103 1    
    92   46  104 1    
    93   47   48 2    
    94   47   49 am   BACKBONE|DICT|INTERRES
    95   49   50 1    
    96   49  105 1    
    97   50   51 1    
    98   50   52 1    
    99   50  106 1    
   100   51  107 1    
   101   51  108 1    
   102   51  109 1    
   103   52   53 2    
   104   52   54 am   BACKBONE|DICT|INTERRES
   105   54   55 1    
   106   54  110 1    
   107   55   56 1    
   108   55   59 1    
   109   55  111 1    
   110   56   57 am   BACKBONE|DICT|INTERRES
   111   56   58 2    
   112   57  112 1    
   113   57  113 1    
   114   59   60 1    
   115   59  114 1    
   116   59  115 1    
   117   60   61 1    
   118   61  116 1    
   119   61  117 1    
@<TRIPOS>SUBSTRUCTURE
     1 UNK         1 GROUP             0       ****    0 ROOT    
