@<TRIPOS>MOLECULE
3R8
117   119    1
SMALL
USER_CHARGES


@<TRIPOS>ATOM
      1 CA         16.8897  -22.8322  -41.0826 C.3       0 UNK        -0.2013 
      2 C          17.0635  -23.3953  -42.4849 C.2       0 UNK         0.4866 
      3 O          17.8523  -22.8635  -43.2660 O.2       0 UNK        -0.5176 
      4 N          16.3353  -24.4709  -42.8106 N.am      1 UNK        -0.4884 
      5 CA         16.3813  -25.1557  -44.1103 C.3       1 UNK         0.0853 
      6 C6         15.0774  -25.9499  -44.3861 C.3       10 UNK        -0.0849 
      7 S7         14.6605  -27.1815  -43.0984 S.3       10 UNK        -0.2776 
      8 C8         14.5062  -28.7223  -44.0632 C.3       10 UNK         0.0316 
      9 C9         15.8519  -29.3692  -44.3693 C.ar      10 UNK        -0.0863 
     10 C10        16.6037  -29.9362  -43.3367 C.ar      10 UNK        -0.1009 
     11 C11        17.8191  -30.5739  -43.6040 C.ar      10 UNK        -0.0712 
     12 C12        18.2765  -30.6549  -44.9236 C.ar      10 UNK        -0.0894 
     13 C13        17.5318  -30.0975  -45.9679 C.ar      10 UNK        -0.0745 
     14 C14        16.3246  -29.4490  -45.6832 C.ar      10 UNK        -0.0972 
     15 C15        18.0004  -30.2340  -47.4105 C.3       10 UNK         0.0209 
     16 S16        18.9815  -28.8030  -47.9645 S.3       10 UNK        -0.2568 
     17 C17        20.6591  -29.2170  -47.3759 C.3       10 UNK        -0.0983 
     18 CA         21.2141  -28.1778  -46.3716 C.3       3 UNK         0.0876 
     19 N          20.3742  -28.0799  -45.1723 N.am      3 UNK        -0.4424 
     20 C          20.5207  -27.1933  -44.1798 C.2       2 UNK         0.4918 
     21 O          21.4358  -26.3712  -44.1165 O.2       2 UNK        -0.4875 
     22 CA         19.4710  -27.2644  -43.0571 C.3       2 UNK         0.0481 
     23 CB         20.1211  -27.0677  -41.6764 C.3       2 UNK        -0.1831 
     24 N          18.3476  -26.3323  -43.1981 N.am      2 UNK        -0.4498 
     25 C          17.6289  -26.0453  -44.2976 C.2       1 UNK         0.5027 
     26 O          17.8821  -26.4575  -45.4282 O.2       1 UNK        -0.4969 
     27 C          22.6942  -28.4807  -46.0560 C.2       3 UNK         0.5005 
     28 O          23.5758  -28.0176  -46.7810 O.2       3 UNK        -0.5279 
     29 N          22.9373  -29.2340  -44.9741 N.am      4 UNK        -0.4463 
     30 CA         24.2687  -29.5825  -44.4700 C.3       4 UNK         0.0283 
     31 CB         24.2373  -31.0304  -43.9535 C.3       4 UNK        -0.1875 
     32 C          24.7712  -28.6096  -43.3829 C.2       4 UNK         0.4949 
     33 O          25.7910  -28.8959  -42.7540 O.2       4 UNK        -0.5039 
     34 N          24.0565  -27.4936  -43.1648 N.am      5 UNK        -0.4663 
     35 CA         24.3402  -26.4344  -42.1911 C.3       5 UNK         0.0242 
     36 CB         25.5761  -25.6167  -42.6334 C.3       5 UNK        -0.1982 
     37 C          24.4158  -26.9812  -40.7523 C.2       5 UNK         0.5017 
     38 O          23.4586  -27.6145  -40.3036 O.2       5 UNK        -0.5012 
     39 N          25.5435  -26.7493  -40.0654 N.am      6 UNK        -0.4439 
     40 CA         25.8063  -27.1293  -38.6725 C.3       6 UNK         0.0297 
     41 CB         27.1741  -26.5679  -38.2507 C.3       6 UNK        -0.2006 
     42 C          25.7334  -28.6398  -38.3756 C.2       6 UNK         0.4892 
     43 O          25.5475  -29.0060  -37.2146 O.2       6 UNK        -0.5089 
     44 N          25.8610  -29.4873  -39.4077 N.am      7 UNK        -0.4243 
     45 CA         25.6733  -30.9376  -39.3065 C.3       7 UNK         0.0196 
     46 CB         26.3035  -31.6163  -40.5320 C.3       7 UNK        -0.2007 
     47 C          24.1963  -31.3523  -39.1566 C.2       7 UNK         0.5020 
     48 O          23.9378  -32.4919  -38.7668 O.2       7 UNK        -0.5147 
     49 N          23.2586  -30.4447  -39.4829 N.am      8 UNK        -0.4734 
     50 CA         21.7995  -30.5795  -39.3496 C.3       8 UNK         0.0238 
     51 CB         21.4000  -30.5353  -37.8598 C.3       8 UNK        -0.1912 
     52 C          21.2074  -31.7995  -40.0857 C.2       8 UNK         0.5038 
     53 O          20.2119  -32.3604  -39.6273 O.2       8 UNK        -0.5046 
     54 N          21.8545  -32.1800  -41.1980 N.am      9 UNK        -0.4200 
     55 CA         21.6067  -33.3618  -42.0450 C.3       9 UNK         0.0839 
     56 C          21.5640  -34.7368  -41.3088 C.2       9 UNK         0.5513 
     57 N          22.1891  -34.8707  -40.1440 N.am      9 UNK        -0.7519 
     58 O          21.0055  -35.7066  -41.8153 O.2       9 UNK        -0.4960 
     59 C59        20.5072  -33.1447  -43.1295 C.3       10 UNK        -0.0876 
     60 S60        18.7986  -32.9462  -42.5139 S.3       10 UNK        -0.2414 
     61 C61        18.6466  -31.1327  -42.4547 C.3       10 UNK         0.0169 
     62 H62        16.5492  -21.7983  -41.1334 H         1 UNK         0.0903 
     63 H63        16.1628  -23.3998  -40.5017 H         1 UNK         0.0903 
     64 H64        17.8399  -22.8520  -40.5495 H         1 UNK         0.0903 
     65 H65        15.6971  -24.8733  -42.1369 H         1 UNK         0.3096 
     66 H66        16.4542  -24.3870  -44.8836 H         1 UNK         0.1121 
     67 H67        15.1260  -26.4343  -45.3635 H         1 UNK         0.0849 
     68 H68        14.2412  -25.2525  -44.4548 H         1 UNK         0.0849 
     69 H69        13.9050  -29.4290  -43.4893 H         1 UNK         0.0865 
     70 H70        13.9439  -28.5291  -44.9781 H         1 UNK         0.0865 
     71 H71        16.2397  -29.8728  -42.3201 H         1 UNK         0.1346 
     72 H72        19.2058  -31.1624  -45.1394 H         1 UNK         0.1412 
     73 H73        15.7461  -29.0207  -46.4905 H         1 UNK         0.1426 
     74 H74        17.1315  -30.3261  -48.0639 H         1 UNK         0.0716 
     75 H75        18.5699  -31.1547  -47.5465 H         1 UNK         0.0716 
     76 H76        21.3006  -29.2718  -48.2579 H         1 UNK         0.0695 
     77 H77        20.6656  -30.2167  -46.9384 H         1 UNK         0.0695 
     78 H78        21.1925  -27.1968  -46.8516 H         1 UNK         0.0983 
     79 H79        19.5286  -28.6346  -45.1892 H         1 UNK         0.3095 
     80 H80        19.0442  -28.2644  -43.0672 H         1 UNK         0.0454 
     81 H81        20.4957  -26.0514  -41.5473 H         1 UNK         0.0851 
     82 H82        20.9672  -27.7428  -41.5420 H         1 UNK         0.0851 
     83 H83        19.4167  -27.2716  -40.8700 H         1 UNK         0.0851 
     84 H84        18.0280  -25.9031  -42.3427 H         1 UNK         0.2976 
     85 H85        22.1477  -29.5568  -44.4348 H         1 UNK         0.3116 
     86 H86        24.9891  -29.5407  -45.2896 H         1 UNK         0.0646 
     87 H87        23.8157  -31.7111  -44.6933 H         1 UNK         0.0847 
     88 H88        23.6523  -31.1168  -43.0402 H         1 UNK         0.0847 
     89 H89        25.2449  -31.3853  -43.7349 H         1 UNK         0.0847 
     90 H90        23.2180  -27.3442  -43.7149 H         1 UNK         0.3040 
     91 H91        23.4786  -25.7646  -42.2079 H         1 UNK         0.1015 
     92 H92        26.4869  -26.2167  -42.6493 H         1 UNK         0.0786 
     93 H93        25.7453  -24.7627  -41.9760 H         1 UNK         0.0786 
     94 H94        25.4345  -25.2156  -43.6372 H         1 UNK         0.0786 
     95 H95        26.2810  -26.2477  -40.5390 H         1 UNK         0.3172 
     96 H96        25.0395  -26.6502  -38.0604 H         1 UNK         0.0595 
     97 H97        27.9841  -26.9855  -38.8502 H         1 UNK         0.0839 
     98 H98        27.3884  -26.8025  -37.2069 H         1 UNK         0.0839 
     99 H99        27.2072  -25.4825  -38.3475 H         1 UNK         0.0839 
    100 H100       26.0085  -29.1072  -40.3346 H         1 UNK         0.2998 
    101 H101       26.1988  -31.2915  -38.4168 H         1 UNK         0.0822 
    102 H102       27.3668  -31.3884  -40.6093 H         1 UNK         0.0787 
    103 H103       26.2084  -32.7015  -40.4724 H         1 UNK         0.0787 
    104 H104       25.8252  -31.2969  -41.4563 H         1 UNK         0.0787 
    105 H105       23.5699  -29.5274  -39.7926 H         1 UNK         0.3055 
    106 H106       21.3665  -29.7013  -39.8313 H         1 UNK         0.1106 
    107 H107       21.7543  -31.4154  -37.3220 H         1 UNK         0.0828 
    108 H108       20.3163  -30.4957  -37.7429 H         1 UNK         0.0828 
    109 H109       21.8092  -29.6537  -37.3664 H         1 UNK         0.0828 
    110 H110       22.6864  -31.6587  -41.4251 H         1 UNK         0.2931 
    111 H111       22.5330  -33.4449  -42.6148 H         1 UNK         0.0412 
    112 H112       22.1746  -35.7629  -39.6757 H         1 UNK         0.3472 
    113 H113       22.6644  -34.0845  -39.7193 H         1 UNK         0.3472 
    114 H114       20.5066  -33.9865  -43.8240 H         1 UNK         0.0970 
    115 H115       20.7718  -32.2828  -43.7418 H         1 UNK         0.0970 
    116 H116       19.6313  -30.6648  -42.4582 H         1 UNK         0.0612 
    117 H117       18.1967  -30.8670  -41.4969 H         1 UNK         0.0612 
@<TRIPOS>BOND
     1    1    2 1    
     2    1   62 1    
     3    1   63 1    
     4    1   64 1    
     5    2    3 2    
     6    2    4 am   BACKBONE|DICT|INTERRES
     7    4    5 1    
     8    4   65 1    
     9    5    6 1    
    10    5   25 1    
    11    5   66 1    
    12    6    7 1    
    13    6   67 1    
    14    6   68 1    
    15    7    8 1    
    16    8    9 1    
    17    8   69 1    
    18    8   70 1    
    19    9   10 ar   
    20    9   14 ar   
    21   10   11 ar   
    22   10   71 1    
    23   11   12 ar   
    24   11   61 1    
    25   12   13 ar   
    26   12   72 1    
    27   13   14 ar   
    28   13   15 1    
    29   14   73 1    
    30   15   16 1    
    31   15   74 1    
    32   15   75 1    
    33   16   17 1    
    34   17   18 1    
    35   17   76 1    
    36   17   77 1    
    37   18   19 1    
    38   18   27 1    
    39   18   78 1    
    40   19   20 am   BACKBONE|DICT|INTERRES
    41   19   79 1    
    42   20   21 2    
    43   20   22 1    
    44   22   23 1    
    45   22   24 1    
    46   22   80 1    
    47   23   81 1    
    48   23   82 1    
    49   23   83 1    
    50   24   25 am   BACKBONE|DICT|INTERRES
    51   24   84 1    
    52   25   26 2    
    53   27   28 2    
    54   27   29 am   BACKBONE|DICT|INTERRES
    55   29   30 1    
    56   29   85 1    
    57   30   31 1    
    58   30   32 1    
    59   30   86 1    
    60   31   87 1    
    61   31   88 1    
    62   31   89 1    
    63   32   33 2    
    64   32   34 am   BACKBONE|DICT|INTERRES
    65   34   35 1    
    66   34   90 1    
    67   35   36 1    
    68   35   37 1    
    69   35   91 1    
    70   36   92 1    
    71   36   93 1    
    72   36   94 1    
    73   37   38 2    
    74   37   39 am   BACKBONE|DICT|INTERRES
    75   39   40 1    
    76   39   95 1    
    77   40   41 1    
    78   40   42 1    
    79   40   96 1    
    80   41   97 1    
    81   41   98 1    
    82   41   99 1    
    83   42   43 2    
    84   42   44 am   BACKBONE|DICT|INTERRES
    85   44   45 1    
    86   44  100 1    
    87   45   46 1    
    88   45   47 1    
    89   45  101 1    
    90   46  102 1    
    91   46  103 1    
    92   46  104 1    
    93   47   48 2    
    94   47   49 am   BACKBONE|DICT|INTERRES
    95   49   50 1    
    96   49  105 1    
    97   50   51 1    
    98   50   52 1    
    99   50  106 1    
   100   51  107 1    
   101   51  108 1    
   102   51  109 1    
   103   52   53 2    
   104   52   54 am   BACKBONE|DICT|INTERRES
   105   54   55 1    
   106   54  110 1    
   107   55   56 1    
   108   55   59 1    
   109   55  111 1    
   110   56   57 am   BACKBONE|DICT|INTERRES
   111   56   58 2    
   112   57  112 1    
   113   57  113 1    
   114   59   60 1    
   115   59  114 1    
   116   59  115 1    
   117   60   61 1    
   118   61  116 1    
   119   61  117 1    
@<TRIPOS>SUBSTRUCTURE
     1 UNK         1 GROUP             0       ****    0 ROOT    
