@<TRIPOS>MOLECULE
3R8
117   119    1
SMALL
USER_CHARGES


@<TRIPOS>ATOM
      1 CA         19.8164  -22.7643  -40.1894 C.3       0 UNK        -0.2013 
      2 C          19.3254  -23.3880  -41.4872 C.2       0 UNK         0.4866 
      3 O          18.6495  -22.7202  -42.2703 O.2       0 UNK        -0.5176 
      4 N          19.6505  -24.6665  -41.7151 N.am      1 UNK        -0.4884 
      5 CA         19.2971  -25.4247  -42.9193 C.3       1 UNK         0.0853 
      6 C6         19.5874  -26.9353  -42.7508 C.3       10 UNK        -0.0849 
      7 S7         18.7070  -27.6895  -41.3404 S.3       10 UNK        -0.2776 
      8 C8         17.2466  -28.4277  -42.1440 C.3       10 UNK         0.0316 
      9 C9         17.6264  -29.5299  -43.1232 C.ar      10 UNK        -0.0863 
     10 C10        18.0566  -30.7715  -42.6523 C.ar      10 UNK        -0.1009 
     11 C11        18.4223  -31.7792  -43.5475 C.ar      10 UNK        -0.0712 
     12 C12        18.3604  -31.5365  -44.9231 C.ar      10 UNK        -0.0894 
     13 C13        17.9356  -30.2969  -45.4149 C.ar      10 UNK        -0.0745 
     14 C14        17.5534  -29.3045  -44.5004 C.ar      10 UNK        -0.0972 
     15 C15        17.9137  -30.0859  -46.9321 C.3       10 UNK         0.0209 
     16 S16        17.5823  -28.3718  -47.4785 S.3       10 UNK        -0.2568 
     17 C17        18.8806  -28.0912  -48.7338 C.3       10 UNK        -0.0983 
     18 CA         20.1565  -27.3852  -48.1947 C.3       3 UNK         0.0876 
     19 N          19.8178  -26.2142  -47.3763 N.am      3 UNK        -0.4424 
     20 C          20.4915  -25.0584  -47.3448 C.2       2 UNK         0.4918 
     21 O          21.5175  -24.8428  -47.9890 O.2       2 UNK        -0.4875 
     22 CA         19.9159  -23.9556  -46.4388 C.3       2 UNK         0.0481 
     23 CB         18.8554  -23.1411  -47.1968 C.3       2 UNK        -0.1831 
     24 N          19.3344  -24.4809  -45.1976 N.am      2 UNK        -0.4498 
     25 C          20.0603  -24.8789  -44.1433 C.2       1 UNK         0.5027 
     26 O          21.2912  -24.8478  -44.1117 O.2       1 UNK        -0.4969 
     27 C          21.1110  -28.3690  -47.4798 C.2       3 UNK         0.5005 
     28 O          21.4634  -29.3941  -48.0666 O.2       3 UNK        -0.5279 
     29 N          21.5174  -28.0587  -46.2433 N.am      4 UNK        -0.4463 
     30 CA         22.4169  -28.8603  -45.4182 C.3       4 UNK         0.0283 
     31 CB         21.6316  -29.9978  -44.7252 C.3       4 UNK        -0.1875 
     32 C          23.1516  -27.9105  -44.4609 C.2       4 UNK         0.4949 
     33 O          23.6789  -26.8933  -44.9125 O.2       4 UNK        -0.5039 
     34 N          23.1584  -28.2371  -43.1671 N.am      5 UNK        -0.4663 
     35 CA         23.6082  -27.3949  -42.0655 C.3       5 UNK         0.0242 
     36 CB         25.1377  -27.4711  -41.9130 C.3       5 UNK        -0.1982 
     37 C          22.8674  -27.8614  -40.8060 C.2       5 UNK         0.5017 
     38 O          22.3924  -29.0014  -40.7746 O.2       5 UNK        -0.5012 
     39 N          22.7559  -26.9677  -39.8139 N.am      6 UNK        -0.4439 
     40 CA         21.9751  -27.1401  -38.5836 C.3       6 UNK         0.0297 
     41 CB         22.1334  -25.8880  -37.7037 C.3       6 UNK        -0.2006 
     42 C          22.3430  -28.4161  -37.8037 C.2       6 UNK         0.4892 
     43 O          23.4046  -28.4631  -37.1797 O.2       6 UNK        -0.5089 
     44 N          21.4590  -29.4218  -37.8887 N.am      7 UNK        -0.4243 
     45 CA         21.5580  -30.7621  -37.2943 C.3       7 UNK         0.0196 
     46 CB         21.5291  -30.6810  -35.7528 C.3       7 UNK        -0.2007 
     47 C          22.7393  -31.6096  -37.8150 C.2       7 UNK         0.5020 
     48 O          23.1095  -32.5904  -37.1676 O.2       7 UNK        -0.5147 
     49 N          23.3020  -31.2535  -38.9793 N.am      8 UNK        -0.4734 
     50 CA         24.4529  -31.9397  -39.5799 C.3       8 UNK         0.0238 
     51 CB         25.1180  -31.0073  -40.6018 C.3       8 UNK        -0.1912 
     52 C          24.1043  -33.2907  -40.2286 C.2       8 UNK         0.5038 
     53 O          25.0119  -34.0830  -40.4854 O.2       8 UNK        -0.5046 
     54 N          22.8121  -33.5270  -40.4854 N.am      9 UNK        -0.4200 
     55 CA         22.2741  -34.7604  -41.0804 C.3       9 UNK         0.0839 
     56 C          22.3381  -36.0112  -40.1547 C.2       9 UNK         0.5513 
     57 N          22.6063  -35.8728  -38.8610 N.am      9 UNK        -0.7519 
     58 O          22.1406  -37.1293  -40.6230 O.2       9 UNK        -0.4960 
     59 C59        20.8339  -34.5566  -41.6195 C.3       10 UNK        -0.0876 
     60 S60        20.6839  -33.1294  -42.7456 S.3       10 UNK        -0.2414 
     61 C61        18.8880  -33.1252  -43.0194 C.3       10 UNK         0.0169 
     62 H62        18.9721  -22.3960  -39.6073 H         1 UNK         0.0903 
     63 H63        20.3646  -23.4779  -39.5755 H         1 UNK         0.0903 
     64 H64        20.4756  -21.9234  -40.4035 H         1 UNK         0.0903 
     65 H65        20.1977  -25.1709  -41.0336 H         1 UNK         0.3096 
     66 H66        18.2253  -25.2994  -43.0888 H         1 UNK         0.1121 
     67 H67        20.6521  -27.0964  -42.5867 H         1 UNK         0.0849 
     68 H68        19.3535  -27.4756  -43.6675 H         1 UNK         0.0849 
     69 H69        16.6737  -27.6434  -42.6411 H         1 UNK         0.0865 
     70 H70        16.5914  -28.8396  -41.3751 H         1 UNK         0.0865 
     71 H71        18.1183  -30.9484  -41.5870 H         1 UNK         0.1346 
     72 H72        18.6559  -32.3147  -45.6138 H         1 UNK         0.1412 
     73 H73        17.2098  -28.3407  -44.8451 H         1 UNK         0.1426 
     74 H74        17.1540  -30.7364  -47.3671 H         1 UNK         0.0716 
     75 H75        18.8700  -30.4177  -47.3381 H         1 UNK         0.0716 
     76 H76        18.4352  -27.4577  -49.5023 H         1 UNK         0.0695 
     77 H77        19.1175  -29.0261  -49.2453 H         1 UNK         0.0695 
     78 H78        20.7142  -27.0401  -49.0684 H         1 UNK         0.0983 
     79 H79        18.9737  -26.3035  -46.8295 H         1 UNK         0.3095 
     80 H80        20.7328  -23.2782  -46.1798 H         1 UNK         0.0454 
     81 H81        17.9973  -23.7518  -47.4801 H         1 UNK         0.0851 
     82 H82        19.2703  -22.7189  -48.1132 H         1 UNK         0.0851 
     83 H83        18.4912  -22.3077  -46.5957 H         1 UNK         0.0851 
     84 H84        18.3258  -24.5038  -45.1411 H         1 UNK         0.2976 
     85 H85        21.2729  -27.1527  -45.8674 H         1 UNK         0.3116 
     86 H86        23.1827  -29.3068  -46.0556 H         1 UNK         0.0646 
     87 H87        21.1491  -30.6439  -45.4583 H         1 UNK         0.0847 
     88 H88        20.8509  -29.6166  -44.0651 H         1 UNK         0.0847 
     89 H89        22.2882  -30.6376  -44.1344 H         1 UNK         0.0847 
     90 H90        22.6761  -29.0736  -42.8581 H         1 UNK         0.3040 
     91 H91        23.3132  -26.3622  -42.2683 H         1 UNK         0.1015 
     92 H92        25.6376  -26.9974  -42.7580 H         1 UNK         0.0786 
     93 H93        25.4749  -26.9590  -41.0111 H         1 UNK         0.0786 
     94 H94        25.4901  -28.4997  -41.8614 H         1 UNK         0.0786 
     95 H95        23.2243  -26.0792  -39.9177 H         1 UNK         0.3172 
     96 H96        20.9249  -27.2056  -38.8767 H         1 UNK         0.0595 
     97 H97        23.1732  -25.7233  -37.4178 H         1 UNK         0.0839 
     98 H98        21.5557  -25.9836  -36.7832 H         1 UNK         0.0839 
     99 H99        21.7799  -24.9921  -38.2131 H         1 UNK         0.0839 
    100 H100       20.6513  -29.2759  -38.4797 H         1 UNK         0.2998 
    101 H101       20.6582  -31.2930  -37.6087 H         1 UNK         0.0822 
    102 H102       20.6777  -30.0979  -35.4016 H         1 UNK         0.0787 
    103 H103       21.4438  -31.6733  -35.3082 H         1 UNK         0.0787 
    104 H104       22.4359  -30.2249  -35.3544 H         1 UNK         0.0787 
    105 H105       22.9342  -30.4480  -39.4786 H         1 UNK         0.3055 
    106 H106       25.1787  -32.1457  -38.7896 H         1 UNK         0.1106 
    107 H107       26.0045  -31.4698  -41.0379 H         1 UNK         0.0828 
    108 H108       25.4376  -30.0790  -40.1288 H         1 UNK         0.0828 
    109 H109       24.4423  -30.7597  -41.4213 H         1 UNK         0.0828 
    110 H110       22.1410  -32.8092  -40.2583 H         1 UNK         0.2931 
    111 H111       22.9071  -34.9936  -41.9390 H         1 UNK         0.0412 
    112 H112       22.7752  -34.9597  -38.4661 H         1 UNK         0.3472 
    113 H113       22.6469  -36.6916  -38.2745 H         1 UNK         0.3472 
    114 H114       20.4982  -35.4469  -42.1552 H         1 UNK         0.0970 
    115 H115       20.1393  -34.4182  -40.7886 H         1 UNK         0.0970 
    116 H116       18.6266  -33.9221  -43.7171 H         1 UNK         0.0612 
    117 H117       18.3706  -33.3493  -42.0852 H         1 UNK         0.0612 
@<TRIPOS>BOND
     1    1    2 1    
     2    1   62 1    
     3    1   63 1    
     4    1   64 1    
     5    2    3 2    
     6    2    4 am   BACKBONE|DICT|INTERRES
     7    4    5 1    
     8    4   65 1    
     9    5    6 1    
    10    5   25 1    
    11    5   66 1    
    12    6    7 1    
    13    6   67 1    
    14    6   68 1    
    15    7    8 1    
    16    8    9 1    
    17    8   69 1    
    18    8   70 1    
    19    9   10 ar   
    20    9   14 ar   
    21   10   11 ar   
    22   10   71 1    
    23   11   12 ar   
    24   11   61 1    
    25   12   13 ar   
    26   12   72 1    
    27   13   14 ar   
    28   13   15 1    
    29   14   73 1    
    30   15   16 1    
    31   15   74 1    
    32   15   75 1    
    33   16   17 1    
    34   17   18 1    
    35   17   76 1    
    36   17   77 1    
    37   18   19 1    
    38   18   27 1    
    39   18   78 1    
    40   19   20 am   BACKBONE|DICT|INTERRES
    41   19   79 1    
    42   20   21 2    
    43   20   22 1    
    44   22   23 1    
    45   22   24 1    
    46   22   80 1    
    47   23   81 1    
    48   23   82 1    
    49   23   83 1    
    50   24   25 am   BACKBONE|DICT|INTERRES
    51   24   84 1    
    52   25   26 2    
    53   27   28 2    
    54   27   29 am   BACKBONE|DICT|INTERRES
    55   29   30 1    
    56   29   85 1    
    57   30   31 1    
    58   30   32 1    
    59   30   86 1    
    60   31   87 1    
    61   31   88 1    
    62   31   89 1    
    63   32   33 2    
    64   32   34 am   BACKBONE|DICT|INTERRES
    65   34   35 1    
    66   34   90 1    
    67   35   36 1    
    68   35   37 1    
    69   35   91 1    
    70   36   92 1    
    71   36   93 1    
    72   36   94 1    
    73   37   38 2    
    74   37   39 am   BACKBONE|DICT|INTERRES
    75   39   40 1    
    76   39   95 1    
    77   40   41 1    
    78   40   42 1    
    79   40   96 1    
    80   41   97 1    
    81   41   98 1    
    82   41   99 1    
    83   42   43 2    
    84   42   44 am   BACKBONE|DICT|INTERRES
    85   44   45 1    
    86   44  100 1    
    87   45   46 1    
    88   45   47 1    
    89   45  101 1    
    90   46  102 1    
    91   46  103 1    
    92   46  104 1    
    93   47   48 2    
    94   47   49 am   BACKBONE|DICT|INTERRES
    95   49   50 1    
    96   49  105 1    
    97   50   51 1    
    98   50   52 1    
    99   50  106 1    
   100   51  107 1    
   101   51  108 1    
   102   51  109 1    
   103   52   53 2    
   104   52   54 am   BACKBONE|DICT|INTERRES
   105   54   55 1    
   106   54  110 1    
   107   55   56 1    
   108   55   59 1    
   109   55  111 1    
   110   56   57 am   BACKBONE|DICT|INTERRES
   111   56   58 2    
   112   57  112 1    
   113   57  113 1    
   114   59   60 1    
   115   59  114 1    
   116   59  115 1    
   117   60   61 1    
   118   61  116 1    
   119   61  117 1    
@<TRIPOS>SUBSTRUCTURE
     1 UNK         1 GROUP             0       ****    0 ROOT    
