@<TRIPOS>MOLECULE
3R8
117   119    1
SMALL
USER_CHARGES


@<TRIPOS>ATOM
      1 CA         14.7740  -26.5812  -41.3883 C.3       0 UNK        -0.2013 
      2 C          16.0226  -26.8934  -42.1987 C.2       0 UNK         0.4866 
      3 O          15.9192  -27.4207  -43.3072 O.2       0 UNK        -0.5176 
      4 N          17.2049  -26.5635  -41.6633 N.am      1 UNK        -0.4884 
      5 CA         18.5182  -26.8040  -42.2758 C.3       1 UNK         0.0853 
      6 C6         19.6426  -26.8819  -41.2078 C.3       10 UNK        -0.0849 
      7 S7         19.3847  -28.2543  -40.0286 S.3       10 UNK        -0.2776 
      8 C8         20.4719  -29.5484  -40.7088 C.3       10 UNK         0.0316 
      9 C9         20.0031  -30.0154  -42.0792 C.ar      10 UNK        -0.0863 
     10 C10        18.9871  -30.9663  -42.1994 C.ar      10 UNK        -0.1009 
     11 C11        18.5622  -31.3893  -43.4622 C.ar      10 UNK        -0.0712 
     12 C12        19.1344  -30.8246  -44.6069 C.ar      10 UNK        -0.0894 
     13 C13        20.1378  -29.8557  -44.5063 C.ar      10 UNK        -0.0745 
     14 C14        20.5780  -29.4766  -43.2321 C.ar      10 UNK        -0.0972 
     15 C15        20.6788  -29.2281  -45.7943 C.3       10 UNK         0.0209 
     16 S16        22.0833  -28.0760  -45.5821 S.3       10 UNK        -0.2568 
     17 C17        21.9901  -27.0883  -47.1149 C.3       10 UNK        -0.0983 
     18 CA         21.4509  -25.6494  -46.8988 C.3       3 UNK         0.0876 
     19 N          20.1123  -25.6556  -46.3000 N.am      3 UNK        -0.4424 
     20 C          19.2501  -24.6320  -46.3336 C.2       2 UNK         0.4918 
     21 O          19.4523  -23.5915  -46.9599 O.2       2 UNK        -0.4875 
     22 CA         17.9489  -24.7750  -45.5211 C.3       2 UNK         0.0481 
     23 CB         16.7760  -25.1168  -46.4534 C.3       2 UNK        -0.1831 
     24 N          17.9830  -25.7524  -44.4251 N.am      2 UNK        -0.4498 
     25 C          18.8170  -25.7598  -43.3752 C.2       1 UNK         0.5027 
     26 O          19.7652  -24.9815  -43.2553 O.2       1 UNK        -0.4969 
     27 C          22.4604  -24.7624  -46.1288 C.2       3 UNK         0.5005 
     28 O          23.5115  -24.4452  -46.6885 O.2       3 UNK        -0.5279 
     29 N          22.1353  -24.3806  -44.8796 N.am      4 UNK        -0.4463 
     30 CA         22.9512  -23.5902  -43.9473 C.3       4 UNK         0.0283 
     31 CB         23.1549  -22.1516  -44.4683 C.3       4 UNK        -0.1875 
     32 C          24.2713  -24.2915  -43.5690 C.2       4 UNK         0.4949 
     33 O          25.3101  -23.6408  -43.4426 O.2       4 UNK        -0.5039 
     34 N          24.1999  -25.6142  -43.3959 N.am      5 UNK        -0.4663 
     35 CA         25.3013  -26.5080  -43.0555 C.3       5 UNK         0.0242 
     36 CB         26.0844  -26.8608  -44.3364 C.3       5 UNK        -0.1982 
     37 C          24.7200  -27.7614  -42.3851 C.2       5 UNK         0.5017 
     38 O          23.4965  -27.8876  -42.2946 O.2       5 UNK        -0.5012 
     39 N          25.6078  -28.6691  -41.9534 N.am      6 UNK        -0.4439 
     40 CA         25.3148  -29.9771  -41.3493 C.3       6 UNK         0.0297 
     41 CB         24.5839  -30.8858  -42.3675 C.3       6 UNK        -0.2006 
     42 C          24.5704  -29.8845  -39.9994 C.2       6 UNK         0.4892 
     43 O          24.4748  -28.8075  -39.4061 O.2       6 UNK        -0.5089 
     44 N          24.0813  -31.0336  -39.5242 N.am      7 UNK        -0.4243 
     45 CA         23.2671  -31.1928  -38.3259 C.3       7 UNK         0.0196 
     46 CB         24.1550  -31.2142  -37.0685 C.3       7 UNK        -0.2007 
     47 C          22.4895  -32.5036  -38.4689 C.2       7 UNK         0.5020 
     48 O          23.0013  -33.4469  -39.0787 O.2       7 UNK        -0.5147 
     49 N          21.2665  -32.5345  -37.9206 N.am      8 UNK        -0.4734 
     50 CA         20.3537  -33.6895  -37.8311 C.3       8 UNK         0.0238 
     51 CB         20.9175  -34.7234  -36.8328 C.3       8 UNK        -0.1912 
     52 C          19.9711  -34.3501  -39.1757 C.2       8 UNK         0.5038 
     53 O          19.4621  -35.4723  -39.1706 O.2       8 UNK        -0.5046 
     54 N          20.2203  -33.6568  -40.2953 N.am      9 UNK        -0.4200 
     55 CA         20.1023  -34.1676  -41.6700 C.3       9 UNK         0.0839 
     56 C          21.1443  -35.2742  -42.0245 C.2       9 UNK         0.5513 
     57 N          22.2673  -35.3639  -41.3188 N.am      9 UNK        -0.7519 
     58 O          20.9524  -36.0480  -42.9588 O.2       9 UNK        -0.4960 
     59 C59        18.6304  -34.5227  -42.0400 C.3       10 UNK        -0.0876 
     60 S60        18.1991  -34.1181  -43.7676 S.3       10 UNK        -0.2414 
     61 C61        17.4814  -32.4516  -43.5976 C.3       10 UNK         0.0169 
     62 H62        14.2163  -27.4967  -41.1929 H         1 UNK         0.0903 
     63 H63        15.0137  -26.1194  -40.4307 H         1 UNK         0.0903 
     64 H64        14.1283  -25.9001  -41.9419 H         1 UNK         0.0903 
     65 H65        17.2291  -26.1238  -40.7540 H         1 UNK         0.3096 
     66 H66        18.4751  -27.7701  -42.7817 H         1 UNK         0.1121 
     67 H67        20.6227  -26.9951  -41.6750 H         1 UNK         0.0849 
     68 H68        19.6931  -25.9505  -40.6409 H         1 UNK         0.0849 
     69 H69        21.4978  -29.1776  -40.7557 H         1 UNK         0.0865 
     70 H70        20.4855  -30.3924  -40.0192 H         1 UNK         0.0865 
     71 H71        18.5334  -31.3837  -41.3111 H         1 UNK         0.1346 
     72 H72        18.7907  -31.1392  -45.5831 H         1 UNK         0.1412 
     73 H73        21.3501  -28.7333  -43.1200 H         1 UNK         0.1426 
     74 H74        19.8565  -28.6999  -46.2787 H         1 UNK         0.0716 
     75 H75        20.9866  -30.0195  -46.4792 H         1 UNK         0.0716 
     76 H76        21.3647  -27.6086  -47.8419 H         1 UNK         0.0695 
     77 H77        22.9855  -27.0597  -47.5622 H         1 UNK         0.0695 
     78 H78        21.3583  -25.1946  -47.8878 H         1 UNK         0.0983 
     79 H79        19.8725  -26.4702  -45.7559 H         1 UNK         0.3095 
     80 H80        17.7495  -23.8010  -45.0701 H         1 UNK         0.0454 
     81 H81        16.8973  -26.1003  -46.9092 H         1 UNK         0.0851 
     82 H82        16.6927  -24.3901  -47.2628 H         1 UNK         0.0851 
     83 H83        15.8268  -25.1102  -45.9173 H         1 UNK         0.0851 
     84 H84        17.2118  -26.4141  -44.3868 H         1 UNK         0.2976 
     85 H85        21.2452  -24.6921  -44.4998 H         1 UNK         0.3116 
     86 H86        22.3714  -23.5238  -43.0254 H         1 UNK         0.0646 
     87 H87        23.7842  -22.1269  -45.3583 H         1 UNK         0.0847 
     88 H88        23.6370  -21.5285  -43.7143 H         1 UNK         0.0847 
     89 H89        22.2035  -21.6811  -44.7162 H         1 UNK         0.0847 
     90 H90        23.3020  -26.0797  -43.4570 H         1 UNK         0.3040 
     91 H91        25.9600  -26.0134  -42.3382 H         1 UNK         0.1015 
     92 H92        25.4535  -27.3834  -45.0572 H         1 UNK         0.0786 
     93 H93        26.9386  -27.5032  -44.1209 H         1 UNK         0.0786 
     94 H94        26.4730  -25.9665  -44.8238 H         1 UNK         0.0786 
     95 H95        26.5895  -28.4452  -42.0372 H         1 UNK         0.3172 
     96 H96        26.2838  -30.4297  -41.1338 H         1 UNK         0.0595 
     97 H97        23.5493  -30.5746  -42.5206 H         1 UNK         0.0839 
     98 H98        24.5669  -31.9262  -42.0419 H         1 UNK         0.0839 
     99 H99        25.0793  -30.8698  -43.3384 H         1 UNK         0.0839 
    100 H100       24.1991  -31.8893  -40.0531 H         1 UNK         0.2998 
    101 H101       22.5604  -30.3623  -38.2624 H         1 UNK         0.0822 
    102 H102       24.7006  -30.2779  -36.9497 H         1 UNK         0.0787 
    103 H103       23.5553  -31.3550  -36.1683 H         1 UNK         0.0787 
    104 H104       24.8846  -32.0242  -37.1059 H         1 UNK         0.0787 
    105 H105       20.9361  -31.6964  -37.4601 H         1 UNK         0.3055 
    106 H106       19.4181  -33.3087  -37.4178 H         1 UNK         0.1106 
    107 H107       20.1983  -35.5201  -36.6386 H         1 UNK         0.0828 
    108 H108       21.8274  -35.1921  -37.2096 H         1 UNK         0.0828 
    109 H109       21.1507  -34.2630  -35.8728 H         1 UNK         0.0828 
    110 H110       20.6709  -32.7606  -40.1989 H         1 UNK         0.2931 
    111 H111       20.4072  -33.3240  -42.2884 H         1 UNK         0.0412 
    112 H112       22.9410  -36.0751  -41.5545 H         1 UNK         0.3472 
    113 H113       22.4513  -34.7305  -40.5478 H         1 UNK         0.3472 
    114 H114       18.4310  -35.5812  -41.8631 H         1 UNK         0.0970 
    115 H115       17.9337  -33.9925  -41.3896 H         1 UNK         0.0970 
    116 H116       16.8740  -32.2433  -44.4795 H         1 UNK         0.0612 
    117 H117       16.7981  -32.4200  -42.7477 H         1 UNK         0.0612 
@<TRIPOS>BOND
     1    1    2 1    
     2    1   62 1    
     3    1   63 1    
     4    1   64 1    
     5    2    3 2    
     6    2    4 am   BACKBONE|DICT|INTERRES
     7    4    5 1    
     8    4   65 1    
     9    5    6 1    
    10    5   25 1    
    11    5   66 1    
    12    6    7 1    
    13    6   67 1    
    14    6   68 1    
    15    7    8 1    
    16    8    9 1    
    17    8   69 1    
    18    8   70 1    
    19    9   10 ar   
    20    9   14 ar   
    21   10   11 ar   
    22   10   71 1    
    23   11   12 ar   
    24   11   61 1    
    25   12   13 ar   
    26   12   72 1    
    27   13   14 ar   
    28   13   15 1    
    29   14   73 1    
    30   15   16 1    
    31   15   74 1    
    32   15   75 1    
    33   16   17 1    
    34   17   18 1    
    35   17   76 1    
    36   17   77 1    
    37   18   19 1    
    38   18   27 1    
    39   18   78 1    
    40   19   20 am   BACKBONE|DICT|INTERRES
    41   19   79 1    
    42   20   21 2    
    43   20   22 1    
    44   22   23 1    
    45   22   24 1    
    46   22   80 1    
    47   23   81 1    
    48   23   82 1    
    49   23   83 1    
    50   24   25 am   BACKBONE|DICT|INTERRES
    51   24   84 1    
    52   25   26 2    
    53   27   28 2    
    54   27   29 am   BACKBONE|DICT|INTERRES
    55   29   30 1    
    56   29   85 1    
    57   30   31 1    
    58   30   32 1    
    59   30   86 1    
    60   31   87 1    
    61   31   88 1    
    62   31   89 1    
    63   32   33 2    
    64   32   34 am   BACKBONE|DICT|INTERRES
    65   34   35 1    
    66   34   90 1    
    67   35   36 1    
    68   35   37 1    
    69   35   91 1    
    70   36   92 1    
    71   36   93 1    
    72   36   94 1    
    73   37   38 2    
    74   37   39 am   BACKBONE|DICT|INTERRES
    75   39   40 1    
    76   39   95 1    
    77   40   41 1    
    78   40   42 1    
    79   40   96 1    
    80   41   97 1    
    81   41   98 1    
    82   41   99 1    
    83   42   43 2    
    84   42   44 am   BACKBONE|DICT|INTERRES
    85   44   45 1    
    86   44  100 1    
    87   45   46 1    
    88   45   47 1    
    89   45  101 1    
    90   46  102 1    
    91   46  103 1    
    92   46  104 1    
    93   47   48 2    
    94   47   49 am   BACKBONE|DICT|INTERRES
    95   49   50 1    
    96   49  105 1    
    97   50   51 1    
    98   50   52 1    
    99   50  106 1    
   100   51  107 1    
   101   51  108 1    
   102   51  109 1    
   103   52   53 2    
   104   52   54 am   BACKBONE|DICT|INTERRES
   105   54   55 1    
   106   54  110 1    
   107   55   56 1    
   108   55   59 1    
   109   55  111 1    
   110   56   57 am   BACKBONE|DICT|INTERRES
   111   56   58 2    
   112   57  112 1    
   113   57  113 1    
   114   59   60 1    
   115   59  114 1    
   116   59  115 1    
   117   60   61 1    
   118   61  116 1    
   119   61  117 1    
@<TRIPOS>SUBSTRUCTURE
     1 UNK         1 GROUP             0       ****    0 ROOT    
