@<TRIPOS>MOLECULE
3R8
117   119    1
SMALL
USER_CHARGES


@<TRIPOS>ATOM
      1 CA         13.2971  -23.9179  -46.5907 C.3       0 UNK        -0.2013 
      2 C          14.6802  -24.5505  -46.5485 C.2       0 UNK         0.4866 
      3 O          15.4736  -24.3501  -47.4691 O.2       0 UNK        -0.5176 
      4 N          14.9721  -25.3204  -45.4931 N.am      1 UNK        -0.4884 
      5 CA         16.2672  -25.9680  -45.2631 C.3       1 UNK         0.0853 
      6 C6         16.1899  -27.0115  -44.1253 C.3       10 UNK        -0.0849 
      7 S7         15.1699  -28.4658  -44.5357 S.3       10 UNK        -0.2776 
      8 C8         14.9257  -29.2112  -42.8861 C.3       10 UNK         0.0316 
      9 C9         16.2401  -29.3858  -42.1354 C.ar      10 UNK        -0.0863 
     10 C10        17.0834  -30.4646  -42.4163 C.ar      10 UNK        -0.1009 
     11 C11        18.3140  -30.5905  -41.7627 C.ar      10 UNK        -0.0712 
     12 C12        18.6963  -29.6321  -40.8198 C.ar      10 UNK        -0.0894 
     13 C13        17.8696  -28.5395  -40.5462 C.ar      10 UNK        -0.0745 
     14 C14        16.6327  -28.4369  -41.1870 C.ar      10 UNK        -0.0972 
     15 C15        18.3123  -27.4447  -39.5886 C.3       10 UNK         0.0209 
     16 S16        18.8075  -25.9429  -40.4980 S.3       10 UNK        -0.2568 
     17 C17        20.5515  -26.2882  -40.9094 C.3       10 UNK        -0.0983 
     18 CA         20.7639  -26.9286  -42.3124 C.3       3 UNK         0.0876 
     19 N          20.1616  -26.1705  -43.4204 N.am      3 UNK        -0.4424 
     20 C          20.4932  -24.9366  -43.8336 C.2       2 UNK         0.4918 
     21 O          21.3467  -24.2339  -43.2921 O.2       2 UNK        -0.4875 
     22 CA         19.7813  -24.4035  -45.0932 C.3       2 UNK         0.0481 
     23 CB         20.7438  -24.4283  -46.2928 C.3       2 UNK        -0.1831 
     24 N          18.5760  -25.1677  -45.4344 N.am      2 UNK        -0.4498 
     25 C          17.3600  -24.9340  -44.9217 C.2       1 UNK         0.5027 
     26 O          17.1000  -23.9963  -44.1633 O.2       1 UNK        -0.4969 
     27 C          22.2498  -27.2754  -42.5772 C.2       3 UNK         0.5005 
     28 O          23.0324  -27.3972  -41.6330 O.2       3 UNK        -0.5279 
     29 N          22.6259  -27.4325  -43.8527 N.am      4 UNK        -0.4463 
     30 CA         23.9751  -27.7984  -44.2759 C.3       4 UNK         0.0283 
     31 CB         24.3746  -26.9294  -45.4798 C.3       4 UNK        -0.1875 
     32 C          23.9907  -29.2880  -44.6638 C.2       4 UNK         0.4949 
     33 O          23.0677  -29.7172  -45.3548 O.2       4 UNK        -0.5039 
     34 N          25.0119  -30.0768  -44.3015 N.am      5 UNK        -0.4663 
     35 CA         26.1434  -29.7522  -43.4324 C.3       5 UNK         0.0242 
     36 CB         27.3077  -30.6944  -43.7783 C.3       5 UNK        -0.1982 
     37 C          25.7688  -29.9229  -41.9506 C.2       5 UNK         0.5017 
     38 O          25.1490  -30.9312  -41.5999 O.2       5 UNK        -0.5012 
     39 N          26.2037  -28.9638  -41.1183 N.am      6 UNK        -0.4439 
     40 CA         26.2654  -28.9931  -39.6464 C.3       6 UNK         0.0297 
     41 CB         27.4583  -29.8714  -39.2116 C.3       6 UNK        -0.2006 
     42 C          24.9650  -29.3922  -38.9139 C.2       6 UNK         0.4892 
     43 O          25.0364  -29.9907  -37.8393 O.2       6 UNK        -0.5089 
     44 N          23.8059  -29.0910  -39.5166 N.am      7 UNK        -0.4243 
     45 CA         22.4506  -29.4953  -39.1167 C.3       7 UNK         0.0196 
     46 CB         22.0448  -28.8403  -37.7804 C.3       7 UNK        -0.2007 
     47 C          22.1946  -31.0181  -39.1272 C.2       7 UNK         0.5020 
     48 O          21.1298  -31.4484  -38.6833 O.2       7 UNK        -0.5147 
     49 N          23.1423  -31.8053  -39.6496 N.am      8 UNK        -0.4734 
     50 CA         23.0434  -33.2555  -39.8024 C.3       8 UNK         0.0238 
     51 CB         24.4184  -33.8840  -39.5228 C.3       8 UNK        -0.1912 
     52 C          22.5599  -33.6294  -41.2090 C.2       8 UNK         0.5038 
     53 O          21.8417  -34.6194  -41.3510 O.2       8 UNK        -0.5046 
     54 N          22.9566  -32.8312  -42.2111 N.am      9 UNK        -0.4200 
     55 CA         22.6192  -32.9949  -43.6353 C.3       9 UNK         0.0839 
     56 C          23.2464  -34.2554  -44.3056 C.2       9 UNK         0.5513 
     57 N          24.3018  -34.8386  -43.7493 N.am      9 UNK        -0.7519 
     58 O          22.7960  -34.6961  -45.3600 O.2       9 UNK        -0.4960 
     59 C59        21.0988  -32.8428  -43.9284 C.3       10 UNK        -0.0876 
     60 S60        20.4271  -31.2315  -43.3922 S.3       10 UNK        -0.2414 
     61 C61        19.2470  -31.7396  -42.1060 C.3       10 UNK         0.0169 
     62 H62        13.3823  -22.8319  -46.6172 H         1 UNK         0.0903 
     63 H63        12.7640  -24.2401  -47.4848 H         1 UNK         0.0903 
     64 H64        12.6972  -24.1898  -45.7222 H         1 UNK         0.0903 
     65 H65        14.2863  -25.4455  -44.7623 H         1 UNK         0.3096 
     66 H66        16.5523  -26.4785  -46.1861 H         1 UNK         0.1121 
     67 H67        17.1860  -27.3849  -43.8786 H         1 UNK         0.0849 
     68 H68        15.8036  -26.5472  -43.2157 H         1 UNK         0.0849 
     69 H69        14.2380  -28.5892  -42.3108 H         1 UNK         0.0865 
     70 H70        14.4348  -30.1788  -43.0005 H         1 UNK         0.0865 
     71 H71        16.7931  -31.1914  -43.1629 H         1 UNK         0.1346 
     72 H72        19.6497  -29.7248  -40.3227 H         1 UNK         0.1412 
     73 H73        15.9949  -27.5891  -40.9763 H         1 UNK         0.1426 
     74 H74        19.1242  -27.7855  -38.9446 H         1 UNK         0.0716 
     75 H75        17.4836  -27.1943  -38.9247 H         1 UNK         0.0716 
     76 H76        21.0981  -25.3465  -40.8407 H         1 UNK         0.0695 
     77 H77        20.9663  -26.9213  -40.1249 H         1 UNK         0.0695 
     78 H78        20.2529  -27.8913  -42.3093 H         1 UNK         0.0983 
     79 H79        19.4401  -26.6546  -43.9312 H         1 UNK         0.3095 
     80 H80        19.5087  -23.3634  -44.9025 H         1 UNK         0.0454 
     81 H81        21.0668  -25.4411  -46.5362 H         1 UNK         0.0851 
     82 H82        21.6409  -23.8428  -46.0860 H         1 UNK         0.0851 
     83 H83        20.2801  -24.0006  -47.1818 H         1 UNK         0.0851 
     84 H84        18.6981  -25.9394  -46.0756 H         1 UNK         0.2976 
     85 H85        21.9235  -27.4025  -44.5772 H         1 UNK         0.3116 
     86 H86        24.6727  -27.5859  -43.4680 H         1 UNK         0.0646 
     87 H87        23.7156  -27.0894  -46.3343 H         1 UNK         0.0847 
     88 H88        25.3904  -27.1582  -45.8046 H         1 UNK         0.0847 
     89 H89        24.3452  -25.8686  -45.2296 H         1 UNK         0.0847 
     90 H90        24.9729  -31.0413  -44.5938 H         1 UNK         0.3040 
     91 H91        26.4899  -28.7355  -43.6234 H         1 UNK         0.1015 
     92 H92        27.0466  -31.7411  -43.6137 H         1 UNK         0.0786 
     93 H93        28.1824  -30.4778  -43.1630 H         1 UNK         0.0786 
     94 H94        27.6115  -30.5850  -44.8197 H         1 UNK         0.0786 
     95 H95        26.6547  -28.1598  -41.5331 H         1 UNK         0.3172 
     96 H96        26.4773  -27.9700  -39.3327 H         1 UNK         0.0595 
     97 H97        27.2918  -30.9213  -39.4564 H         1 UNK         0.0839 
     98 H98        27.6263  -29.8094  -38.1355 H         1 UNK         0.0839 
     99 H99        28.3826  -29.5572  -39.6962 H         1 UNK         0.0839 
    100 H100       23.8396  -28.5557  -40.3825 H         1 UNK         0.2998 
    101 H101       21.7975  -29.0938  -39.8894 H         1 UNK         0.0822 
    102 H102       22.1827  -27.7596  -37.8117 H         1 UNK         0.0787 
    103 H103       20.9935  -29.0245  -37.5558 H         1 UNK         0.0787 
    104 H104       22.6266  -29.2301  -36.9449 H         1 UNK         0.0787 
    105 H105       23.9698  -31.3651  -40.0395 H         1 UNK         0.3055 
    106 H106       22.3276  -33.6599  -39.0830 H         1 UNK         0.1106 
    107 H107       24.3811  -34.9692  -39.6282 H         1 UNK         0.0828 
    108 H108       25.1820  -33.5133  -40.2082 H         1 UNK         0.0828 
    109 H109       24.7505  -33.6683  -38.5071 H         1 UNK         0.0828 
    110 H110       23.5904  -32.0687  -41.9957 H         1 UNK         0.2931 
    111 H111       23.1142  -32.1642  -44.1342 H         1 UNK         0.0412 
    112 H112       24.7095  -35.6473  -44.1920 H         1 UNK         0.3472 
    113 H113       24.6911  -34.4816  -42.8918 H         1 UNK         0.3472 
    114 H114       20.9127  -32.9150  -45.0013 H         1 UNK         0.0970 
    115 H115       20.5363  -33.6606  -43.4760 H         1 UNK         0.0970 
    116 H116       19.7920  -32.0680  -41.2197 H         1 UNK         0.0612 
    117 H117       18.6673  -32.5962  -42.4533 H         1 UNK         0.0612 
@<TRIPOS>BOND
     1    1    2 1    
     2    1   62 1    
     3    1   63 1    
     4    1   64 1    
     5    2    3 2    
     6    2    4 am   BACKBONE|DICT|INTERRES
     7    4    5 1    
     8    4   65 1    
     9    5    6 1    
    10    5   25 1    
    11    5   66 1    
    12    6    7 1    
    13    6   67 1    
    14    6   68 1    
    15    7    8 1    
    16    8    9 1    
    17    8   69 1    
    18    8   70 1    
    19    9   10 ar   
    20    9   14 ar   
    21   10   11 ar   
    22   10   71 1    
    23   11   12 ar   
    24   11   61 1    
    25   12   13 ar   
    26   12   72 1    
    27   13   14 ar   
    28   13   15 1    
    29   14   73 1    
    30   15   16 1    
    31   15   74 1    
    32   15   75 1    
    33   16   17 1    
    34   17   18 1    
    35   17   76 1    
    36   17   77 1    
    37   18   19 1    
    38   18   27 1    
    39   18   78 1    
    40   19   20 am   BACKBONE|DICT|INTERRES
    41   19   79 1    
    42   20   21 2    
    43   20   22 1    
    44   22   23 1    
    45   22   24 1    
    46   22   80 1    
    47   23   81 1    
    48   23   82 1    
    49   23   83 1    
    50   24   25 am   BACKBONE|DICT|INTERRES
    51   24   84 1    
    52   25   26 2    
    53   27   28 2    
    54   27   29 am   BACKBONE|DICT|INTERRES
    55   29   30 1    
    56   29   85 1    
    57   30   31 1    
    58   30   32 1    
    59   30   86 1    
    60   31   87 1    
    61   31   88 1    
    62   31   89 1    
    63   32   33 2    
    64   32   34 am   BACKBONE|DICT|INTERRES
    65   34   35 1    
    66   34   90 1    
    67   35   36 1    
    68   35   37 1    
    69   35   91 1    
    70   36   92 1    
    71   36   93 1    
    72   36   94 1    
    73   37   38 2    
    74   37   39 am   BACKBONE|DICT|INTERRES
    75   39   40 1    
    76   39   95 1    
    77   40   41 1    
    78   40   42 1    
    79   40   96 1    
    80   41   97 1    
    81   41   98 1    
    82   41   99 1    
    83   42   43 2    
    84   42   44 am   BACKBONE|DICT|INTERRES
    85   44   45 1    
    86   44  100 1    
    87   45   46 1    
    88   45   47 1    
    89   45  101 1    
    90   46  102 1    
    91   46  103 1    
    92   46  104 1    
    93   47   48 2    
    94   47   49 am   BACKBONE|DICT|INTERRES
    95   49   50 1    
    96   49  105 1    
    97   50   51 1    
    98   50   52 1    
    99   50  106 1    
   100   51  107 1    
   101   51  108 1    
   102   51  109 1    
   103   52   53 2    
   104   52   54 am   BACKBONE|DICT|INTERRES
   105   54   55 1    
   106   54  110 1    
   107   55   56 1    
   108   55   59 1    
   109   55  111 1    
   110   56   57 am   BACKBONE|DICT|INTERRES
   111   56   58 2    
   112   57  112 1    
   113   57  113 1    
   114   59   60 1    
   115   59  114 1    
   116   59  115 1    
   117   60   61 1    
   118   61  116 1    
   119   61  117 1    
@<TRIPOS>SUBSTRUCTURE
     1 UNK         1 GROUP             0       ****    0 ROOT    
