@<TRIPOS>MOLECULE
3R8
117   119    1
SMALL
USER_CHARGES


@<TRIPOS>ATOM
      1 CA         24.3821  -29.7589  -47.3627 C.3       0 UNK        -0.2013 
      2 C          23.0854  -29.0066  -47.1016 C.2       0 UNK         0.4866 
      3 O          22.8178  -28.0062  -47.7674 O.2       0 UNK        -0.5176 
      4 N          22.2929  -29.4812  -46.1326 N.am      1 UNK        -0.4884 
      5 CA         21.0462  -28.8938  -45.6362 C.3       1 UNK         0.0853 
      6 C6         19.9188  -28.7710  -46.7046 C.3       10 UNK        -0.0849 
      7 S7         19.3093  -30.4017  -47.2414 S.3       10 UNK        -0.2776 
      8 C8         17.5469  -30.3100  -46.7659 C.3       10 UNK         0.0316 
      9 C9         17.3211  -30.1484  -45.2640 C.ar      10 UNK        -0.0863 
     10 C10        17.9640  -30.9931  -44.3546 C.ar      10 UNK        -0.1009 
     11 C11        17.7295  -30.8750  -42.9829 C.ar      10 UNK        -0.0712 
     12 C12        16.8206  -29.9185  -42.5194 C.ar      10 UNK        -0.0894 
     13 C13        16.1600  -29.0690  -43.4153 C.ar      10 UNK        -0.0745 
     14 C14        16.4248  -29.1847  -44.7854 C.ar      10 UNK        -0.0972 
     15 C15        15.1045  -28.0792  -42.9220 C.3       10 UNK         0.0209 
     16 S16        15.6455  -27.0451  -41.5166 S.3       10 UNK        -0.2568 
     17 C17        16.8320  -25.9120  -42.3111 C.3       10 UNK        -0.0983 
     18 CA         18.2899  -26.4128  -42.1625 C.3       3 UNK         0.0876 
     19 N          19.1360  -26.0065  -43.2879 N.am      3 UNK        -0.4424 
     20 C          20.1399  -25.1213  -43.3922 C.2       2 UNK         0.4918 
     21 O          20.5124  -24.3587  -42.5007 O.2       2 UNK        -0.4875 
     22 CA         20.8539  -25.1196  -44.7639 C.3       2 UNK         0.0481 
     23 CB         22.2739  -24.5179  -44.7326 C.3       2 UNK        -0.1831 
     24 N          20.8646  -26.4453  -45.4018 N.am      2 UNK        -0.4498 
     25 C          21.3497  -27.5859  -44.8795 C.2       1 UNK         0.5027 
     26 O          21.9630  -27.6435  -43.8105 O.2       1 UNK        -0.4969 
     27 C          18.8930  -26.2283  -40.7550 C.2       3 UNK         0.5005 
     28 O          19.4212  -27.1915  -40.1997 O.2       3 UNK        -0.5279 
     29 N          18.8341  -25.0020  -40.2149 N.am      4 UNK        -0.4463 
     30 CA         19.3684  -24.6209  -38.9021 C.3       4 UNK         0.0283 
     31 CB         19.0176  -23.1510  -38.6220 C.3       4 UNK        -0.1875 
     32 C          20.8833  -24.8514  -38.7325 C.2       4 UNK         0.4949 
     33 O          21.3330  -25.0516  -37.6040 O.2       4 UNK        -0.5039 
     34 N          21.6398  -24.8409  -39.8399 N.am      5 UNK        -0.4663 
     35 CA         23.0656  -25.1837  -39.8675 C.3       5 UNK         0.0242 
     36 CB         23.6780  -24.6778  -41.1806 C.3       5 UNK        -0.1982 
     37 C          23.3311  -26.6935  -39.7106 C.2       5 UNK         0.5017 
     38 O          24.4367  -27.0627  -39.3139 O.2       5 UNK        -0.5012 
     39 N          22.3244  -27.5258  -40.0213 N.am      6 UNK        -0.4439 
     40 CA         22.2966  -28.9876  -39.9130 C.3       6 UNK         0.0297 
     41 CB         22.2574  -29.4074  -38.4284 C.3       6 UNK        -0.2006 
     42 C          23.4047  -29.7092  -40.7086 C.2       6 UNK         0.4892 
     43 O          23.9248  -30.7250  -40.2405 O.2       6 UNK        -0.5089 
     44 N          23.7586  -29.1852  -41.8917 N.am      7 UNK        -0.4243 
     45 CA         24.8231  -29.7291  -42.7360 C.3       7 UNK         0.0196 
     46 CB         25.2239  -28.6980  -43.8035 C.3       7 UNK        -0.2007 
     47 C          24.3926  -31.0635  -43.3634 C.2       7 UNK         0.5020 
     48 O          23.4675  -31.0850  -44.1754 O.2       7 UNK        -0.5147 
     49 N          25.0568  -32.1516  -42.9511 N.am      8 UNK        -0.4734 
     50 CA         24.8080  -33.5474  -43.3453 C.3       8 UNK         0.0238 
     51 CB         25.0564  -33.7471  -44.8567 C.3       8 UNK        -0.1912 
     52 C          23.4388  -34.1081  -42.8995 C.2       8 UNK         0.5038 
     53 O          23.0401  -35.1692  -43.3838 O.2       8 UNK        -0.5046 
     54 N          22.7529  -33.4150  -41.9812 N.am      9 UNK        -0.4200 
     55 CA         21.4906  -33.8524  -41.3699 C.3       9 UNK         0.0839 
     56 C          21.7048  -35.0229  -40.3727 C.2       9 UNK         0.5513 
     57 N          20.7273  -35.9089  -40.2409 N.am      9 UNK        -0.7519 
     58 O          22.7244  -35.1130  -39.6913 O.2       9 UNK        -0.4960 
     59 C59        20.7526  -32.6741  -40.6861 C.3       10 UNK        -0.0876 
     60 S60        20.2084  -31.4104  -41.8847 S.3       10 UNK        -0.2414 
     61 C61        18.4383  -31.8065  -42.0124 C.3       10 UNK         0.0169 
     62 H62        24.4279  -30.0779  -48.4036 H         1 UNK         0.0903 
     63 H63        25.2369  -29.1128  -47.1651 H         1 UNK         0.0903 
     64 H64        24.4735  -30.6445  -46.7337 H         1 UNK         0.0903 
     65 H65        22.6452  -30.2420  -45.5506 H         1 UNK         0.3096 
     66 H66        20.6873  -29.5793  -44.8653 H         1 UNK         0.1121 
     67 H67        20.2543  -28.2234  -47.5859 H         1 UNK         0.0849 
     68 H68        19.0714  -28.2100  -46.3074 H         1 UNK         0.0849 
     69 H69        17.0785  -29.4942  -47.3188 H         1 UNK         0.0865 
     70 H70        17.0499  -31.2239  -47.0938 H         1 UNK         0.0865 
     71 H71        18.6519  -31.7468  -44.7136 H         1 UNK         0.1346 
     72 H72        16.6165  -29.8413  -41.4601 H         1 UNK         0.1412 
     73 H73        15.9050  -28.5442  -45.4852 H         1 UNK         0.1426 
     74 H74        14.2278  -28.6478  -42.6093 H         1 UNK         0.0716 
     75 H75        14.7691  -27.4289  -43.7314 H         1 UNK         0.0716 
     76 H76        16.7030  -24.9091  -41.9021 H         1 UNK         0.0695 
     77 H77        16.5647  -25.8303  -43.3660 H         1 UNK         0.0695 
     78 H78        18.2583  -27.4956  -42.2912 H         1 UNK         0.0983 
     79 H79        18.9689  -26.5473  -44.1225 H         1 UNK         0.3095 
     80 H80        20.2467  -24.4768  -45.4025 H         1 UNK         0.0454 
     81 H81        22.6429  -24.3449  -45.7433 H         1 UNK         0.0851 
     82 H82        22.9861  -25.1759  -44.2383 H         1 UNK         0.0851 
     83 H83        22.2941  -23.5571  -44.2168 H         1 UNK         0.0851 
     84 H84        20.4219  -26.4936  -46.3090 H         1 UNK         0.2976 
     85 H85        18.4412  -24.2577  -40.7732 H         1 UNK         0.3116 
     86 H86        18.8644  -25.2398  -38.1569 H         1 UNK         0.0646 
     87 H87        19.4690  -22.4822  -39.3561 H         1 UNK         0.0847 
     88 H88        17.9398  -22.9886  -38.6348 H         1 UNK         0.0847 
     89 H89        19.3769  -22.8443  -37.6386 H         1 UNK         0.0847 
     90 H90        21.1940  -24.6473  -40.7342 H         1 UNK         0.3040 
     91 H91        23.5595  -24.6731  -39.0376 H         1 UNK         0.1015 
     92 H92        24.7577  -24.8328  -41.1948 H         1 UNK         0.0786 
     93 H93        23.4976  -23.6124  -41.3257 H         1 UNK         0.0786 
     94 H94        23.2613  -25.2118  -42.0327 H         1 UNK         0.0786 
     95 H95        21.4371  -27.1129  -40.2921 H         1 UNK         0.3172 
     96 H96        21.3519  -29.2905  -40.3618 H         1 UNK         0.0595 
     97 H97        23.1880  -29.1613  -37.9160 H         1 UNK         0.0839 
     98 H98        22.1034  -30.4817  -38.3247 H         1 UNK         0.0839 
     99 H99        21.4419  -28.9133  -37.9001 H         1 UNK         0.0839 
    100 H100       23.2182  -28.4180  -42.2765 H         1 UNK         0.2998 
    101 H101       25.6981  -29.9003  -42.1050 H         1 UNK         0.0822 
    102 H102       26.0238  -29.0836  -44.4368 H         1 UNK         0.0787 
    103 H103       25.5854  -27.7766  -43.3466 H         1 UNK         0.0787 
    104 H104       24.3900  -28.4400  -44.4537 H         1 UNK         0.0787 
    105 H105       25.7739  -32.0257  -42.2487 H         1 UNK         0.3055 
    106 H106       25.5502  -34.1444  -42.8129 H         1 UNK         0.1106 
    107 H107       24.2954  -33.2544  -45.4625 H         1 UNK         0.0828 
    108 H108       26.0289  -33.3562  -45.1555 H         1 UNK         0.0828 
    109 H109       25.0410  -34.8054  -45.1199 H         1 UNK         0.0828 
    110 H110       23.1583  -32.5649  -41.6148 H         1 UNK         0.2931 
    111 H111       20.8509  -34.2222  -42.1745 H         1 UNK         0.0412 
    112 H112       19.8842  -35.8423  -40.7903 H         1 UNK         0.3472 
    113 H113       20.8392  -36.6690  -39.5877 H         1 UNK         0.3472 
    114 H114       19.8832  -33.0306  -40.1302 H         1 UNK         0.0970 
    115 H115       21.4002  -32.1980  -39.9483 H         1 UNK         0.0970 
    116 H116       18.3223  -32.8380  -42.3483 H         1 UNK         0.0612 
    117 H117       17.9839  -31.7457  -41.0222 H         1 UNK         0.0612 
@<TRIPOS>BOND
     1    1    2 1    
     2    1   62 1    
     3    1   63 1    
     4    1   64 1    
     5    2    3 2    
     6    2    4 am   BACKBONE|DICT|INTERRES
     7    4    5 1    
     8    4   65 1    
     9    5    6 1    
    10    5   25 1    
    11    5   66 1    
    12    6    7 1    
    13    6   67 1    
    14    6   68 1    
    15    7    8 1    
    16    8    9 1    
    17    8   69 1    
    18    8   70 1    
    19    9   10 ar   
    20    9   14 ar   
    21   10   11 ar   
    22   10   71 1    
    23   11   12 ar   
    24   11   61 1    
    25   12   13 ar   
    26   12   72 1    
    27   13   14 ar   
    28   13   15 1    
    29   14   73 1    
    30   15   16 1    
    31   15   74 1    
    32   15   75 1    
    33   16   17 1    
    34   17   18 1    
    35   17   76 1    
    36   17   77 1    
    37   18   19 1    
    38   18   27 1    
    39   18   78 1    
    40   19   20 am   BACKBONE|DICT|INTERRES
    41   19   79 1    
    42   20   21 2    
    43   20   22 1    
    44   22   23 1    
    45   22   24 1    
    46   22   80 1    
    47   23   81 1    
    48   23   82 1    
    49   23   83 1    
    50   24   25 am   BACKBONE|DICT|INTERRES
    51   24   84 1    
    52   25   26 2    
    53   27   28 2    
    54   27   29 am   BACKBONE|DICT|INTERRES
    55   29   30 1    
    56   29   85 1    
    57   30   31 1    
    58   30   32 1    
    59   30   86 1    
    60   31   87 1    
    61   31   88 1    
    62   31   89 1    
    63   32   33 2    
    64   32   34 am   BACKBONE|DICT|INTERRES
    65   34   35 1    
    66   34   90 1    
    67   35   36 1    
    68   35   37 1    
    69   35   91 1    
    70   36   92 1    
    71   36   93 1    
    72   36   94 1    
    73   37   38 2    
    74   37   39 am   BACKBONE|DICT|INTERRES
    75   39   40 1    
    76   39   95 1    
    77   40   41 1    
    78   40   42 1    
    79   40   96 1    
    80   41   97 1    
    81   41   98 1    
    82   41   99 1    
    83   42   43 2    
    84   42   44 am   BACKBONE|DICT|INTERRES
    85   44   45 1    
    86   44  100 1    
    87   45   46 1    
    88   45   47 1    
    89   45  101 1    
    90   46  102 1    
    91   46  103 1    
    92   46  104 1    
    93   47   48 2    
    94   47   49 am   BACKBONE|DICT|INTERRES
    95   49   50 1    
    96   49  105 1    
    97   50   51 1    
    98   50   52 1    
    99   50  106 1    
   100   51  107 1    
   101   51  108 1    
   102   51  109 1    
   103   52   53 2    
   104   52   54 am   BACKBONE|DICT|INTERRES
   105   54   55 1    
   106   54  110 1    
   107   55   56 1    
   108   55   59 1    
   109   55  111 1    
   110   56   57 am   BACKBONE|DICT|INTERRES
   111   56   58 2    
   112   57  112 1    
   113   57  113 1    
   114   59   60 1    
   115   59  114 1    
   116   59  115 1    
   117   60   61 1    
   118   61  116 1    
   119   61  117 1    
@<TRIPOS>SUBSTRUCTURE
     1 UNK         1 GROUP             0       ****    0 ROOT    
