@<TRIPOS>MOLECULE
3R8
117   119    1
SMALL
USER_CHARGES


@<TRIPOS>ATOM
      1 CA         18.5402  -23.7919  -41.6839 C.3       0 UNK        -0.2013 
      2 C          19.0875  -23.8754  -43.1012 C.2       0 UNK         0.4866 
      3 O          20.1477  -23.3176  -43.3819 O.2       0 UNK        -0.5176 
      4 N          18.3768  -24.5741  -43.9964 N.am      1 UNK        -0.4884 
      5 CA         18.7834  -24.8180  -45.3886 C.3       1 UNK         0.0853 
      6 C6         17.5903  -25.2988  -46.2565 C.3       10 UNK        -0.0849 
      7 S7         16.7486  -26.7795  -45.5860 S.3       10 UNK        -0.2776 
      8 C8         17.1413  -28.0600  -46.8319 C.3       10 UNK         0.0316 
      9 C9         17.2923  -29.4572  -46.2311 C.ar      10 UNK        -0.0863 
     10 C10        18.2742  -30.3207  -46.7261 C.ar      10 UNK        -0.1009 
     11 C11        18.4825  -31.5817  -46.1578 C.ar      10 UNK        -0.0712 
     12 C12        17.6598  -31.9961  -45.1024 C.ar      10 UNK        -0.0894 
     13 C13        16.6679  -31.1486  -44.6021 C.ar      10 UNK        -0.0745 
     14 C14        16.4736  -29.8946  -45.1856 C.ar      10 UNK        -0.0972 
     15 C15        15.8207  -31.5677  -43.4099 C.3       10 UNK         0.0209 
     16 S16        16.7495  -31.5002  -41.8409 S.3       10 UNK        -0.2568 
     17 C17        17.3839  -29.7873  -41.7975 C.3       10 UNK        -0.0983 
     18 CA         18.9416  -29.7450  -41.8520 C.3       3 UNK         0.0876 
     19 N          19.4545  -28.8457  -42.8959 N.am      3 UNK        -0.4424 
     20 C          20.7499  -28.7117  -43.2335 C.2       2 UNK         0.4918 
     21 O          21.6661  -29.3177  -42.6789 O.2       2 UNK        -0.4875 
     22 CA         21.0986  -27.7569  -44.3862 C.3       2 UNK         0.0481 
     23 CB         21.3570  -28.5693  -45.6706 C.3       2 UNK        -0.1831 
     24 N          20.0609  -26.7354  -44.5591 N.am      2 UNK        -0.4498 
     25 C          19.9891  -25.7784  -45.4952 C.2       1 UNK         0.5027 
     26 O          20.8094  -25.6208  -46.4000 O.2       1 UNK        -0.4969 
     27 C          19.5542  -29.4610  -40.4643 C.2       3 UNK         0.5005 
     28 O          20.2185  -30.3311  -39.8973 O.2       3 UNK        -0.5279 
     29 N          19.3270  -28.2366  -39.9689 N.am      4 UNK        -0.4463 
     30 CA         19.7719  -27.7616  -38.6540 C.3       4 UNK         0.0283 
     31 CB         18.6279  -26.9546  -38.0146 C.3       4 UNK        -0.1875 
     32 C          21.0548  -26.9124  -38.7218 C.2       4 UNK         0.4949 
     33 O          21.5441  -26.4816  -37.6768 O.2       4 UNK        -0.5039 
     34 N          21.5649  -26.6627  -39.9345 N.am      5 UNK        -0.4663 
     35 CA         22.8032  -25.9227  -40.1863 C.3       5 UNK         0.0242 
     36 CB         22.7476  -25.3506  -41.6135 C.3       5 UNK        -0.1982 
     37 C          24.0424  -26.8161  -39.9950 C.2       5 UNK         0.5017 
     38 O          23.9112  -28.0079  -39.7094 O.2       5 UNK        -0.5012 
     39 N          25.2312  -26.2329  -40.2080 N.am      6 UNK        -0.4439 
     40 CA         26.5433  -26.8884  -40.1006 C.3       6 UNK         0.0297 
     41 CB         27.6468  -25.8451  -40.3417 C.3       6 UNK        -0.2006 
     42 C          26.7488  -28.1084  -41.0233 C.2       6 UNK         0.4892 
     43 O          27.6158  -28.9341  -40.7350 O.2       6 UNK        -0.5089 
     44 N          25.9474  -28.2147  -42.0940 N.am      7 UNK        -0.4243 
     45 CA         25.8651  -29.3886  -42.9680 C.3       7 UNK         0.0196 
     46 CB         25.0284  -29.0370  -44.2087 C.3       7 UNK        -0.2007 
     47 C          25.2879  -30.6332  -42.2641 C.2       7 UNK         0.5020 
     48 O          25.6352  -31.7481  -42.6540 O.2       7 UNK        -0.5147 
     49 N          24.4422  -30.4189  -41.2425 N.am      8 UNK        -0.4734 
     50 CA         23.8288  -31.4119  -40.3532 C.3       8 UNK         0.0238 
     51 CB         24.8885  -31.9702  -39.3803 C.3       8 UNK        -0.1912 
     52 C          23.0518  -32.5177  -41.0932 C.2       8 UNK         0.5038 
     53 O          23.1994  -33.6973  -40.7648 O.2       8 UNK        -0.5046 
     54 N          22.2463  -32.1187  -42.0862 N.am      9 UNK        -0.4200 
     55 CA         21.3978  -33.0248  -42.8766 C.3       9 UNK         0.0839 
     56 C          20.1946  -33.6314  -42.0861 C.2       9 UNK         0.5513 
     57 N          19.8200  -33.1041  -40.9262 N.am      9 UNK        -0.7519 
     58 O          19.6095  -34.6235  -42.5111 O.2       9 UNK        -0.4960 
     59 C59        20.9863  -32.3582  -44.2178 C.3       10 UNK        -0.0876 
     60 S60        20.4222  -33.5469  -45.4849 S.3       10 UNK        -0.2414 
     61 C61        19.6074  -32.4604  -46.7072 C.3       10 UNK         0.0169 
     62 H62        18.3669  -22.7514  -41.4105 H         1 UNK         0.0903 
     63 H63        17.5994  -24.3313  -41.5761 H         1 UNK         0.0903 
     64 H64        19.2568  -24.2136  -40.9793 H         1 UNK         0.0903 
     65 H65        17.4933  -24.9869  -43.7285 H         1 UNK         0.3096 
     66 H66        19.1200  -23.8631  -45.7997 H         1 UNK         0.1121 
     67 H67        16.8481  -24.5010  -46.3148 H         1 UNK         0.0849 
     68 H68        17.9045  -25.4699  -47.2879 H         1 UNK         0.0849 
     69 H69        18.0644  -27.7867  -47.3453 H         1 UNK         0.0865 
     70 H70        16.3566  -28.0766  -47.5893 H         1 UNK         0.0865 
     71 H71        18.8997  -30.0000  -47.5482 H         1 UNK         0.1346 
     72 H72        17.8054  -32.9657  -44.6460 H         1 UNK         0.1412 
     73 H73        15.7006  -29.2446  -44.7995 H         1 UNK         0.1426 
     74 H74        15.4578  -32.5851  -43.5625 H         1 UNK         0.0716 
     75 H75        14.9342  -30.9373  -43.3241 H         1 UNK         0.0716 
     76 H76        16.9825  -29.3148  -40.8987 H         1 UNK         0.0695 
     77 H77        16.9453  -29.2180  -42.6155 H         1 UNK         0.0695 
     78 H78        19.2992  -30.7324  -42.1398 H         1 UNK         0.0983 
     79 H79        18.7565  -28.4046  -43.4752 H         1 UNK         0.3095 
     80 H80        22.0234  -27.2465  -44.1205 H         1 UNK         0.0454 
     81 H81        21.8668  -27.9758  -46.4285 H         1 UNK         0.0851 
     82 H82        20.4302  -28.9347  -46.1021 H         1 UNK         0.0851 
     83 H83        21.9927  -29.4340  -45.4762 H         1 UNK         0.0851 
     84 H84        19.3547  -26.6996  -43.8398 H         1 UNK         0.2976 
     85 H85        18.7750  -27.5913  -40.5155 H         1 UNK         0.3116 
     86 H86        19.9864  -28.6143  -38.0062 H         1 UNK         0.0646 
     87 H87        18.8950  -26.6234  -37.0101 H         1 UNK         0.0847 
     88 H88        17.7222  -27.5544  -37.9229 H         1 UNK         0.0847 
     89 H89        18.3848  -26.0644  -38.5961 H         1 UNK         0.0847 
     90 H90        21.1471  -27.1310  -40.7231 H         1 UNK         0.3040 
     91 H91        22.8701  -25.0943  -39.4772 H         1 UNK         0.1015 
     92 H92        21.8174  -24.8116  -41.7907 H         1 UNK         0.0786 
     93 H93        22.8298  -26.1356  -42.3629 H         1 UNK         0.0786 
     94 H94        23.5588  -24.6444  -41.7933 H         1 UNK         0.0786 
     95 H95        25.2457  -25.2512  -40.4460 H         1 UNK         0.3172 
     96 H96        26.6369  -27.2503  -39.0746 H         1 UNK         0.0595 
     97 H97        27.5879  -25.4188  -41.3440 H         1 UNK         0.0839 
     98 H98        28.6368  -26.2917  -40.2367 H         1 UNK         0.0839 
     99 H99        27.5875  -25.0277  -39.6228 H         1 UNK         0.0839 
    100 H100       25.2796  -27.4769  -42.2588 H         1 UNK         0.2998 
    101 H101       26.8774  -29.6366  -43.2946 H         1 UNK         0.0822 
    102 H102       24.0132  -28.7486  -43.9381 H         1 UNK         0.0787 
    103 H103       25.4738  -28.2158  -44.7704 H         1 UNK         0.0787 
    104 H104       24.9549  -29.8898  -44.8852 H         1 UNK         0.0787 
    105 H105       24.2320  -29.4566  -40.9924 H         1 UNK         0.3055 
    106 H106       23.0877  -30.8713  -39.7609 H         1 UNK         0.1106 
    107 H107       25.6511  -32.5480  -39.9037 H         1 UNK         0.0828 
    108 H108       25.3892  -31.1671  -38.8391 H         1 UNK         0.0828 
    109 H109       24.4332  -32.6258  -38.6371 H         1 UNK         0.0828 
    110 H110       22.1619  -31.1238  -42.2760 H         1 UNK         0.2931 
    111 H111       22.0330  -33.8744  -43.1357 H         1 UNK         0.0412 
    112 H112       20.2612  -32.2710  -40.5556 H         1 UNK         0.3472 
    113 H113       19.0470  -33.5198  -40.4321 H         1 UNK         0.3472 
    114 H114       20.2199  -31.6041  -44.0483 H         1 UNK         0.0970 
    115 H115       21.8388  -31.8260  -44.6424 H         1 UNK         0.0970 
    116 H116       20.3789  -31.8372  -47.1626 H         1 UNK         0.0612 
    117 H117       19.2012  -33.0823  -47.5056 H         1 UNK         0.0612 
@<TRIPOS>BOND
     1    1    2 1    
     2    1   62 1    
     3    1   63 1    
     4    1   64 1    
     5    2    3 2    
     6    2    4 am   BACKBONE|DICT|INTERRES
     7    4    5 1    
     8    4   65 1    
     9    5    6 1    
    10    5   25 1    
    11    5   66 1    
    12    6    7 1    
    13    6   67 1    
    14    6   68 1    
    15    7    8 1    
    16    8    9 1    
    17    8   69 1    
    18    8   70 1    
    19    9   10 ar   
    20    9   14 ar   
    21   10   11 ar   
    22   10   71 1    
    23   11   12 ar   
    24   11   61 1    
    25   12   13 ar   
    26   12   72 1    
    27   13   14 ar   
    28   13   15 1    
    29   14   73 1    
    30   15   16 1    
    31   15   74 1    
    32   15   75 1    
    33   16   17 1    
    34   17   18 1    
    35   17   76 1    
    36   17   77 1    
    37   18   19 1    
    38   18   27 1    
    39   18   78 1    
    40   19   20 am   BACKBONE|DICT|INTERRES
    41   19   79 1    
    42   20   21 2    
    43   20   22 1    
    44   22   23 1    
    45   22   24 1    
    46   22   80 1    
    47   23   81 1    
    48   23   82 1    
    49   23   83 1    
    50   24   25 am   BACKBONE|DICT|INTERRES
    51   24   84 1    
    52   25   26 2    
    53   27   28 2    
    54   27   29 am   BACKBONE|DICT|INTERRES
    55   29   30 1    
    56   29   85 1    
    57   30   31 1    
    58   30   32 1    
    59   30   86 1    
    60   31   87 1    
    61   31   88 1    
    62   31   89 1    
    63   32   33 2    
    64   32   34 am   BACKBONE|DICT|INTERRES
    65   34   35 1    
    66   34   90 1    
    67   35   36 1    
    68   35   37 1    
    69   35   91 1    
    70   36   92 1    
    71   36   93 1    
    72   36   94 1    
    73   37   38 2    
    74   37   39 am   BACKBONE|DICT|INTERRES
    75   39   40 1    
    76   39   95 1    
    77   40   41 1    
    78   40   42 1    
    79   40   96 1    
    80   41   97 1    
    81   41   98 1    
    82   41   99 1    
    83   42   43 2    
    84   42   44 am   BACKBONE|DICT|INTERRES
    85   44   45 1    
    86   44  100 1    
    87   45   46 1    
    88   45   47 1    
    89   45  101 1    
    90   46  102 1    
    91   46  103 1    
    92   46  104 1    
    93   47   48 2    
    94   47   49 am   BACKBONE|DICT|INTERRES
    95   49   50 1    
    96   49  105 1    
    97   50   51 1    
    98   50   52 1    
    99   50  106 1    
   100   51  107 1    
   101   51  108 1    
   102   51  109 1    
   103   52   53 2    
   104   52   54 am   BACKBONE|DICT|INTERRES
   105   54   55 1    
   106   54  110 1    
   107   55   56 1    
   108   55   59 1    
   109   55  111 1    
   110   56   57 am   BACKBONE|DICT|INTERRES
   111   56   58 2    
   112   57  112 1    
   113   57  113 1    
   114   59   60 1    
   115   59  114 1    
   116   59  115 1    
   117   60   61 1    
   118   61  116 1    
   119   61  117 1    
@<TRIPOS>SUBSTRUCTURE
     1 UNK         1 GROUP             0       ****    0 ROOT    
