@<TRIPOS>MOLECULE
3R8
117   119    1
SMALL
USER_CHARGES


@<TRIPOS>ATOM
      1 CA         17.4471  -23.4397  -40.6279 C.3       0 UNK        -0.2013 
      2 C          17.6776  -24.4529  -41.7384 C.2       0 UNK         0.4866 
      3 O          17.3212  -24.1958  -42.8893 O.2       0 UNK        -0.5176 
      4 N          18.2805  -25.6028  -41.4114 N.am      1 UNK        -0.4884 
      5 CA         18.5713  -26.7080  -42.3332 C.3       1 UNK         0.0853 
      6 C6         18.7161  -28.0577  -41.5868 C.3       10 UNK        -0.0849 
      7 S7         17.2059  -28.5606  -40.6924 S.3       10 UNK        -0.2776 
      8 C8         16.0186  -28.8942  -42.0435 C.3       10 UNK         0.0316 
      9 C9         16.5786  -29.7777  -43.1547 C.ar      10 UNK        -0.0863 
     10 C10        17.1874  -31.0001  -42.8519 C.ar      10 UNK        -0.1009 
     11 C11        17.7144  -31.8030  -43.8670 C.ar      10 UNK        -0.0712 
     12 C12        17.6034  -31.3908  -45.1975 C.ar      10 UNK        -0.0894 
     13 C13        16.9963  -30.1728  -45.5164 C.ar      10 UNK        -0.0745 
     14 C14        16.4835  -29.3714  -44.4910 C.ar      10 UNK        -0.0972 
     15 C15        16.8977  -29.7292  -46.9708 C.3       10 UNK         0.0209 
     16 S16        18.0330  -28.3590  -47.3680 S.3       10 UNK        -0.2568 
     17 C17        19.6642  -29.0984  -47.0072 C.3       10 UNK        -0.0983 
     18 CA         20.8228  -28.0669  -47.0028 C.3       3 UNK         0.0876 
     19 N          20.4934  -26.8920  -46.1913 N.am      3 UNK        -0.4424 
     20 C          21.2574  -25.8129  -45.9784 C.2       2 UNK         0.4918 
     21 O          22.3208  -25.5984  -46.5597 O.2       2 UNK        -0.4875 
     22 CA         20.7696  -24.8149  -44.9073 C.3       2 UNK         0.0481 
     23 CB         20.2639  -23.5238  -45.5694 C.3       2 UNK        -0.1831 
     24 N          19.7294  -25.3223  -43.9991 N.am      2 UNK        -0.4498 
     25 C          19.8022  -26.4071  -43.2142 C.2       1 UNK         0.5027 
     26 O          20.7782  -27.1602  -43.1930 O.2       1 UNK        -0.4969 
     27 C          22.1250  -28.7563  -46.5345 C.2       3 UNK         0.5005 
     28 O          22.8876  -29.2410  -47.3724 O.2       3 UNK        -0.5279 
     29 N          22.3474  -28.7785  -45.2118 N.am      4 UNK        -0.4463 
     30 CA         23.5420  -29.3181  -44.5575 C.3       4 UNK         0.0283 
     31 CB         23.1392  -30.5154  -43.6836 C.3       4 UNK        -0.1875 
     32 C          24.2766  -28.2482  -43.7313 C.2       4 UNK         0.4949 
     33 O          25.4960  -28.3408  -43.5882 O.2       4 UNK        -0.5039 
     34 N          23.5420  -27.2495  -43.2175 N.am      5 UNK        -0.4663 
     35 CA         23.9678  -26.0324  -42.5116 C.3       5 UNK         0.0242 
     36 CB         24.8668  -25.1555  -43.4038 C.3       5 UNK        -0.1982 
     37 C          24.6005  -26.2527  -41.1267 C.2       5 UNK         0.5017 
     38 O          24.2610  -25.5244  -40.1938 O.2       5 UNK        -0.5012 
     39 N          25.5011  -27.2347  -41.0084 N.am      6 UNK        -0.4439 
     40 CA         26.2095  -27.5869  -39.7740 C.3       6 UNK         0.0297 
     41 CB         27.3975  -28.4989  -40.1201 C.3       6 UNK        -0.2006 
     42 C          25.3111  -28.2566  -38.7181 C.2       6 UNK         0.4892 
     43 O          25.5918  -28.1381  -37.5248 O.2       6 UNK        -0.5089 
     44 N          24.2609  -28.9462  -39.1741 N.am      7 UNK        -0.4243 
     45 CA         23.2762  -29.6815  -38.3871 C.3       7 UNK         0.0196 
     46 CB         23.9131  -30.9538  -37.7884 C.3       7 UNK        -0.2007 
     47 C          22.1134  -30.0401  -39.3199 C.2       7 UNK         0.5020 
     48 O          22.2117  -29.8234  -40.5304 O.2       7 UNK        -0.5147 
     49 N          21.0521  -30.6401  -38.7675 N.am      8 UNK        -0.4734 
     50 CA         19.9099  -31.1808  -39.5163 C.3       8 UNK         0.0238 
     51 CB         18.6897  -31.2647  -38.5805 C.3       8 UNK        -0.1912 
     52 C          20.2457  -32.5329  -40.1808 C.2       8 UNK         0.5038 
     53 O          19.5853  -33.5371  -39.9100 O.2       8 UNK        -0.5046 
     54 N          21.2906  -32.5275  -41.0171 N.am      9 UNK        -0.4200 
     55 CA         21.8526  -33.6730  -41.7554 C.3       9 UNK         0.0839 
     56 C          22.5344  -34.7560  -40.8647 C.2       9 UNK         0.5513 
     57 N          22.8258  -34.4858  -39.5978 N.am      9 UNK        -0.7519 
     58 O          22.8369  -35.8494  -41.3360 O.2       9 UNK        -0.4960 
     59 C59        20.8680  -34.2869  -42.7927 C.3       10 UNK        -0.0876 
     60 S60        20.1845  -33.0343  -43.9314 S.3       10 UNK        -0.2414 
     61 C61        18.4116  -33.1096  -43.5246 C.3       10 UNK         0.0169 
     62 H62        16.3831  -23.2254  -40.5317 H         1 UNK         0.0903 
     63 H63        17.8087  -23.8003  -39.6651 H         1 UNK         0.0903 
     64 H64        17.9633  -22.5079  -40.8574 H         1 UNK         0.0903 
     65 H65        18.5589  -25.7581  -40.4526 H         1 UNK         0.3096 
     66 H66        17.7328  -26.8051  -43.0256 H         1 UNK         0.1121 
     67 H67        19.5336  -28.0037  -40.8648 H         1 UNK         0.0849 
     68 H68        18.9905  -28.8577  -42.2769 H         1 UNK         0.0849 
     69 H69        15.1382  -29.3803  -41.6213 H         1 UNK         0.0865 
     70 H70        15.6717  -27.9409  -42.4446 H         1 UNK         0.0865 
     71 H71        17.2657  -31.3158  -41.8204 H         1 UNK         0.1346 
     72 H72        18.0113  -32.0130  -45.9825 H         1 UNK         0.1412 
     73 H73        16.0141  -28.4292  -44.7398 H         1 UNK         0.1426 
     74 H74        15.8755  -29.4110  -47.1804 H         1 UNK         0.0716 
     75 H75        17.1003  -30.5632  -47.6446 H         1 UNK         0.0716 
     76 H76        19.8556  -29.8841  -47.7405 H         1 UNK         0.0695 
     77 H77        19.6068  -29.5927  -46.0358 H         1 UNK         0.0695 
     78 H78        20.9833  -27.7178  -48.0249 H         1 UNK         0.0983 
     79 H79        19.6128  -26.9444  -45.7022 H         1 UNK         0.3095 
     80 H80        21.6358  -24.5639  -44.2925 H         1 UNK         0.0454 
     81 H81        19.3759  -23.7042  -46.1764 H         1 UNK         0.0851 
     82 H82        21.0241  -23.0937  -46.2230 H         1 UNK         0.0851 
     83 H83        20.0144  -22.7668  -44.8257 H         1 UNK         0.0851 
     84 H84        18.8852  -24.7616  -43.9154 H         1 UNK         0.2976 
     85 H85        21.6637  -28.3349  -44.6080 H         1 UNK         0.3116 
     86 H86        24.2555  -29.6727  -45.3041 H         1 UNK         0.0646 
     87 H87        22.2984  -30.2710  -43.0357 H         1 UNK         0.0847 
     88 H88        23.9639  -30.8461  -43.0506 H         1 UNK         0.0847 
     89 H89        22.8414  -31.3640  -44.2992 H         1 UNK         0.0847 
     90 H90        22.5295  -27.3237  -43.2960 H         1 UNK         0.3040 
     91 H91        23.0477  -25.4728  -42.3337 H         1 UNK         0.1015 
     92 H92        25.8169  -25.6407  -43.6291 H         1 UNK         0.0786 
     93 H93        25.0952  -24.2077  -42.9144 H         1 UNK         0.0786 
     94 H94        24.3773  -24.9225  -44.3498 H         1 UNK         0.0786 
     95 H95        25.7124  -27.7685  -41.8497 H         1 UNK         0.3172 
     96 H96        26.6026  -26.6671  -39.3359 H         1 UNK         0.0595 
     97 H97        27.0698  -29.4298  -40.5849 H         1 UNK         0.0839 
     98 H98        27.9617  -28.7624  -39.2243 H         1 UNK         0.0839 
     99 H99        28.0894  -28.0074  -40.8043 H         1 UNK         0.0839 
    100 H100       24.0650  -28.9530  -40.1685 H         1 UNK         0.2998 
    101 H101       22.8999  -29.0356  -37.5913 H         1 UNK         0.0822 
    102 H102       24.7434  -30.7129  -37.1247 H         1 UNK         0.0787 
    103 H103       23.1938  -31.5213  -37.1972 H         1 UNK         0.0787 
    104 H104       24.2933  -31.6163  -38.5673 H         1 UNK         0.0787 
    105 H105       21.0536  -30.8072  -37.7710 H         1 UNK         0.3055 
    106 H106       19.6587  -30.4910  -40.3244 H         1 UNK         0.1106 
    107 H107       18.8627  -31.9463  -37.7470 H         1 UNK         0.0828 
    108 H108       17.8101  -31.6211  -39.1184 H         1 UNK         0.0828 
    109 H109       18.4377  -30.2866  -38.1705 H         1 UNK         0.0828 
    110 H110       21.7735  -31.6432  -41.1387 H         1 UNK         0.2931 
    111 H111       22.6777  -33.2464  -42.3265 H         1 UNK         0.0412 
    112 H112       23.2770  -35.1895  -39.0344 H         1 UNK         0.3472 
    113 H113       22.5800  -33.5963  -39.1966 H         1 UNK         0.3472 
    114 H114       20.0632  -34.8223  -42.2867 H         1 UNK         0.0970 
    115 H115       21.3798  -35.0322  -43.4040 H         1 UNK         0.0970 
    116 H116       17.9494  -33.9307  -44.0742 H         1 UNK         0.0612 
    117 H117       18.2851  -33.3338  -42.4647 H         1 UNK         0.0612 
@<TRIPOS>BOND
     1    1    2 1    
     2    1   62 1    
     3    1   63 1    
     4    1   64 1    
     5    2    3 2    
     6    2    4 am   BACKBONE|DICT|INTERRES
     7    4    5 1    
     8    4   65 1    
     9    5    6 1    
    10    5   25 1    
    11    5   66 1    
    12    6    7 1    
    13    6   67 1    
    14    6   68 1    
    15    7    8 1    
    16    8    9 1    
    17    8   69 1    
    18    8   70 1    
    19    9   10 ar   
    20    9   14 ar   
    21   10   11 ar   
    22   10   71 1    
    23   11   12 ar   
    24   11   61 1    
    25   12   13 ar   
    26   12   72 1    
    27   13   14 ar   
    28   13   15 1    
    29   14   73 1    
    30   15   16 1    
    31   15   74 1    
    32   15   75 1    
    33   16   17 1    
    34   17   18 1    
    35   17   76 1    
    36   17   77 1    
    37   18   19 1    
    38   18   27 1    
    39   18   78 1    
    40   19   20 am   BACKBONE|DICT|INTERRES
    41   19   79 1    
    42   20   21 2    
    43   20   22 1    
    44   22   23 1    
    45   22   24 1    
    46   22   80 1    
    47   23   81 1    
    48   23   82 1    
    49   23   83 1    
    50   24   25 am   BACKBONE|DICT|INTERRES
    51   24   84 1    
    52   25   26 2    
    53   27   28 2    
    54   27   29 am   BACKBONE|DICT|INTERRES
    55   29   30 1    
    56   29   85 1    
    57   30   31 1    
    58   30   32 1    
    59   30   86 1    
    60   31   87 1    
    61   31   88 1    
    62   31   89 1    
    63   32   33 2    
    64   32   34 am   BACKBONE|DICT|INTERRES
    65   34   35 1    
    66   34   90 1    
    67   35   36 1    
    68   35   37 1    
    69   35   91 1    
    70   36   92 1    
    71   36   93 1    
    72   36   94 1    
    73   37   38 2    
    74   37   39 am   BACKBONE|DICT|INTERRES
    75   39   40 1    
    76   39   95 1    
    77   40   41 1    
    78   40   42 1    
    79   40   96 1    
    80   41   97 1    
    81   41   98 1    
    82   41   99 1    
    83   42   43 2    
    84   42   44 am   BACKBONE|DICT|INTERRES
    85   44   45 1    
    86   44  100 1    
    87   45   46 1    
    88   45   47 1    
    89   45  101 1    
    90   46  102 1    
    91   46  103 1    
    92   46  104 1    
    93   47   48 2    
    94   47   49 am   BACKBONE|DICT|INTERRES
    95   49   50 1    
    96   49  105 1    
    97   50   51 1    
    98   50   52 1    
    99   50  106 1    
   100   51  107 1    
   101   51  108 1    
   102   51  109 1    
   103   52   53 2    
   104   52   54 am   BACKBONE|DICT|INTERRES
   105   54   55 1    
   106   54  110 1    
   107   55   56 1    
   108   55   59 1    
   109   55  111 1    
   110   56   57 am   BACKBONE|DICT|INTERRES
   111   56   58 2    
   112   57  112 1    
   113   57  113 1    
   114   59   60 1    
   115   59  114 1    
   116   59  115 1    
   117   60   61 1    
   118   61  116 1    
   119   61  117 1    
@<TRIPOS>SUBSTRUCTURE
     1 UNK         1 GROUP             0       ****    0 ROOT    
