@<TRIPOS>MOLECULE
3R8
117   119    1
SMALL
USER_CHARGES


@<TRIPOS>ATOM
      1 CA         17.8771  -28.2869  -41.9307 C.3       0 UNK        -0.2013 
      2 C          17.7754  -27.0131  -42.7489 C.2       0 UNK         0.4866 
      3 O          18.4606  -26.0419  -42.4323 O.2       0 UNK        -0.5176 
      4 N          16.9441  -27.0263  -43.8007 N.am      1 UNK        -0.4884 
      5 CA         16.4726  -25.8845  -44.6063 C.3       1 UNK         0.0853 
      6 C6         15.6557  -26.3530  -45.8356 C.3       10 UNK        -0.0849 
      7 S7         14.3108  -27.5026  -45.3799 S.3       10 UNK        -0.2776 
      8 C8         14.7606  -29.0088  -46.3027 C.3       10 UNK         0.0316 
      9 C9         15.9952  -29.7092  -45.7454 C.ar      10 UNK        -0.0863 
     10 C10        15.9093  -30.4559  -44.5642 C.ar      10 UNK        -0.1009 
     11 C11        17.0138  -31.1735  -44.0889 C.ar      10 UNK        -0.0712 
     12 C12        18.2049  -31.1438  -44.8181 C.ar      10 UNK        -0.0894 
     13 C13        18.3165  -30.3795  -45.9808 C.ar      10 UNK        -0.0745 
     14 C14        17.2081  -29.6634  -46.4420 C.ar      10 UNK        -0.0972 
     15 C15        19.6328  -30.3573  -46.7452 C.3       10 UNK         0.0209 
     16 S16        20.6172  -28.8681  -46.3895 S.3       10 UNK        -0.2568 
     17 C17        20.9655  -29.0423  -44.6030 C.3       10 UNK        -0.0983 
     18 CA         21.5869  -27.7760  -43.9505 C.3       3 UNK         0.0876 
     19 N          20.8104  -26.5671  -44.2470 N.am      3 UNK        -0.4424 
     20 C          21.1275  -25.6541  -45.1760 C.2       2 UNK         0.4918 
     21 O          22.2341  -25.5723  -45.7104 O.2       2 UNK        -0.4875 
     22 CA         19.9843  -24.7267  -45.6272 C.3       2 UNK         0.0481 
     23 CB         20.1435  -24.2429  -47.0806 C.3       2 UNK        -0.1831 
     24 N          18.7103  -25.4317  -45.4764 N.am      2 UNK        -0.4498 
     25 C          17.5713  -24.8900  -45.0355 C.2       1 UNK         0.5027 
     26 O          17.3845  -23.6785  -44.9118 O.2       1 UNK        -0.4969 
     27 C          21.7662  -27.9768  -42.4311 C.2       3 UNK         0.5005 
     28 O          22.2940  -29.0120  -42.0202 O.2       3 UNK        -0.5279 
     29 N          21.3299  -27.0092  -41.6087 N.am      4 UNK        -0.4463 
     30 CA         21.4599  -27.0399  -40.1487 C.3       4 UNK         0.0283 
     31 CB         20.6622  -25.8813  -39.5305 C.3       4 UNK        -0.1875 
     32 C          22.9281  -26.9998  -39.6942 C.2       4 UNK         0.4949 
     33 O          23.3188  -27.7685  -38.8162 O.2       4 UNK        -0.5039 
     34 N          23.7233  -26.1397  -40.3465 N.am      5 UNK        -0.4663 
     35 CA         25.1681  -26.0135  -40.1344 C.3       5 UNK         0.0242 
     36 CB         25.6606  -24.7102  -40.7836 C.3       5 UNK        -0.1982 
     37 C          25.9676  -27.2146  -40.6695 C.2       5 UNK         0.5017 
     38 O          27.0656  -27.4754  -40.1772 O.2       5 UNK        -0.5012 
     39 N          25.4013  -27.9452  -41.6402 N.am      6 UNK        -0.4439 
     40 CA         25.9663  -29.1555  -42.2396 C.3       6 UNK         0.0297 
     41 CB         25.4332  -29.3029  -43.6778 C.3       6 UNK        -0.2006 
     42 C          25.6733  -30.3916  -41.3687 C.2       6 UNK         0.4892 
     43 O          25.0846  -31.3599  -41.8500 O.2       6 UNK        -0.5089 
     44 N          26.0736  -30.3176  -40.0907 N.am      7 UNK        -0.4243 
     45 CA         25.9310  -31.3414  -39.0475 C.3       7 UNK         0.0196 
     46 CB         26.8825  -32.5237  -39.3314 C.3       7 UNK        -0.2007 
     47 C          24.4745  -31.7948  -38.8077 C.2       7 UNK         0.5020 
     48 O          24.2519  -32.9626  -38.4859 O.2       7 UNK        -0.5147 
     49 N          23.5216  -30.8605  -38.9576 N.am      8 UNK        -0.4734 
     50 CA         22.0691  -31.0381  -38.8541 C.3       8 UNK         0.0238 
     51 CB         21.6567  -31.3499  -37.3997 C.3       8 UNK        -0.1912 
     52 C          21.5297  -32.0694  -39.8629 C.2       8 UNK         0.5038 
     53 O          21.2086  -33.1956  -39.4764 O.2       8 UNK        -0.5046 
     54 N          21.4362  -31.6532  -41.1331 N.am      9 UNK        -0.4200 
     55 CA         20.9265  -32.4503  -42.2646 C.3       9 UNK         0.0839 
     56 C          21.9066  -33.5612  -42.7503 C.2       9 UNK         0.5513 
     57 N          23.2086  -33.4489  -42.5241 N.am      9 UNK        -0.7519 
     58 O          21.4890  -34.5375  -43.3687 O.2       9 UNK        -0.4960 
     59 C59        19.4740  -32.9918  -42.0618 C.3       10 UNK        -0.0876 
     60 S60        18.2460  -31.7133  -41.6160 S.3       10 UNK        -0.2414 
     61 C61        16.8973  -32.0084  -42.8154 C.3       10 UNK         0.0169 
     62 H62        18.8111  -28.8039  -42.1413 H         1 UNK         0.0903 
     63 H63        17.8539  -28.0530  -40.8668 H         1 UNK         0.0903 
     64 H64        17.0507  -28.9648  -42.1404 H         1 UNK         0.0903 
     65 H65        16.4629  -27.8901  -44.0171 H         1 UNK         0.3096 
     66 H66        15.7976  -25.3247  -43.9556 H         1 UNK         0.1121 
     67 H67        16.3063  -26.8249  -46.5737 H         1 UNK         0.0849 
     68 H68        15.2035  -25.4959  -46.3387 H         1 UNK         0.0849 
     69 H69        13.9174  -29.7004  -46.2689 H         1 UNK         0.0865 
     70 H70        14.8971  -28.7599  -47.3565 H         1 UNK         0.0865 
     71 H71        14.9708  -30.4940  -44.0275 H         1 UNK         0.1346 
     72 H72        19.0572  -31.7108  -44.4796 H         1 UNK         0.1412 
     73 H73        17.2874  -29.0906  -47.3560 H         1 UNK         0.1426 
     74 H74        20.2282  -31.2423  -46.5150 H         1 UNK         0.0716 
     75 H75        19.4318  -30.3978  -47.8167 H         1 UNK         0.0716 
     76 H76        21.6297  -29.8993  -44.4773 H         1 UNK         0.0695 
     77 H77        20.0360  -29.2944  -44.0945 H         1 UNK         0.0695 
     78 H78        22.5974  -27.6604  -44.3480 H         1 UNK         0.0983 
     79 H79        19.9031  -26.4923  -43.7993 H         1 UNK         0.3095 
     80 H80        20.0071  -23.8600  -44.9635 H         1 UNK         0.0454 
     81 H81        19.3217  -23.5894  -47.3732 H         1 UNK         0.0851 
     82 H82        20.1728  -25.0795  -47.7797 H         1 UNK         0.0851 
     83 H83        21.0667  -23.6763  -47.2076 H         1 UNK         0.0851 
     84 H84        18.7542  -26.4379  -45.5719 H         1 UNK         0.2976 
     85 H85        20.8740  -26.1989  -42.0054 H         1 UNK         0.3116 
     86 H86        21.0200  -27.9731  -39.7947 H         1 UNK         0.0646 
     87 H87        19.6047  -25.9476  -39.7877 H         1 UNK         0.0847 
     88 H88        20.7307  -25.8986  -38.4419 H         1 UNK         0.0847 
     89 H89        21.0271  -24.9096  -39.8649 H         1 UNK         0.0847 
     90 H90        23.3116  -25.5443  -41.0508 H         1 UNK         0.3040 
     91 H91        25.3520  -25.9542  -39.0590 H         1 UNK         0.1015 
     92 H92        25.4935  -24.7058  -41.8615 H         1 UNK         0.0786 
     93 H93        26.7304  -24.5727  -40.6194 H         1 UNK         0.0786 
     94 H94        25.1565  -23.8408  -40.3609 H         1 UNK         0.0786 
     95 H95        24.4592  -27.7102  -41.9147 H         1 UNK         0.3172 
     96 H96        27.0516  -29.0500  -42.2993 H         1 UNK         0.0595 
     97 H97        24.3566  -29.4729  -43.6973 H         1 UNK         0.0839 
     98 H98        25.9009  -30.1516  -44.1786 H         1 UNK         0.0839 
     99 H99        25.6468  -28.4174  -44.2765 H         1 UNK         0.0839 
    100 H100       26.5318  -29.4573  -39.8083 H         1 UNK         0.2998 
    101 H101       26.2548  -30.8739  -38.1164 H         1 UNK         0.0822 
    102 H102       26.8920  -33.2300  -38.5003 H         1 UNK         0.0787 
    103 H103       26.5835  -33.0747  -40.2239 H         1 UNK         0.0787 
    104 H104       27.9078  -32.1830  -39.4752 H         1 UNK         0.0787 
    105 H105       23.8162  -29.9231  -39.2057 H         1 UNK         0.3055 
    106 H106       21.6195  -30.0806  -39.1153 H         1 UNK         0.1106 
    107 H107       21.9852  -30.5645  -36.7192 H         1 UNK         0.0828 
    108 H108       20.5721  -31.4229  -37.3121 H         1 UNK         0.0828 
    109 H109       22.0733  -32.2942  -37.0480 H         1 UNK         0.0828 
    110 H110       21.7757  -30.7250  -41.3747 H         1 UNK         0.2931 
    111 H111       20.8874  -31.7464  -43.0945 H         1 UNK         0.0412 
    112 H112       23.8222  -34.1764  -42.8531 H         1 UNK         0.3472 
    113 H113       23.6105  -32.6257  -42.0857 H         1 UNK         0.3472 
    114 H114       19.4561  -33.7596  -41.2874 H         1 UNK         0.0970 
    115 H115       19.1372  -33.4974  -42.9678 H         1 UNK         0.0970 
    116 H116       15.9584  -31.7798  -42.3091 H         1 UNK         0.0612 
    117 H117       16.8474  -33.0661  -43.0761 H         1 UNK         0.0612 
@<TRIPOS>BOND
     1    1    2 1    
     2    1   62 1    
     3    1   63 1    
     4    1   64 1    
     5    2    3 2    
     6    2    4 am   BACKBONE|DICT|INTERRES
     7    4    5 1    
     8    4   65 1    
     9    5    6 1    
    10    5   25 1    
    11    5   66 1    
    12    6    7 1    
    13    6   67 1    
    14    6   68 1    
    15    7    8 1    
    16    8    9 1    
    17    8   69 1    
    18    8   70 1    
    19    9   10 ar   
    20    9   14 ar   
    21   10   11 ar   
    22   10   71 1    
    23   11   12 ar   
    24   11   61 1    
    25   12   13 ar   
    26   12   72 1    
    27   13   14 ar   
    28   13   15 1    
    29   14   73 1    
    30   15   16 1    
    31   15   74 1    
    32   15   75 1    
    33   16   17 1    
    34   17   18 1    
    35   17   76 1    
    36   17   77 1    
    37   18   19 1    
    38   18   27 1    
    39   18   78 1    
    40   19   20 am   BACKBONE|DICT|INTERRES
    41   19   79 1    
    42   20   21 2    
    43   20   22 1    
    44   22   23 1    
    45   22   24 1    
    46   22   80 1    
    47   23   81 1    
    48   23   82 1    
    49   23   83 1    
    50   24   25 am   BACKBONE|DICT|INTERRES
    51   24   84 1    
    52   25   26 2    
    53   27   28 2    
    54   27   29 am   BACKBONE|DICT|INTERRES
    55   29   30 1    
    56   29   85 1    
    57   30   31 1    
    58   30   32 1    
    59   30   86 1    
    60   31   87 1    
    61   31   88 1    
    62   31   89 1    
    63   32   33 2    
    64   32   34 am   BACKBONE|DICT|INTERRES
    65   34   35 1    
    66   34   90 1    
    67   35   36 1    
    68   35   37 1    
    69   35   91 1    
    70   36   92 1    
    71   36   93 1    
    72   36   94 1    
    73   37   38 2    
    74   37   39 am   BACKBONE|DICT|INTERRES
    75   39   40 1    
    76   39   95 1    
    77   40   41 1    
    78   40   42 1    
    79   40   96 1    
    80   41   97 1    
    81   41   98 1    
    82   41   99 1    
    83   42   43 2    
    84   42   44 am   BACKBONE|DICT|INTERRES
    85   44   45 1    
    86   44  100 1    
    87   45   46 1    
    88   45   47 1    
    89   45  101 1    
    90   46  102 1    
    91   46  103 1    
    92   46  104 1    
    93   47   48 2    
    94   47   49 am   BACKBONE|DICT|INTERRES
    95   49   50 1    
    96   49  105 1    
    97   50   51 1    
    98   50   52 1    
    99   50  106 1    
   100   51  107 1    
   101   51  108 1    
   102   51  109 1    
   103   52   53 2    
   104   52   54 am   BACKBONE|DICT|INTERRES
   105   54   55 1    
   106   54  110 1    
   107   55   56 1    
   108   55   59 1    
   109   55  111 1    
   110   56   57 am   BACKBONE|DICT|INTERRES
   111   56   58 2    
   112   57  112 1    
   113   57  113 1    
   114   59   60 1    
   115   59  114 1    
   116   59  115 1    
   117   60   61 1    
   118   61  116 1    
   119   61  117 1    
@<TRIPOS>SUBSTRUCTURE
     1 UNK         1 GROUP             0       ****    0 ROOT    
