@<TRIPOS>MOLECULE
3R8
117   119    1
SMALL
USER_CHARGES


@<TRIPOS>ATOM
      1 CA         19.0617  -22.9321  -49.4998 C.3       0 UNK        -0.2013 
      2 C          19.8833  -23.9095  -48.6733 C.2       0 UNK         0.4866 
      3 O          21.1046  -23.7742  -48.6011 O.2       0 UNK        -0.5176 
      4 N          19.2232  -24.8927  -48.0458 N.am      1 UNK        -0.4884 
      5 CA         19.8565  -25.9210  -47.2069 C.3       1 UNK         0.0853 
      6 C6         18.9559  -27.1814  -47.0896 C.3       10 UNK        -0.0849 
      7 S7         19.9265  -28.7217  -46.9845 S.3       10 UNK        -0.2776 
      8 C8         18.6380  -29.9355  -46.5591 C.3       10 UNK         0.0316 
      9 C9         18.3719  -29.9831  -45.0613 C.ar      10 UNK        -0.0863 
     10 C10        19.2288  -30.7075  -44.2271 C.ar      10 UNK        -0.1009 
     11 C11        18.9865  -30.7799  -42.8534 C.ar      10 UNK        -0.0712 
     12 C12        17.8683  -30.1376  -42.3171 C.ar      10 UNK        -0.0894 
     13 C13        17.0084  -29.3973  -43.1368 C.ar      10 UNK        -0.0745 
     14 C14        17.2662  -29.3263  -44.5103 C.ar      10 UNK        -0.0972 
     15 C15        15.7934  -28.6874  -42.5470 C.3       10 UNK         0.0209 
     16 S16        16.1860  -27.7006  -41.0621 S.3       10 UNK        -0.2568 
     17 C17        17.0806  -26.2668  -41.7555 C.3       10 UNK        -0.0983 
     18 CA         18.6124  -26.4848  -41.9374 C.3       3 UNK         0.0876 
     19 N          19.1934  -25.5928  -42.9394 N.am      3 UNK        -0.4424 
     20 C          19.2310  -24.2563  -42.9087 C.2       2 UNK         0.4918 
     21 O          18.7516  -23.5759  -42.0010 O.2       2 UNK        -0.4875 
     22 CA         19.8763  -23.5402  -44.1130 C.3       2 UNK         0.0481 
     23 CB         21.3512  -23.1979  -43.8249 C.3       2 UNK        -0.1831 
     24 N          19.7184  -24.2350  -45.4033 N.am      2 UNK        -0.4498 
     25 C          20.2662  -25.3913  -45.8133 C.2       1 UNK         0.5027 
     26 O          21.0314  -26.0565  -45.1169 O.2       1 UNK        -0.4969 
     27 C          19.4578  -26.5083  -40.6428 C.2       3 UNK         0.5005 
     28 O          20.6737  -26.3063  -40.7090 O.2       3 UNK        -0.5279 
     29 N          18.8230  -26.8310  -39.5065 N.am      4 UNK        -0.4463 
     30 CA         19.4375  -27.2640  -38.2469 C.3       4 UNK         0.0283 
     31 CB         20.2944  -26.1481  -37.6044 C.3       4 UNK        -0.1875 
     32 C          20.1705  -28.5975  -38.4844 C.2       4 UNK         0.4949 
     33 O          19.5181  -29.5581  -38.8938 O.2       4 UNK        -0.5039 
     34 N          21.4902  -28.6430  -38.2625 N.am      5 UNK        -0.4663 
     35 CA         22.3292  -29.7880  -38.6287 C.3       5 UNK         0.0242 
     36 CB         23.6006  -29.7896  -37.7658 C.3       5 UNK        -0.1982 
     37 C          22.7013  -29.7923  -40.1217 C.2       5 UNK         0.5017 
     38 O          22.9147  -30.8688  -40.6819 O.2       5 UNK        -0.5012 
     39 N          22.8217  -28.5969  -40.7237 N.am      6 UNK        -0.4439 
     40 CA         23.1901  -28.2968  -42.1204 C.3       6 UNK         0.0297 
     41 CB         22.0376  -28.6856  -43.0662 C.3       6 UNK        -0.2006 
     42 C          24.5251  -28.9028  -42.6119 C.2       6 UNK         0.4892 
     43 O          24.7795  -28.8906  -43.8170 O.2       6 UNK        -0.5089 
     44 N          25.3284  -29.4552  -41.6884 N.am      7 UNK        -0.4243 
     45 CA         26.4704  -30.3496  -41.9191 C.3       7 UNK         0.0196 
     46 CB         27.6453  -29.5894  -42.5712 C.3       7 UNK        -0.2007 
     47 C          26.0817  -31.6352  -42.6868 C.2       7 UNK         0.5020 
     48 O          26.9113  -32.1790  -43.4181 O.2       7 UNK        -0.5147 
     49 N          24.8314  -32.0938  -42.5195 N.am      8 UNK        -0.4734 
     50 CA         24.2537  -33.2201  -43.2597 C.3       8 UNK         0.0238 
     51 CB         23.4296  -32.6865  -44.4448 C.3       8 UNK        -0.1912 
     52 C          23.4019  -34.1440  -42.3782 C.2       8 UNK         0.5038 
     53 O          23.4435  -35.3579  -42.5835 O.2       8 UNK        -0.5046 
     54 N          22.6538  -33.5773  -41.4224 N.am      9 UNK        -0.4200 
     55 CA         21.8017  -34.3254  -40.4814 C.3       9 UNK         0.0839 
     56 C          22.5573  -34.8053  -39.2079 C.2       9 UNK         0.5513 
     57 N          23.8129  -34.4293  -38.9924 N.am      9 UNK        -0.7519 
     58 O          21.9951  -35.5437  -38.4032 O.2       9 UNK        -0.4960 
     59 C59        20.5201  -33.5349  -40.1031 C.3       10 UNK        -0.0876 
     60 S60        19.4258  -33.1848  -41.5247 S.3       10 UNK        -0.2414 
     61 C61        19.9587  -31.4994  -41.9347 C.3       10 UNK         0.0169 
     62 H62        19.3972  -22.9435  -50.5365 H         1 UNK         0.0903 
     63 H63        17.9997  -23.1759  -49.4856 H         1 UNK         0.0903 
     64 H64        19.1826  -21.9205  -49.1140 H         1 UNK         0.0903 
     65 H65        18.2194  -24.9580  -48.1456 H         1 UNK         0.3096 
     66 H66        20.7849  -26.2084  -47.7067 H         1 UNK         0.1121 
     67 H67        18.2708  -27.1117  -46.2422 H         1 UNK         0.0849 
     68 H68        18.3238  -27.2789  -47.9737 H         1 UNK         0.0849 
     69 H69        17.7229  -29.7166  -47.1114 H         1 UNK         0.0865 
     70 H70        18.9625  -30.9209  -46.8967 H         1 UNK         0.0865 
     71 H71        20.0926  -31.2037  -44.6477 H         1 UNK         0.1346 
     72 H72        17.6830  -30.1959  -41.2528 H         1 UNK         0.1412 
     73 H73        16.6012  -28.7664  -45.1536 H         1 UNK         0.1426 
     74 H74        15.0546  -29.4423  -42.2753 H         1 UNK         0.0716 
     75 H75        15.3159  -28.0436  -43.2872 H         1 UNK         0.0716 
     76 H76        16.6242  -26.0319  -42.7184 H         1 UNK         0.0695 
     77 H77        16.8886  -25.3978  -41.1237 H         1 UNK         0.0695 
     78 H78        18.7534  -27.4753  -42.3665 H         1 UNK         0.0983 
     79 H79        19.7223  -26.0423  -43.6798 H         1 UNK         0.3095 
     80 H80        19.3427  -22.5956  -44.2303 H         1 UNK         0.0454 
     81 H81        21.4352  -22.5648  -42.9408 H         1 UNK         0.0851 
     82 H82        21.8036  -22.6567  -44.6557 H         1 UNK         0.0851 
     83 H83        21.9503  -24.0894  -43.6372 H         1 UNK         0.0851 
     84 H84        19.0826  -23.7895  -46.0501 H         1 UNK         0.2976 
     85 H85        17.8313  -27.0228  -39.5882 H         1 UNK         0.3116 
     86 H86        18.6169  -27.4831  -37.5623 H         1 UNK         0.0646 
     87 H87        21.1575  -25.8728  -38.2104 H         1 UNK         0.0847 
     88 H88        19.7031  -25.2452  -37.4523 H         1 UNK         0.0847 
     89 H89        20.6627  -26.4539  -36.6243 H         1 UNK         0.0847 
     90 H90        21.9535  -27.8195  -37.9058 H         1 UNK         0.3040 
     91 H91        21.7837  -30.7117  -38.4235 H         1 UNK         0.1015 
     92 H92        24.2324  -30.6469  -38.0038 H         1 UNK         0.0786 
     93 H93        23.3576  -29.8555  -36.7050 H         1 UNK         0.0786 
     94 H94        24.1984  -28.8900  -37.9174 H         1 UNK         0.0786 
     95 H95        22.5782  -27.7821  -40.1758 H         1 UNK         0.3172 
     96 H96        23.3070  -27.2133  -42.1703 H         1 UNK         0.0595 
     97 H97        21.9846  -29.7629  -43.2052 H         1 UNK         0.0839 
     98 H98        22.1786  -28.2472  -44.0546 H         1 UNK         0.0839 
     99 H99        21.0732  -28.3410  -42.6961 H         1 UNK         0.0839 
    100 H100       25.0170  -29.3940  -40.7298 H         1 UNK         0.2998 
    101 H101       26.8004  -30.6805  -40.9333 H         1 UNK         0.0822 
    102 H102       28.5420  -30.2094  -42.6048 H         1 UNK         0.0787 
    103 H103       27.8964  -28.6897  -42.0096 H         1 UNK         0.0787 
    104 H104       27.4180  -29.2932  -43.5957 H         1 UNK         0.0787 
    105 H105       24.2147  -31.5931  -41.8857 H         1 UNK         0.3055 
    106 H106       25.0563  -33.8432  -43.6613 H         1 UNK         0.1106 
    107 H107       24.0531  -32.1162  -45.1336 H         1 UNK         0.0828 
    108 H108       22.9827  -33.5039  -45.0123 H         1 UNK         0.0828 
    109 H109       22.6202  -32.0360  -44.1142 H         1 UNK         0.0828 
    110 H110       22.6917  -32.5732  -41.2736 H         1 UNK         0.2931 
    111 H111       21.4672  -35.2381  -40.9784 H         1 UNK         0.0412 
    112 H112       24.2909  -34.7534  -38.1662 H         1 UNK         0.3472 
    113 H113       24.2864  -33.8302  -39.6488 H         1 UNK         0.3472 
    114 H114       20.7783  -32.6063  -39.5925 H         1 UNK         0.0970 
    115 H115       19.9241  -34.1051  -39.3880 H         1 UNK         0.0970 
    116 H116       20.9420  -31.5596  -42.3961 H         1 UNK         0.0612 
    117 H117       20.0781  -30.9166  -41.0231 H         1 UNK         0.0612 
@<TRIPOS>BOND
     1    1    2 1    
     2    1   62 1    
     3    1   63 1    
     4    1   64 1    
     5    2    3 2    
     6    2    4 am   BACKBONE|DICT|INTERRES
     7    4    5 1    
     8    4   65 1    
     9    5    6 1    
    10    5   25 1    
    11    5   66 1    
    12    6    7 1    
    13    6   67 1    
    14    6   68 1    
    15    7    8 1    
    16    8    9 1    
    17    8   69 1    
    18    8   70 1    
    19    9   10 ar   
    20    9   14 ar   
    21   10   11 ar   
    22   10   71 1    
    23   11   12 ar   
    24   11   61 1    
    25   12   13 ar   
    26   12   72 1    
    27   13   14 ar   
    28   13   15 1    
    29   14   73 1    
    30   15   16 1    
    31   15   74 1    
    32   15   75 1    
    33   16   17 1    
    34   17   18 1    
    35   17   76 1    
    36   17   77 1    
    37   18   19 1    
    38   18   27 1    
    39   18   78 1    
    40   19   20 am   BACKBONE|DICT|INTERRES
    41   19   79 1    
    42   20   21 2    
    43   20   22 1    
    44   22   23 1    
    45   22   24 1    
    46   22   80 1    
    47   23   81 1    
    48   23   82 1    
    49   23   83 1    
    50   24   25 am   BACKBONE|DICT|INTERRES
    51   24   84 1    
    52   25   26 2    
    53   27   28 2    
    54   27   29 am   BACKBONE|DICT|INTERRES
    55   29   30 1    
    56   29   85 1    
    57   30   31 1    
    58   30   32 1    
    59   30   86 1    
    60   31   87 1    
    61   31   88 1    
    62   31   89 1    
    63   32   33 2    
    64   32   34 am   BACKBONE|DICT|INTERRES
    65   34   35 1    
    66   34   90 1    
    67   35   36 1    
    68   35   37 1    
    69   35   91 1    
    70   36   92 1    
    71   36   93 1    
    72   36   94 1    
    73   37   38 2    
    74   37   39 am   BACKBONE|DICT|INTERRES
    75   39   40 1    
    76   39   95 1    
    77   40   41 1    
    78   40   42 1    
    79   40   96 1    
    80   41   97 1    
    81   41   98 1    
    82   41   99 1    
    83   42   43 2    
    84   42   44 am   BACKBONE|DICT|INTERRES
    85   44   45 1    
    86   44  100 1    
    87   45   46 1    
    88   45   47 1    
    89   45  101 1    
    90   46  102 1    
    91   46  103 1    
    92   46  104 1    
    93   47   48 2    
    94   47   49 am   BACKBONE|DICT|INTERRES
    95   49   50 1    
    96   49  105 1    
    97   50   51 1    
    98   50   52 1    
    99   50  106 1    
   100   51  107 1    
   101   51  108 1    
   102   51  109 1    
   103   52   53 2    
   104   52   54 am   BACKBONE|DICT|INTERRES
   105   54   55 1    
   106   54  110 1    
   107   55   56 1    
   108   55   59 1    
   109   55  111 1    
   110   56   57 am   BACKBONE|DICT|INTERRES
   111   56   58 2    
   112   57  112 1    
   113   57  113 1    
   114   59   60 1    
   115   59  114 1    
   116   59  115 1    
   117   60   61 1    
   118   61  116 1    
   119   61  117 1    
@<TRIPOS>SUBSTRUCTURE
     1 UNK         1 GROUP             0       ****    0 ROOT    
