@<TRIPOS>MOLECULE
3R8
117   119    1
SMALL
USER_CHARGES


@<TRIPOS>ATOM
      1 CA         20.3893  -26.7058  -49.9343 C.3       0 UNK        -0.2013 
      2 C          18.8633  -26.6943  -49.8818 C.2       0 UNK         0.4866 
      3 O          18.2314  -26.2216  -50.8250 O.2       0 UNK        -0.5176 
      4 N          18.2240  -27.2106  -48.8235 N.am      1 UNK        -0.4884 
      5 CA         18.8209  -27.7271  -47.5860 C.3       1 UNK         0.0853 
      6 C6         17.8258  -28.6349  -46.8095 C.3       10 UNK        -0.0849 
      7 S7         16.2291  -27.8362  -46.4169 S.3       10 UNK        -0.2776 
      8 C8         15.4215  -29.1125  -45.3981 C.3       10 UNK         0.0316 
      9 C9         15.9401  -29.1366  -43.9652 C.ar      10 UNK        -0.0863 
     10 C10        16.6671  -30.2333  -43.4894 C.ar      10 UNK        -0.1009 
     11 C11        17.0892  -30.2800  -42.1562 C.ar      10 UNK        -0.0712 
     12 C12        16.7706  -29.2253  -41.2955 C.ar      10 UNK        -0.0894 
     13 C13        16.0976  -28.0977  -41.7736 C.ar      10 UNK        -0.0745 
     14 C14        15.6671  -28.0688  -43.1037 C.ar      10 UNK        -0.0972 
     15 C15        15.8526  -26.9004  -40.8655 C.3       10 UNK         0.0209 
     16 S16        17.0568  -25.5637  -41.1771 S.3       10 UNK        -0.2568 
     17 C17        18.5321  -26.1162  -40.2502 C.3       10 UNK        -0.0983 
     18 CA         19.4903  -26.9984  -41.0923 C.3       3 UNK         0.0876 
     19 N          19.9291  -26.3403  -42.3267 N.am      3 UNK        -0.4424 
     20 C          20.3691  -27.0047  -43.4006 C.2       2 UNK         0.4918 
     21 O          20.4945  -28.2303  -43.4555 O.2       2 UNK        -0.4875 
     22 CA         20.7087  -26.1736  -44.6412 C.3       2 UNK         0.0481 
     23 CB         22.2218  -25.9172  -44.7317 C.3       2 UNK        -0.1831 
     24 N          20.2767  -26.9657  -45.7872 N.am      2 UNK        -0.4498 
     25 C          19.3651  -26.5935  -46.6891 C.2       1 UNK         0.5027 
     26 O          18.9407  -25.4407  -46.8073 O.2       1 UNK        -0.4969 
     27 C          20.6778  -27.5317  -40.2634 C.2       3 UNK         0.5005 
     28 O          21.8309  -27.2115  -40.5573 O.2       3 UNK        -0.5279 
     29 N          20.3616  -28.3321  -39.2333 N.am      4 UNK        -0.4463 
     30 CA         21.2540  -29.1970  -38.4443 C.3       4 UNK         0.0283 
     31 CB         20.3958  -30.0082  -37.4576 C.3       4 UNK        -0.1875 
     32 C          22.4538  -28.5443  -37.7235 C.2       4 UNK         0.4949 
     33 O          23.2367  -29.2643  -37.1021 O.2       4 UNK        -0.5039 
     34 N          22.6127  -27.2193  -37.8275 N.am      5 UNK        -0.4663 
     35 CA         23.8684  -26.5216  -37.5373 C.3       5 UNK         0.0242 
     36 CB         23.6058  -25.0083  -37.4809 C.3       5 UNK        -0.1982 
     37 C          24.9604  -26.8465  -38.5787 C.2       5 UNK         0.5017 
     38 O          26.1427  -26.8395  -38.2338 O.2       5 UNK        -0.5012 
     39 N          24.5437  -27.1412  -39.8180 N.am      6 UNK        -0.4439 
     40 CA         25.3746  -27.6658  -40.8971 C.3       6 UNK         0.0297 
     41 CB         24.8722  -27.0827  -42.2295 C.3       6 UNK        -0.2006 
     42 C          25.2854  -29.1999  -40.9264 C.2       6 UNK         0.4892 
     43 O          24.3158  -29.7805  -40.4334 O.2       6 UNK        -0.5089 
     44 N          26.2824  -29.8308  -41.5588 N.am      7 UNK        -0.4243 
     45 CA         26.3795  -31.2859  -41.7307 C.3       7 UNK         0.0196 
     46 CB         27.8242  -31.6413  -42.1212 C.3       7 UNK        -0.2007 
     47 C          25.3842  -31.8771  -42.7505 C.2       7 UNK         0.5020 
     48 O          25.2914  -33.1008  -42.8517 O.2       7 UNK        -0.5147 
     49 N          24.6664  -31.0193  -43.4908 N.am      8 UNK        -0.4734 
     50 CA         23.7236  -31.3705  -44.5606 C.3       8 UNK         0.0238 
     51 CB         23.1612  -30.0772  -45.1737 C.3       8 UNK        -0.1912 
     52 C          22.5754  -32.3095  -44.1430 C.2       8 UNK         0.5038 
     53 O          22.0907  -33.0656  -44.9863 O.2       8 UNK        -0.5046 
     54 N          22.1755  -32.2609  -42.8660 N.am      9 UNK        -0.4200 
     55 CA         21.1790  -33.1675  -42.2704 C.3       9 UNK         0.0839 
     56 C          21.7294  -34.5833  -41.9272 C.2       9 UNK         0.5513 
     57 N          23.0240  -34.8553  -42.0490 N.am      9 UNK        -0.7519 
     58 O          20.9587  -35.4615  -41.5484 O.2       9 UNK        -0.4960 
     59 C59        20.4678  -32.5313  -41.0470 C.3       10 UNK        -0.0876 
     60 S60        19.6595  -30.9534  -41.4649 S.3       10 UNK        -0.2414 
     61 C61        17.9197  -31.4490  -41.6480 C.3       10 UNK         0.0169 
     62 H62        20.8121  -26.0575  -49.1678 H         1 UNK         0.0903 
     63 H63        20.7818  -27.7136  -49.8044 H         1 UNK         0.0903 
     64 H64        20.7384  -26.3423  -50.9007 H         1 UNK         0.0903 
     65 H65        17.2149  -27.1604  -48.8018 H         1 UNK         0.3096 
     66 H66        19.6711  -28.3538  -47.8622 H         1 UNK         0.1121 
     67 H67        18.2745  -29.0003  -45.8830 H         1 UNK         0.0849 
     68 H68        17.6159  -29.5265  -47.4026 H         1 UNK         0.0849 
     69 H69        14.3490  -28.9135  -45.3778 H         1 UNK         0.0865 
     70 H70        15.5369  -30.0872  -45.8749 H         1 UNK         0.0865 
     71 H71        16.9036  -31.0522  -44.1550 H         1 UNK         0.1346 
     72 H72        17.1006  -29.2599  -40.2666 H         1 UNK         0.1412 
     73 H73        15.1300  -27.2061  -43.4746 H         1 UNK         0.1426 
     74 H74        15.8800  -27.1921  -39.8145 H         1 UNK         0.0716 
     75 H75        14.8483  -26.5138  -41.0454 H         1 UNK         0.0716 
     76 H76        19.0565  -25.2265  -39.8967 H         1 UNK         0.0695 
     77 H77        18.1945  -26.6397  -39.3545 H         1 UNK         0.0695 
     78 H78        18.9436  -27.8855  -41.4027 H         1 UNK         0.0983 
     79 H79        19.8675  -25.3336  -42.3476 H         1 UNK         0.3095 
     80 H80        20.1788  -25.2198  -44.5945 H         1 UNK         0.0454 
     81 H81        22.5731  -25.3489  -43.8695 H         1 UNK         0.0851 
     82 H82        22.7897  -26.8477  -44.7627 H         1 UNK         0.0851 
     83 H83        22.4720  -25.3433  -45.6239 H         1 UNK         0.0851 
     84 H84        20.5122  -27.9466  -45.7083 H         1 UNK         0.2976 
     85 H85        19.3795  -28.4838  -39.0585 H         1 UNK         0.3116 
     86 H86        21.6935  -29.9013  -39.1536 H         1 UNK         0.0646 
     87 H87        21.0041  -30.7140  -36.8902 H         1 UNK         0.0847 
     88 H88        19.6369  -30.5933  -37.9778 H         1 UNK         0.0847 
     89 H89        19.8919  -29.3618  -36.7381 H         1 UNK         0.0847 
     90 H90        21.9405  -26.7225  -38.3956 H         1 UNK         0.3040 
     91 H91        24.2319  -26.8480  -36.5602 H         1 UNK         0.1015 
     92 H92        22.8753  -24.7609  -36.7103 H         1 UNK         0.0786 
     93 H93        23.2337  -24.6269  -38.4328 H         1 UNK         0.0786 
     94 H94        24.5211  -24.4631  -37.2461 H         1 UNK         0.0786 
     95 H95        23.5393  -27.1773  -39.9952 H         1 UNK         0.3172 
     96 H96        26.4148  -27.3690  -40.7473 H         1 UNK         0.0595 
     97 H97        24.8903  -25.9929  -42.2163 H         1 UNK         0.0839 
     98 H98        23.8488  -27.3952  -42.4442 H         1 UNK         0.0839 
     99 H99        25.4953  -27.4050  -43.0645 H         1 UNK         0.0839 
    100 H100       27.0340  -29.2809  -41.9511 H         1 UNK         0.2998 
    101 H101       26.1621  -31.7555  -40.7687 H         1 UNK         0.0822 
    102 H102       28.5353  -31.2987  -41.3691 H         1 UNK         0.0787 
    103 H103       27.9515  -32.7210  -42.2135 H         1 UNK         0.0787 
    104 H104       28.1046  -31.1979  -43.0775 H         1 UNK         0.0787 
    105 H105       24.8063  -30.0346  -43.3217 H         1 UNK         0.3055 
    106 H106       24.2928  -31.8956  -45.3308 H         1 UNK         0.1106 
    107 H107       22.6303  -29.4822  -44.4302 H         1 UNK         0.0828 
    108 H108       23.9524  -29.4589  -45.5979 H         1 UNK         0.0828 
    109 H109       22.4580  -30.2975  -45.9781 H         1 UNK         0.0828 
    110 H110       22.6231  -31.6062  -42.2412 H         1 UNK         0.2931 
    111 H111       20.4064  -33.3368  -43.0232 H         1 UNK         0.0412 
    112 H112       23.3524  -35.7811  -41.8246 H         1 UNK         0.3472 
    113 H113       23.6847  -34.1545  -42.3691 H         1 UNK         0.3472 
    114 H114       21.1852  -32.3454  -40.2457 H         1 UNK         0.0970 
    115 H115       19.7212  -33.2111  -40.6317 H         1 UNK         0.0970 
    116 H116       17.5332  -31.7901  -40.6865 H         1 UNK         0.0612 
    117 H117       17.8549  -32.2951  -42.3339 H         1 UNK         0.0612 
@<TRIPOS>BOND
     1    1    2 1    
     2    1   62 1    
     3    1   63 1    
     4    1   64 1    
     5    2    3 2    
     6    2    4 am   BACKBONE|DICT|INTERRES
     7    4    5 1    
     8    4   65 1    
     9    5    6 1    
    10    5   25 1    
    11    5   66 1    
    12    6    7 1    
    13    6   67 1    
    14    6   68 1    
    15    7    8 1    
    16    8    9 1    
    17    8   69 1    
    18    8   70 1    
    19    9   10 ar   
    20    9   14 ar   
    21   10   11 ar   
    22   10   71 1    
    23   11   12 ar   
    24   11   61 1    
    25   12   13 ar   
    26   12   72 1    
    27   13   14 ar   
    28   13   15 1    
    29   14   73 1    
    30   15   16 1    
    31   15   74 1    
    32   15   75 1    
    33   16   17 1    
    34   17   18 1    
    35   17   76 1    
    36   17   77 1    
    37   18   19 1    
    38   18   27 1    
    39   18   78 1    
    40   19   20 am   BACKBONE|DICT|INTERRES
    41   19   79 1    
    42   20   21 2    
    43   20   22 1    
    44   22   23 1    
    45   22   24 1    
    46   22   80 1    
    47   23   81 1    
    48   23   82 1    
    49   23   83 1    
    50   24   25 am   BACKBONE|DICT|INTERRES
    51   24   84 1    
    52   25   26 2    
    53   27   28 2    
    54   27   29 am   BACKBONE|DICT|INTERRES
    55   29   30 1    
    56   29   85 1    
    57   30   31 1    
    58   30   32 1    
    59   30   86 1    
    60   31   87 1    
    61   31   88 1    
    62   31   89 1    
    63   32   33 2    
    64   32   34 am   BACKBONE|DICT|INTERRES
    65   34   35 1    
    66   34   90 1    
    67   35   36 1    
    68   35   37 1    
    69   35   91 1    
    70   36   92 1    
    71   36   93 1    
    72   36   94 1    
    73   37   38 2    
    74   37   39 am   BACKBONE|DICT|INTERRES
    75   39   40 1    
    76   39   95 1    
    77   40   41 1    
    78   40   42 1    
    79   40   96 1    
    80   41   97 1    
    81   41   98 1    
    82   41   99 1    
    83   42   43 2    
    84   42   44 am   BACKBONE|DICT|INTERRES
    85   44   45 1    
    86   44  100 1    
    87   45   46 1    
    88   45   47 1    
    89   45  101 1    
    90   46  102 1    
    91   46  103 1    
    92   46  104 1    
    93   47   48 2    
    94   47   49 am   BACKBONE|DICT|INTERRES
    95   49   50 1    
    96   49  105 1    
    97   50   51 1    
    98   50   52 1    
    99   50  106 1    
   100   51  107 1    
   101   51  108 1    
   102   51  109 1    
   103   52   53 2    
   104   52   54 am   BACKBONE|DICT|INTERRES
   105   54   55 1    
   106   54  110 1    
   107   55   56 1    
   108   55   59 1    
   109   55  111 1    
   110   56   57 am   BACKBONE|DICT|INTERRES
   111   56   58 2    
   112   57  112 1    
   113   57  113 1    
   114   59   60 1    
   115   59  114 1    
   116   59  115 1    
   117   60   61 1    
   118   61  116 1    
   119   61  117 1    
@<TRIPOS>SUBSTRUCTURE
     1 UNK         1 GROUP             0       ****    0 ROOT    
