@<TRIPOS>MOLECULE
3R8
117   119    1
SMALL
USER_CHARGES


@<TRIPOS>ATOM
      1 CA         15.4097  -28.1207  -41.0763 C.3       0 UNK        -0.2013 
      2 C          15.4819  -27.0686  -42.1722 C.2       0 UNK         0.4866 
      3 O          15.2644  -25.8879  -41.9009 O.2       0 UNK        -0.5176 
      4 N          15.7895  -27.4842  -43.4081 N.am      1 UNK        -0.4884 
      5 CA         15.8608  -26.6153  -44.5943 C.3       1 UNK         0.0853 
      6 C6         15.4896  -27.3532  -45.9106 C.3       10 UNK        -0.0849 
      7 S7         14.0015  -28.4144  -45.7413 S.3       10 UNK        -0.2776 
      8 C8         14.5694  -30.1051  -46.1568 C.3       10 UNK         0.0316 
      9 C9         15.9933  -30.4043  -45.7047 C.ar      10 UNK        -0.0863 
     10 C10        16.3052  -30.5300  -44.3468 C.ar      10 UNK        -0.1009 
     11 C11        17.6319  -30.7175  -43.9441 C.ar      10 UNK        -0.0712 
     12 C12        18.6361  -30.8344  -44.9093 C.ar      10 UNK        -0.0894 
     13 C13        18.3336  -30.7218  -46.2673 C.ar      10 UNK        -0.0745 
     14 C14        17.0100  -30.5125  -46.6588 C.ar      10 UNK        -0.0972 
     15 C15        19.4318  -30.8003  -47.3153 C.3       10 UNK         0.0209 
     16 S16        20.1570  -29.1611  -47.6367 S.3       10 UNK        -0.2568 
     17 C17        21.5131  -29.1189  -46.4196 C.3       10 UNK        -0.0983 
     18 CA         21.7724  -27.6982  -45.8581 C.3       3 UNK         0.0876 
     19 N          20.6590  -27.2058  -45.0357 N.am      3 UNK        -0.4424 
     20 C          20.4426  -25.9122  -44.7607 C.2       2 UNK         0.4918 
     21 O          21.0207  -24.9900  -45.3415 O.2       2 UNK        -0.4875 
     22 CA         19.4773  -25.6138  -43.6016 C.3       2 UNK         0.0481 
     23 CB         19.3744  -24.1096  -43.2701 C.3       2 UNK        -0.1831 
     24 N          18.1517  -26.2048  -43.7874 N.am      2 UNK        -0.4498 
     25 C          17.2285  -25.9033  -44.7145 C.2       1 UNK         0.5027 
     26 O          17.4065  -25.0933  -45.6252 O.2       1 UNK        -0.4969 
     27 C          23.0648  -27.6427  -45.0122 C.2       3 UNK         0.5005 
     28 O          23.5448  -28.6804  -44.5527 O.2       3 UNK        -0.5279 
     29 N          23.5559  -26.4184  -44.7661 N.am      4 UNK        -0.4463 
     30 CA         24.5567  -26.0579  -43.7561 C.3       4 UNK         0.0283 
     31 CB         25.9286  -26.7099  -44.0506 C.3       4 UNK        -0.1875 
     32 C          24.0075  -26.3210  -42.3371 C.2       4 UNK         0.4949 
     33 O          22.8325  -26.0426  -42.0877 O.2       4 UNK        -0.5039 
     34 N          24.8490  -26.8293  -41.4336 N.am      5 UNK        -0.4663 
     35 CA         24.5007  -27.2176  -40.0703 C.3       5 UNK         0.0242 
     36 CB         24.5304  -25.9851  -39.1474 C.3       5 UNK        -0.1982 
     37 C          25.4997  -28.2821  -39.6053 C.2       5 UNK         0.5017 
     38 O          26.5731  -28.4085  -40.2030 O.2       5 UNK        -0.5012 
     39 N          25.1300  -29.0284  -38.5553 N.am      6 UNK        -0.4439 
     40 CA         25.8690  -30.1144  -37.8883 C.3       6 UNK         0.0297 
     41 CB         27.2178  -29.6279  -37.3224 C.3       6 UNK        -0.2006 
     42 C          26.0463  -31.3817  -38.7452 C.2       6 UNK         0.4892 
     43 O          25.7823  -32.4801  -38.2556 O.2       6 UNK        -0.5089 
     44 N          26.4536  -31.2114  -40.0090 N.am      7 UNK        -0.4243 
     45 CA         26.5164  -32.2587  -41.0318 C.3       7 UNK         0.0196 
     46 CB         27.3342  -31.7416  -42.2263 C.3       7 UNK        -0.2007 
     47 C          25.1227  -32.7224  -41.4953 C.2       7 UNK         0.5020 
     48 O          24.9890  -33.8475  -41.9771 O.2       7 UNK        -0.5147 
     49 N          24.1148  -31.8591  -41.3322 N.am      8 UNK        -0.4734 
     50 CA         22.7042  -32.1211  -41.5862 C.3       8 UNK         0.0238 
     51 CB         22.3746  -31.8437  -43.0640 C.3       8 UNK        -0.1912 
     52 C          21.8735  -31.2267  -40.6580 C.2       8 UNK         0.5038 
     53 O          22.3965  -30.2419  -40.1265 O.2       8 UNK        -0.5046 
     54 N          20.5952  -31.5896  -40.4989 N.am      9 UNK        -0.4200 
     55 CA         19.5718  -30.8778  -39.7105 C.3       9 UNK         0.0839 
     56 C          19.7952  -30.9156  -38.1669 C.2       9 UNK         0.5513 
     57 N          20.6497  -31.7855  -37.6419 N.am      9 UNK        -0.7519 
     58 O          19.1598  -30.1691  -37.4267 O.2       9 UNK        -0.4960 
     59 C59        19.2824  -29.4359  -40.2299 C.3       10 UNK        -0.0876 
     60 S60        18.9190  -29.2478  -42.0149 S.3       10 UNK        -0.2414 
     61 C61        18.0058  -30.7591  -42.4722 C.3       10 UNK         0.0169 
     62 H62        16.2285  -27.9838  -40.3709 H         1 UNK         0.0903 
     63 H63        14.4711  -28.0295  -40.5303 H         1 UNK         0.0903 
     64 H64        15.4670  -29.1316  -41.4763 H         1 UNK         0.0903 
     65 H65        15.9624  -28.4635  -43.5882 H         1 UNK         0.3096 
     66 H66        15.1235  -25.8194  -44.4651 H         1 UNK         0.1121 
     67 H67        16.3377  -27.9240  -46.2850 H         1 UNK         0.0849 
     68 H68        15.2805  -26.6202  -46.6918 H         1 UNK         0.0849 
     69 H69        13.8883  -30.8274  -45.7046 H         1 UNK         0.0865 
     70 H70        14.4763  -30.2427  -47.2353 H         1 UNK         0.0865 
     71 H71        15.5183  -30.4520  -43.6092 H         1 UNK         0.1346 
     72 H72        19.6584  -30.9847  -44.5955 H         1 UNK         0.1412 
     73 H73        16.7771  -30.4054  -47.7098 H         1 UNK         0.1426 
     74 H74        19.0235  -31.1895  -48.2493 H         1 UNK         0.0716 
     75 H75        20.2071  -31.5047  -47.0097 H         1 UNK         0.0716 
     76 H76        22.4043  -29.4967  -46.9246 H         1 UNK         0.0695 
     77 H77        21.3105  -29.8160  -45.6066 H         1 UNK         0.0695 
     78 H78        21.9123  -27.0280  -46.7097 H         1 UNK         0.0983 
     79 H79        20.1497  -27.9031  -44.5126 H         1 UNK         0.3095 
     80 H80        19.9017  -26.1044  -42.7240 H         1 UNK         0.0454 
     81 H81        18.7161  -23.9348  -42.4193 H         1 UNK         0.0851 
     82 H82        18.9969  -23.5296  -44.1126 H         1 UNK         0.0851 
     83 H83        20.3530  -23.7037  -43.0105 H         1 UNK         0.0851 
     84 H84        17.8911  -26.9069  -43.1084 H         1 UNK         0.2976 
     85 H85        23.0174  -25.6394  -45.1309 H         1 UNK         0.3116 
     86 H86        24.6848  -24.9773  -43.8331 H         1 UNK         0.0646 
     87 H87        25.9187  -27.7882  -43.8876 H         1 UNK         0.0847 
     88 H88        26.7101  -26.2881  -43.4176 H         1 UNK         0.0847 
     89 H89        26.2315  -26.5360  -45.0831 H         1 UNK         0.0847 
     90 H90        25.7919  -27.0817  -41.7049 H         1 UNK         0.3040 
     91 H91        23.5012  -27.6599  -40.0681 H         1 UNK         0.1015 
     92 H92        25.5169  -25.5198  -39.1307 H         1 UNK         0.0786 
     93 H93        24.2780  -26.2541  -38.1210 H         1 UNK         0.0786 
     94 H94        23.8108  -25.2314  -39.4678 H         1 UNK         0.0786 
     95 H95        24.2027  -28.8680  -38.1842 H         1 UNK         0.3172 
     96 H96        25.2492  -30.4019  -37.0373 H         1 UNK         0.0595 
     97 H97        27.9149  -29.3380  -38.1090 H         1 UNK         0.0839 
     98 H98        27.6996  -30.4145  -36.7403 H         1 UNK         0.0839 
     99 H99        27.0845  -28.7718  -36.6610 H         1 UNK         0.0839 
    100 H100       26.6546  -30.2584  -40.3033 H         1 UNK         0.2998 
    101 H101       27.0297  -33.1238  -40.6065 H         1 UNK         0.0822 
    102 H102       28.3459  -31.4682  -41.9261 H         1 UNK         0.0787 
    103 H103       27.4213  -32.5058  -43.0000 H         1 UNK         0.0787 
    104 H104       26.8708  -30.8656  -42.6829 H         1 UNK         0.0787 
    105 H105       24.2918  -30.9711  -40.8797 H         1 UNK         0.3055 
    106 H106       22.4862  -33.1650  -41.3486 H         1 UNK         0.1106 
    107 H107       21.3381  -32.0957  -43.2878 H         1 UNK         0.0828 
    108 H108       22.5172  -30.7922  -43.3146 H         1 UNK         0.0828 
    109 H109       23.0013  -32.4345  -43.7320 H         1 UNK         0.0828 
    110 H110       20.2757  -32.4330  -40.9518 H         1 UNK         0.2931 
    111 H111       18.6577  -31.4550  -39.8495 H         1 UNK         0.0412 
    112 H112       21.1709  -32.4128  -38.2326 H         1 UNK         0.3472 
    113 H113       20.7766  -31.8099  -36.6422 H         1 UNK         0.3472 
    114 H114       20.1253  -28.7824  -39.9989 H         1 UNK         0.0970 
    115 H115       18.4326  -29.0143  -39.6909 H         1 UNK         0.0970 
    116 H116       17.1203  -30.8585  -41.8437 H         1 UNK         0.0612 
    117 H117       18.6179  -31.6430  -42.2986 H         1 UNK         0.0612 
@<TRIPOS>BOND
     1    1    2 1    
     2    1   62 1    
     3    1   63 1    
     4    1   64 1    
     5    2    3 2    
     6    2    4 am   BACKBONE|DICT|INTERRES
     7    4    5 1    
     8    4   65 1    
     9    5    6 1    
    10    5   25 1    
    11    5   66 1    
    12    6    7 1    
    13    6   67 1    
    14    6   68 1    
    15    7    8 1    
    16    8    9 1    
    17    8   69 1    
    18    8   70 1    
    19    9   10 ar   
    20    9   14 ar   
    21   10   11 ar   
    22   10   71 1    
    23   11   12 ar   
    24   11   61 1    
    25   12   13 ar   
    26   12   72 1    
    27   13   14 ar   
    28   13   15 1    
    29   14   73 1    
    30   15   16 1    
    31   15   74 1    
    32   15   75 1    
    33   16   17 1    
    34   17   18 1    
    35   17   76 1    
    36   17   77 1    
    37   18   19 1    
    38   18   27 1    
    39   18   78 1    
    40   19   20 am   BACKBONE|DICT|INTERRES
    41   19   79 1    
    42   20   21 2    
    43   20   22 1    
    44   22   23 1    
    45   22   24 1    
    46   22   80 1    
    47   23   81 1    
    48   23   82 1    
    49   23   83 1    
    50   24   25 am   BACKBONE|DICT|INTERRES
    51   24   84 1    
    52   25   26 2    
    53   27   28 2    
    54   27   29 am   BACKBONE|DICT|INTERRES
    55   29   30 1    
    56   29   85 1    
    57   30   31 1    
    58   30   32 1    
    59   30   86 1    
    60   31   87 1    
    61   31   88 1    
    62   31   89 1    
    63   32   33 2    
    64   32   34 am   BACKBONE|DICT|INTERRES
    65   34   35 1    
    66   34   90 1    
    67   35   36 1    
    68   35   37 1    
    69   35   91 1    
    70   36   92 1    
    71   36   93 1    
    72   36   94 1    
    73   37   38 2    
    74   37   39 am   BACKBONE|DICT|INTERRES
    75   39   40 1    
    76   39   95 1    
    77   40   41 1    
    78   40   42 1    
    79   40   96 1    
    80   41   97 1    
    81   41   98 1    
    82   41   99 1    
    83   42   43 2    
    84   42   44 am   BACKBONE|DICT|INTERRES
    85   44   45 1    
    86   44  100 1    
    87   45   46 1    
    88   45   47 1    
    89   45  101 1    
    90   46  102 1    
    91   46  103 1    
    92   46  104 1    
    93   47   48 2    
    94   47   49 am   BACKBONE|DICT|INTERRES
    95   49   50 1    
    96   49  105 1    
    97   50   51 1    
    98   50   52 1    
    99   50  106 1    
   100   51  107 1    
   101   51  108 1    
   102   51  109 1    
   103   52   53 2    
   104   52   54 am   BACKBONE|DICT|INTERRES
   105   54   55 1    
   106   54  110 1    
   107   55   56 1    
   108   55   59 1    
   109   55  111 1    
   110   56   57 am   BACKBONE|DICT|INTERRES
   111   56   58 2    
   112   57  112 1    
   113   57  113 1    
   114   59   60 1    
   115   59  114 1    
   116   59  115 1    
   117   60   61 1    
   118   61  116 1    
   119   61  117 1    
@<TRIPOS>SUBSTRUCTURE
     1 UNK         1 GROUP             0       ****    0 ROOT    
