@<TRIPOS>MOLECULE
3R8
117   119    1
SMALL
USER_CHARGES


@<TRIPOS>ATOM
      1 CA         15.5964  -23.1449  -47.5861 C.3       0 UNK        -0.2013 
      2 C          16.7047  -24.1867  -47.6213 C.2       0 UNK         0.4866 
      3 O          17.1773  -24.5425  -48.7010 O.2       0 UNK        -0.5176 
      4 N          17.1232  -24.6772  -46.4508 N.am      1 UNK        -0.4884 
      5 CA         18.1918  -25.6579  -46.2742 C.3       1 UNK         0.0853 
      6 C6         17.6697  -27.1097  -46.4463 C.3       10 UNK        -0.0849 
      7 S7         18.9555  -28.3056  -46.9498 S.3       10 UNK        -0.2776 
      8 C8         19.5363  -29.0223  -45.3769 C.3       10 UNK         0.0316 
      9 C9         18.5036  -29.8990  -44.6828 C.ar      10 UNK        -0.0863 
     10 C10        18.4789  -31.2782  -44.9063 C.ar      10 UNK        -0.1009 
     11 C11        17.6167  -32.1015  -44.1729 C.ar      10 UNK        -0.0712 
     12 C12        16.7621  -31.5319  -43.2236 C.ar      10 UNK        -0.0894 
     13 C13        16.7642  -30.1511  -43.0054 C.ar      10 UNK        -0.0745 
     14 C14        17.6271  -29.3433  -43.7486 C.ar      10 UNK        -0.0972 
     15 C15        15.8466  -29.5334  -41.9594 C.3       10 UNK         0.0209 
     16 S16        16.7386  -29.1402  -40.4176 S.3       10 UNK        -0.2568 
     17 C17        17.5317  -27.5465  -40.8245 C.3       10 UNK        -0.0983 
     18 CA         19.0453  -27.6953  -41.1337 C.3       3 UNK         0.0876 
     19 N          19.5130  -26.6301  -42.0277 N.am      3 UNK        -0.4424 
     20 C          20.7527  -26.4397  -42.4997 C.2       2 UNK         0.4918 
     21 O          21.7319  -27.1161  -42.1750 O.2       2 UNK        -0.4875 
     22 CA         20.9093  -25.3079  -43.5387 C.3       2 UNK         0.0481 
     23 CB         22.3769  -25.0836  -43.9478 C.3       2 UNK        -0.1831 
     24 N          20.1249  -25.5417  -44.7584 N.am      2 UNK        -0.4498 
     25 C          18.7983  -25.4032  -44.8832 C.2       1 UNK         0.5027 
     26 O          18.0550  -25.0881  -43.9484 O.2       1 UNK        -0.4969 
     27 C          19.8918  -27.8072  -39.8520 C.2       3 UNK         0.5005 
     28 O          19.8004  -26.9358  -38.9847 O.2       3 UNK        -0.5279 
     29 N          20.7348  -28.8492  -39.7953 N.am      4 UNK        -0.4463 
     30 CA         21.7050  -29.1763  -38.7407 C.3       4 UNK         0.0283 
     31 CB         20.9789  -29.5153  -37.4227 C.3       4 UNK        -0.1875 
     32 C          22.8275  -28.1351  -38.5267 C.2       4 UNK         0.4949 
     33 O          23.6440  -28.3171  -37.6224 O.2       4 UNK        -0.5039 
     34 N          22.8711  -27.0790  -39.3498 N.am      5 UNK        -0.4663 
     35 CA         23.9340  -26.0730  -39.3706 C.3       5 UNK         0.0242 
     36 CB         23.3457  -24.7154  -39.7860 C.3       5 UNK        -0.1982 
     37 C          25.0660  -26.5013  -40.3154 C.2       5 UNK         0.5017 
     38 O          26.2335  -26.2413  -40.0211 O.2       5 UNK        -0.5012 
     39 N          24.7004  -27.1793  -41.4116 N.am      6 UNK        -0.4439 
     40 CA         25.6132  -27.9203  -42.2799 C.3       6 UNK         0.0297 
     41 CB         24.9478  -28.0761  -43.6598 C.3       6 UNK        -0.2006 
     42 C          25.9534  -29.2946  -41.6714 C.2       6 UNK         0.4892 
     43 O          25.3825  -29.6858  -40.6513 O.2       6 UNK        -0.5089 
     44 N          26.8498  -30.0310  -42.3426 N.am      7 UNK        -0.4243 
     45 CA         27.1802  -31.4290  -42.0300 C.3       7 UNK         0.0196 
     46 CB         28.4689  -31.8148  -42.7757 C.3       7 UNK        -0.2007 
     47 C          26.0443  -32.4229  -42.3595 C.2       7 UNK         0.5020 
     48 O          26.1067  -33.5764  -41.9324 O.2       7 UNK        -0.5147 
     49 N          25.0429  -31.9667  -43.1226 N.am      8 UNK        -0.4734 
     50 CA         23.8160  -32.6868  -43.4614 C.3       8 UNK         0.0238 
     51 CB         23.1936  -32.0069  -44.6982 C.3       8 UNK        -0.1912 
     52 C          22.8137  -32.7341  -42.2882 C.2       8 UNK         0.5038 
     53 O          23.0927  -32.2424  -41.1921 O.2       8 UNK        -0.5046 
     54 N          21.6473  -33.3262  -42.5630 N.am      9 UNK        -0.4200 
     55 CA         20.4515  -33.3562  -41.7089 C.3       9 UNK         0.0839 
     56 C          19.8738  -31.9545  -41.3456 C.2       9 UNK         0.5513 
     57 N          18.9014  -31.9084  -40.4442 N.am      9 UNK        -0.7519 
     58 O          20.2979  -30.9132  -41.8428 O.2       9 UNK        -0.4960 
     59 C59        19.3784  -34.3386  -42.2764 C.3       10 UNK        -0.0876 
     60 S60        19.2314  -34.3708  -44.1034 S.3       10 UNK        -0.2414 
     61 C61        17.6069  -33.6052  -44.4068 C.3       10 UNK         0.0169 
     62 H62        15.9414  -22.2145  -48.0364 H         1 UNK         0.0903 
     63 H63        14.7328  -23.4968  -48.1498 H         1 UNK         0.0903 
     64 H64        15.2716  -22.9290  -46.5683 H         1 UNK         0.0903 
     65 H65        16.7390  -24.3342  -45.5777 H         1 UNK         0.3096 
     66 H66        18.9613  -25.4570  -47.0237 H         1 UNK         0.1121 
     67 H67        16.9343  -27.1313  -47.2521 H         1 UNK         0.0849 
     68 H68        17.1200  -27.4499  -45.5710 H         1 UNK         0.0849 
     69 H69        20.4308  -29.6133  -45.5805 H         1 UNK         0.0865 
     70 H70        19.8626  -28.2339  -44.7017 H         1 UNK         0.0865 
     71 H71        19.1552  -31.7184  -45.6262 H         1 UNK         0.1346 
     72 H72        16.1010  -32.1640  -42.6467 H         1 UNK         0.1412 
     73 H73        17.6450  -28.2793  -43.5690 H         1 UNK         0.1426 
     74 H74        15.0370  -30.2245  -41.7201 H         1 UNK         0.0716 
     75 H75        15.3669  -28.6387  -42.3586 H         1 UNK         0.0716 
     76 H76        17.3582  -26.8483  -40.0035 H         1 UNK         0.0695 
     77 H77        17.0073  -27.1098  -41.6753 H         1 UNK         0.0695 
     78 H78        19.1848  -28.6170  -41.6972 H         1 UNK         0.0983 
     79 H79        18.7970  -26.0067  -42.3872 H         1 UNK         0.3095 
     80 H80        20.5541  -24.3893  -43.0671 H         1 UNK         0.0454 
     81 H81        22.7745  -25.9418  -44.4891 H         1 UNK         0.0851 
     82 H82        23.0167  -24.9201  -43.0810 H         1 UNK         0.0851 
     83 H83        22.4794  -24.2083  -44.5893 H         1 UNK         0.0851 
     84 H84        20.6531  -25.8297  -45.5702 H         1 UNK         0.2976 
     85 H85        20.7353  -29.4930  -40.5851 H         1 UNK         0.3116 
     86 H86        22.2073  -30.0831  -39.0822 H         1 UNK         0.0646 
     87 H87        20.4894  -28.6409  -36.9931 H         1 UNK         0.0847 
     88 H88        21.6777  -29.8942  -36.6761 H         1 UNK         0.0847 
     89 H89        20.2217  -30.2846  -37.5742 H         1 UNK         0.0847 
     90 H90        22.1715  -27.0219  -40.0795 H         1 UNK         0.3040 
     91 H91        24.3585  -25.9672  -38.3696 H         1 UNK         0.1015 
     92 H92        22.8665  -24.7605  -40.7629 H         1 UNK         0.0786 
     93 H93        24.1228  -23.9513  -39.8357 H         1 UNK         0.0786 
     94 H94        22.6008  -24.3740  -39.0668 H         1 UNK         0.0786 
     95 H95        23.7112  -27.3482  -41.5568 H         1 UNK         0.3172 
     96 H96        26.5419  -27.3577  -42.3966 H         1 UNK         0.0595 
     97 H97        25.5776  -28.6321  -44.3549 H         1 UNK         0.0839 
     98 H98        24.7680  -27.1027  -44.1143 H         1 UNK         0.0839 
     99 H99        23.9909  -28.5962  -43.5926 H         1 UNK         0.0839 
    100 H100       27.2898  -29.6365  -43.1622 H         1 UNK         0.2998 
    101 H101       27.3699  -31.5025  -40.9568 H         1 UNK         0.0822 
    102 H102       28.7674  -32.8367  -42.5370 H         1 UNK         0.0787 
    103 H103       28.3421  -31.7574  -43.8575 H         1 UNK         0.0787 
    104 H104       29.2989  -31.1647  -42.4980 H         1 UNK         0.0787 
    105 H105       25.0761  -30.9958  -43.3912 H         1 UNK         0.3055 
    106 H106       24.0791  -33.7160  -43.7162 H         1 UNK         0.1106 
    107 H107       22.3459  -32.5728  -45.0862 H         1 UNK         0.0828 
    108 H108       22.8342  -31.0030  -44.4668 H         1 UNK         0.0828 
    109 H109       23.9143  -31.9251  -45.5121 H         1 UNK         0.0828 
    110 H110       21.4954  -33.6844  -43.4943 H         1 UNK         0.2931 
    111 H111       20.7880  -33.7686  -40.7557 H         1 UNK         0.0412 
    112 H112       18.4826  -31.0192  -40.2209 H         1 UNK         0.3472 
    113 H113       18.5565  -32.7456  -40.0030 H         1 UNK         0.3472 
    114 H114       18.3959  -34.1738  -41.8313 H         1 UNK         0.0970 
    115 H115       19.6502  -35.3517  -41.9764 H         1 UNK         0.0970 
    116 H116       16.8553  -34.0988  -43.7888 H         1 UNK         0.0612 
    117 H117       17.3230  -33.7932  -45.4430 H         1 UNK         0.0612 
@<TRIPOS>BOND
     1    1    2 1    
     2    1   62 1    
     3    1   63 1    
     4    1   64 1    
     5    2    3 2    
     6    2    4 am   BACKBONE|DICT|INTERRES
     7    4    5 1    
     8    4   65 1    
     9    5    6 1    
    10    5   25 1    
    11    5   66 1    
    12    6    7 1    
    13    6   67 1    
    14    6   68 1    
    15    7    8 1    
    16    8    9 1    
    17    8   69 1    
    18    8   70 1    
    19    9   10 ar   
    20    9   14 ar   
    21   10   11 ar   
    22   10   71 1    
    23   11   12 ar   
    24   11   61 1    
    25   12   13 ar   
    26   12   72 1    
    27   13   14 ar   
    28   13   15 1    
    29   14   73 1    
    30   15   16 1    
    31   15   74 1    
    32   15   75 1    
    33   16   17 1    
    34   17   18 1    
    35   17   76 1    
    36   17   77 1    
    37   18   19 1    
    38   18   27 1    
    39   18   78 1    
    40   19   20 am   BACKBONE|DICT|INTERRES
    41   19   79 1    
    42   20   21 2    
    43   20   22 1    
    44   22   23 1    
    45   22   24 1    
    46   22   80 1    
    47   23   81 1    
    48   23   82 1    
    49   23   83 1    
    50   24   25 am   BACKBONE|DICT|INTERRES
    51   24   84 1    
    52   25   26 2    
    53   27   28 2    
    54   27   29 am   BACKBONE|DICT|INTERRES
    55   29   30 1    
    56   29   85 1    
    57   30   31 1    
    58   30   32 1    
    59   30   86 1    
    60   31   87 1    
    61   31   88 1    
    62   31   89 1    
    63   32   33 2    
    64   32   34 am   BACKBONE|DICT|INTERRES
    65   34   35 1    
    66   34   90 1    
    67   35   36 1    
    68   35   37 1    
    69   35   91 1    
    70   36   92 1    
    71   36   93 1    
    72   36   94 1    
    73   37   38 2    
    74   37   39 am   BACKBONE|DICT|INTERRES
    75   39   40 1    
    76   39   95 1    
    77   40   41 1    
    78   40   42 1    
    79   40   96 1    
    80   41   97 1    
    81   41   98 1    
    82   41   99 1    
    83   42   43 2    
    84   42   44 am   BACKBONE|DICT|INTERRES
    85   44   45 1    
    86   44  100 1    
    87   45   46 1    
    88   45   47 1    
    89   45  101 1    
    90   46  102 1    
    91   46  103 1    
    92   46  104 1    
    93   47   48 2    
    94   47   49 am   BACKBONE|DICT|INTERRES
    95   49   50 1    
    96   49  105 1    
    97   50   51 1    
    98   50   52 1    
    99   50  106 1    
   100   51  107 1    
   101   51  108 1    
   102   51  109 1    
   103   52   53 2    
   104   52   54 am   BACKBONE|DICT|INTERRES
   105   54   55 1    
   106   54  110 1    
   107   55   56 1    
   108   55   59 1    
   109   55  111 1    
   110   56   57 am   BACKBONE|DICT|INTERRES
   111   56   58 2    
   112   57  112 1    
   113   57  113 1    
   114   59   60 1    
   115   59  114 1    
   116   59  115 1    
   117   60   61 1    
   118   61  116 1    
   119   61  117 1    
@<TRIPOS>SUBSTRUCTURE
     1 UNK         1 GROUP             0       ****    0 ROOT    
