@<TRIPOS>MOLECULE
3R8
117   119    1
SMALL
USER_CHARGES


@<TRIPOS>ATOM
      1 CA         12.5694  -24.1537  -45.3905 C.3       0 UNK        -0.2013 
      2 C          14.0776  -24.1589  -45.5918 C.2       0 UNK         0.4866 
      3 O          14.6936  -23.0931  -45.6151 O.2       0 UNK        -0.5176 
      4 N          14.6679  -25.3495  -45.7494 N.am      1 UNK        -0.4884 
      5 CA         16.1082  -25.5762  -45.8872 C.3       1 UNK         0.0853 
      6 C6         16.4105  -26.7445  -46.8678 C.3       10 UNK        -0.0849 
      7 S7         15.5375  -28.3138  -46.4990 S.3       10 UNK        -0.2776 
      8 C8         16.7092  -29.5588  -47.1239 C.3       10 UNK         0.0316 
      9 C9         17.9608  -29.6729  -46.2630 C.ar      10 UNK        -0.0863 
     10 C10        17.9468  -30.4337  -45.0899 C.ar      10 UNK        -0.1009 
     11 C11        19.1143  -30.5996  -44.3365 C.ar      10 UNK        -0.0712 
     12 C12        20.2989  -29.9864  -44.7562 C.ar      10 UNK        -0.0894 
     13 C13        20.3183  -29.2060  -45.9167 C.ar      10 UNK        -0.0745 
     14 C14        19.1495  -29.0598  -46.6675 C.ar      10 UNK        -0.0972 
     15 C15        21.6017  -28.5422  -46.3906 C.3       10 UNK         0.0209 
     16 S16        21.7330  -26.8263  -45.7978 S.3       10 UNK        -0.2568 
     17 C17        22.2872  -27.0699  -44.0783 C.3       10 UNK        -0.0983 
     18 CA         21.3017  -26.4943  -43.0337 C.3       3 UNK         0.0876 
     19 N          19.9523  -27.0630  -43.1495 N.am      3 UNK        -0.4424 
     20 C          18.8931  -26.7032  -42.4107 C.2       2 UNK         0.4918 
     21 O          18.9312  -25.8606  -41.5122 O.2       2 UNK        -0.4875 
     22 CA         17.5600  -27.3827  -42.7717 C.3       2 UNK         0.0481 
     23 CB         16.4862  -27.2094  -41.6782 C.3       2 UNK        -0.1831 
     24 N          17.0409  -26.9571  -44.0743 N.am      2 UNK        -0.4498 
     25 C          16.7390  -25.7158  -44.4835 C.2       1 UNK         0.5027 
     26 O          16.9119  -24.7044  -43.8017 O.2       1 UNK        -0.4969 
     27 C          21.9010  -26.6397  -41.6209 C.2       3 UNK         0.5005 
     28 O          22.4190  -25.6585  -41.0842 O.2       3 UNK        -0.5279 
     29 N          21.8227  -27.8558  -41.0570 N.am      4 UNK        -0.4463 
     30 CA         22.2845  -28.2949  -39.7309 C.3       4 UNK         0.0283 
     31 CB         21.5371  -27.5561  -38.6053 C.3       4 UNK        -0.1875 
     32 C          23.8101  -28.2449  -39.5120 C.2       4 UNK         0.4949 
     33 O          24.3658  -29.1896  -38.9526 O.2       4 UNK        -0.5039 
     34 N          24.4675  -27.1647  -39.9462 N.am      5 UNK        -0.4663 
     35 CA         25.9210  -27.0176  -39.9693 C.3       5 UNK         0.0242 
     36 CB         26.2780  -25.5345  -40.1577 C.3       5 UNK        -0.1982 
     37 C          26.5091  -27.8718  -41.1017 C.2       5 UNK         0.5017 
     38 O          26.0836  -27.7190  -42.2499 O.2       5 UNK        -0.5012 
     39 N          27.4558  -28.7565  -40.7562 N.am      6 UNK        -0.4439 
     40 CA         28.1221  -29.7624  -41.5991 C.3       6 UNK         0.0297 
     41 CB         28.9143  -29.1165  -42.7537 C.3       6 UNK        -0.2006 
     42 C          27.1700  -30.8619  -42.1052 C.2       6 UNK         0.4892 
     43 O          27.3814  -32.0364  -41.8003 O.2       6 UNK        -0.5089 
     44 N          26.1237  -30.4623  -42.8353 N.am      7 UNK        -0.4243 
     45 CA         25.0098  -31.3025  -43.2639 C.3       7 UNK         0.0196 
     46 CB         24.4058  -30.7079  -44.5474 C.3       7 UNK        -0.2007 
     47 C          23.9885  -31.4036  -42.1199 C.2       7 UNK         0.5020 
     48 O          22.9611  -30.7231  -42.1440 O.2       7 UNK        -0.5147 
     49 N          24.3293  -32.2164  -41.1118 N.am      8 UNK        -0.4734 
     50 CA         23.5303  -32.4595  -39.9111 C.3       8 UNK         0.0238 
     51 CB         24.3546  -33.2841  -38.9088 C.3       8 UNK        -0.1912 
     52 C          22.2037  -33.1567  -40.2471 C.2       8 UNK         0.5038 
     53 O          22.2193  -34.2842  -40.7470 O.2       8 UNK        -0.5046 
     54 N          21.0933  -32.4644  -39.9797 N.am      9 UNK        -0.4200 
     55 CA         19.7287  -32.9442  -40.2188 C.3       9 UNK         0.0839 
     56 C          19.2715  -33.9731  -39.1510 C.2       9 UNK         0.5513 
     57 N          18.3807  -34.8857  -39.5136 N.am      9 UNK        -0.7519 
     58 O          19.6839  -33.9290  -37.9934 O.2       9 UNK        -0.4960 
     59 C59        18.7269  -31.7642  -40.3245 C.3       10 UNK        -0.0876 
     60 S60        19.1981  -30.5060  -41.5630 S.3       10 UNK        -0.2414 
     61 C61        19.1068  -31.4804  -43.0964 C.3       10 UNK         0.0169 
     62 H62        12.0876  -23.5746  -46.1778 H         1 UNK         0.0903 
     63 H63        12.1514  -25.1601  -45.4063 H         1 UNK         0.0903 
     64 H64        12.3208  -23.6987  -44.4320 H         1 UNK         0.0903 
     65 H65        14.1094  -26.1917  -45.7155 H         1 UNK         0.3096 
     66 H66        16.5627  -24.6832  -46.3233 H         1 UNK         0.1121 
     67 H67        16.1177  -26.4445  -47.8753 H         1 UNK         0.0849 
     68 H68        17.4865  -26.9075  -46.9234 H         1 UNK         0.0849 
     69 H69        16.2061  -30.5264  -47.1567 H         1 UNK         0.0865 
     70 H70        16.9704  -29.3235  -48.1570 H         1 UNK         0.0865 
     71 H71        17.0307  -30.9167  -44.7776 H         1 UNK         0.1346 
     72 H72        21.2035  -30.1277  -44.1797 H         1 UNK         0.1412 
     73 H73        19.1725  -28.4775  -47.5788 H         1 UNK         0.1426 
     74 H74        21.6264  -28.5338  -47.4814 H         1 UNK         0.0716 
     75 H75        22.4743  -29.1163  -46.0797 H         1 UNK         0.0716 
     76 H76        23.2636  -26.5898  -43.9830 H         1 UNK         0.0695 
     77 H77        22.4592  -28.1300  -43.8915 H         1 UNK         0.0695 
     78 H78        21.2020  -25.4233  -43.2237 H         1 UNK         0.0983 
     79 H79        19.8216  -27.7433  -43.8858 H         1 UNK         0.3095 
     80 H80        17.7557  -28.4488  -42.8658 H         1 UNK         0.0454 
     81 H81        16.8453  -27.5871  -40.7201 H         1 UNK         0.0851 
     82 H82        15.5787  -27.7605  -41.9239 H         1 UNK         0.0851 
     83 H83        16.2147  -26.1630  -41.5347 H         1 UNK         0.0851 
     84 H84        16.8500  -27.7063  -44.7297 H         1 UNK         0.2976 
     85 H85        21.4242  -28.5967  -41.6198 H         1 UNK         0.3116 
     86 H86        22.0010  -29.3462  -39.6700 H         1 UNK         0.0646 
     87 H87        21.8104  -27.9570  -37.6284 H         1 UNK         0.0847 
     88 H88        20.4574  -27.6639  -38.7105 H         1 UNK         0.0847 
     89 H89        21.7672  -26.4904  -38.5934 H         1 UNK         0.0847 
     90 H90        23.9163  -26.4414  -40.4039 H         1 UNK         0.3040 
     91 H91        26.3219  -27.3517  -39.0096 H         1 UNK         0.1015 
     92 H92        25.8819  -24.9254  -39.3449 H         1 UNK         0.0786 
     93 H93        25.8825  -25.1397  -41.0948 H         1 UNK         0.0786 
     94 H94        27.3594  -25.3923  -40.1734 H         1 UNK         0.0786 
     95 H95        27.6998  -28.8088  -39.7762 H         1 UNK         0.3172 
     96 H96        28.8478  -30.2541  -40.9490 H         1 UNK         0.0595 
     97 H97        28.2681  -28.6011  -43.4646 H         1 UNK         0.0839 
     98 H98        29.4684  -29.8718  -43.3125 H         1 UNK         0.0839 
     99 H99        29.6401  -28.3946  -42.3795 H         1 UNK         0.0839 
    100 H100       26.0019  -29.4576  -42.9394 H         1 UNK         0.2998 
    101 H101       25.3687  -32.3083  -43.4933 H         1 UNK         0.0822 
    102 H102       24.1168  -29.6671  -44.4061 H         1 UNK         0.0787 
    103 H103       25.1178  -30.7452  -45.3719 H         1 UNK         0.0787 
    104 H104       23.5183  -31.2612  -44.8575 H         1 UNK         0.0787 
    105 H105       25.2153  -32.7011  -41.1742 H         1 UNK         0.3055 
    106 H106       23.3138  -31.4941  -39.4526 H         1 UNK         0.1106 
    107 H107       24.6434  -34.2520  -39.3205 H         1 UNK         0.0828 
    108 H108       25.2633  -32.7577  -38.6160 H         1 UNK         0.0828 
    109 H109       23.7836  -33.4742  -37.9988 H         1 UNK         0.0828 
    110 H110       21.1680  -31.5462  -39.5712 H         1 UNK         0.2931 
    111 H111       19.7319  -33.4655  -41.1778 H         1 UNK         0.0412 
    112 H112       18.0299  -34.9283  -40.4581 H         1 UNK         0.3472 
    113 H113       18.0592  -35.5548  -38.8309 H         1 UNK         0.3472 
    114 H114       17.7290  -32.1304  -40.5731 H         1 UNK         0.0970 
    115 H115       18.6290  -31.2618  -39.3602 H         1 UNK         0.0970 
    116 H116       18.2100  -32.1014  -43.0778 H         1 UNK         0.0612 
    117 H117       19.9576  -32.1619  -43.1379 H         1 UNK         0.0612 
@<TRIPOS>BOND
     1    1    2 1    
     2    1   62 1    
     3    1   63 1    
     4    1   64 1    
     5    2    3 2    
     6    2    4 am   BACKBONE|DICT|INTERRES
     7    4    5 1    
     8    4   65 1    
     9    5    6 1    
    10    5   25 1    
    11    5   66 1    
    12    6    7 1    
    13    6   67 1    
    14    6   68 1    
    15    7    8 1    
    16    8    9 1    
    17    8   69 1    
    18    8   70 1    
    19    9   10 ar   
    20    9   14 ar   
    21   10   11 ar   
    22   10   71 1    
    23   11   12 ar   
    24   11   61 1    
    25   12   13 ar   
    26   12   72 1    
    27   13   14 ar   
    28   13   15 1    
    29   14   73 1    
    30   15   16 1    
    31   15   74 1    
    32   15   75 1    
    33   16   17 1    
    34   17   18 1    
    35   17   76 1    
    36   17   77 1    
    37   18   19 1    
    38   18   27 1    
    39   18   78 1    
    40   19   20 am   BACKBONE|DICT|INTERRES
    41   19   79 1    
    42   20   21 2    
    43   20   22 1    
    44   22   23 1    
    45   22   24 1    
    46   22   80 1    
    47   23   81 1    
    48   23   82 1    
    49   23   83 1    
    50   24   25 am   BACKBONE|DICT|INTERRES
    51   24   84 1    
    52   25   26 2    
    53   27   28 2    
    54   27   29 am   BACKBONE|DICT|INTERRES
    55   29   30 1    
    56   29   85 1    
    57   30   31 1    
    58   30   32 1    
    59   30   86 1    
    60   31   87 1    
    61   31   88 1    
    62   31   89 1    
    63   32   33 2    
    64   32   34 am   BACKBONE|DICT|INTERRES
    65   34   35 1    
    66   34   90 1    
    67   35   36 1    
    68   35   37 1    
    69   35   91 1    
    70   36   92 1    
    71   36   93 1    
    72   36   94 1    
    73   37   38 2    
    74   37   39 am   BACKBONE|DICT|INTERRES
    75   39   40 1    
    76   39   95 1    
    77   40   41 1    
    78   40   42 1    
    79   40   96 1    
    80   41   97 1    
    81   41   98 1    
    82   41   99 1    
    83   42   43 2    
    84   42   44 am   BACKBONE|DICT|INTERRES
    85   44   45 1    
    86   44  100 1    
    87   45   46 1    
    88   45   47 1    
    89   45  101 1    
    90   46  102 1    
    91   46  103 1    
    92   46  104 1    
    93   47   48 2    
    94   47   49 am   BACKBONE|DICT|INTERRES
    95   49   50 1    
    96   49  105 1    
    97   50   51 1    
    98   50   52 1    
    99   50  106 1    
   100   51  107 1    
   101   51  108 1    
   102   51  109 1    
   103   52   53 2    
   104   52   54 am   BACKBONE|DICT|INTERRES
   105   54   55 1    
   106   54  110 1    
   107   55   56 1    
   108   55   59 1    
   109   55  111 1    
   110   56   57 am   BACKBONE|DICT|INTERRES
   111   56   58 2    
   112   57  112 1    
   113   57  113 1    
   114   59   60 1    
   115   59  114 1    
   116   59  115 1    
   117   60   61 1    
   118   61  116 1    
   119   61  117 1    
@<TRIPOS>SUBSTRUCTURE
     1 UNK         1 GROUP             0       ****    0 ROOT    
