@<TRIPOS>MOLECULE
3R8
117   119    1
SMALL
USER_CHARGES


@<TRIPOS>ATOM
      1 CA         15.1471  -21.8586  -44.1300 C.3       0 UNK        -0.2013 
      2 C          16.0515  -22.5567  -45.1346 C.2       0 UNK         0.4866 
      3 O          16.7227  -21.8868  -45.9195 O.2       0 UNK        -0.5176 
      4 N          16.0651  -23.8963  -45.1177 N.am      1 UNK        -0.4884 
      5 CA         16.9151  -24.7509  -45.9577 C.3       1 UNK         0.0853 
      6 C6         16.5192  -26.2487  -45.8654 C.3       10 UNK        -0.0849 
      7 S7         16.8328  -27.1805  -47.4034 S.3       10 UNK        -0.2776 
      8 C8         18.4527  -27.9670  -47.0733 C.3       10 UNK         0.0316 
      9 C9         18.4450  -29.2021  -46.1668 C.ar      10 UNK        -0.0863 
     10 C10        19.5661  -30.0391  -46.1824 C.ar      10 UNK        -0.1009 
     11 C11        19.6376  -31.1632  -45.3546 C.ar      10 UNK        -0.0712 
     12 C12        18.5826  -31.4419  -44.4809 C.ar      10 UNK        -0.0894 
     13 C13        17.4597  -30.6119  -44.4416 C.ar      10 UNK        -0.0745 
     14 C14        17.3856  -29.5149  -45.3049 C.ar      10 UNK        -0.0972 
     15 C15        16.3241  -30.8935  -43.4665 C.3       10 UNK         0.0209 
     16 S16        16.0030  -29.4798  -42.3587 S.3       10 UNK        -0.2568 
     17 C17        17.4660  -29.4935  -41.2648 C.3       10 UNK        -0.0983 
     18 CA         18.6437  -28.6171  -41.7672 C.3       3 UNK         0.0876 
     19 N          18.2196  -27.2682  -42.1721 N.am      3 UNK        -0.4424 
     20 C          18.9883  -26.4126  -42.8570 C.2       2 UNK         0.4918 
     21 O          20.1628  -26.6370  -43.1514 O.2       2 UNK        -0.4875 
     22 CA         18.3544  -25.0691  -43.2383 C.3       2 UNK         0.0481 
     23 CB         18.6183  -24.0294  -42.1379 C.3       2 UNK        -0.1831 
     24 N          18.9593  -24.5986  -44.4869 N.am      2 UNK        -0.4498 
     25 C          18.4308  -24.5273  -45.7201 C.2       1 UNK         0.5027 
     26 O          19.1389  -24.2599  -46.6900 O.2       1 UNK        -0.4969 
     27 C          19.7847  -28.6050  -40.7246 C.2       3 UNK         0.5005 
     28 O          20.5191  -29.5838  -40.6212 O.2       3 UNK        -0.5279 
     29 N          19.9282  -27.5004  -39.9795 N.am      4 UNK        -0.4463 
     30 CA         20.9840  -27.2881  -38.9864 C.3       4 UNK         0.0283 
     31 CB         20.4808  -26.2681  -37.9499 C.3       4 UNK        -0.1875 
     32 C          22.3267  -26.8266  -39.5900 C.2       4 UNK         0.4949 
     33 O          23.2874  -26.6690  -38.8364 O.2       4 UNK        -0.5039 
     34 N          22.3843  -26.5814  -40.9088 N.am      5 UNK        -0.4663 
     35 CA         23.5465  -26.0030  -41.5953 C.3       5 UNK         0.0242 
     36 CB         23.1219  -25.5199  -42.9918 C.3       5 UNK        -0.1982 
     37 C          24.7751  -26.9263  -41.7028 C.2       5 UNK         0.5017 
     38 O          25.8616  -26.4240  -41.9952 O.2       5 UNK        -0.5012 
     39 N          24.6051  -28.2356  -41.4836 N.am      6 UNK        -0.4439 
     40 CA         25.6750  -29.2287  -41.5297 C.3       6 UNK         0.0297 
     41 CB         25.8140  -29.7779  -42.9609 C.3       6 UNK        -0.2006 
     42 C          25.3645  -30.3579  -40.5467 C.2       6 UNK         0.4892 
     43 O          24.1946  -30.6979  -40.3586 O.2       6 UNK        -0.5089 
     44 N          26.4208  -30.9618  -39.9864 N.am      7 UNK        -0.4243 
     45 CA         26.3409  -32.1090  -39.0741 C.3       7 UNK         0.0196 
     46 CB         27.7237  -32.3607  -38.4513 C.3       7 UNK        -0.2007 
     47 C          25.8098  -33.3901  -39.7429 C.2       7 UNK         0.5020 
     48 O          25.2276  -34.2309  -39.0583 O.2       7 UNK        -0.5147 
     49 N          26.0015  -33.5087  -41.0647 N.am      8 UNK        -0.4734 
     50 CA         25.4367  -34.5778  -41.8924 C.3       8 UNK         0.0238 
     51 CB         26.1561  -34.6017  -43.2510 C.3       8 UNK        -0.1912 
     52 C          23.9167  -34.4367  -42.0920 C.2       8 UNK         0.5038 
     53 O          23.2360  -35.4520  -42.2431 O.2       8 UNK        -0.5046 
     54 N          23.4200  -33.1931  -42.0910 N.am      9 UNK        -0.4200 
     55 CA         21.9905  -32.8665  -42.1578 C.3       9 UNK         0.0839 
     56 C          21.3060  -32.9513  -40.7680 C.2       9 UNK         0.5513 
     57 N          21.9628  -32.5257  -39.6959 N.am      9 UNK        -0.7519 
     58 O          20.1775  -33.4247  -40.6632 O.2       9 UNK        -0.4960 
     59 C59        21.7442  -31.4844  -42.8110 C.3       10 UNK        -0.0876 
     60 S60        22.2950  -31.4058  -44.5467 S.3       10 UNK        -0.2414 
     61 C61        20.8483  -32.0845  -45.4202 C.3       10 UNK         0.0169 
     62 H62        14.4171  -21.2386  -44.6497 H         1 UNK         0.0903 
     63 H63        14.6053  -22.5679  -43.5046 H         1 UNK         0.0903 
     64 H64        15.7379  -21.2155  -43.4783 H         1 UNK         0.0903 
     65 H65        15.4729  -24.3790  -44.4574 H         1 UNK         0.3096 
     66 H66        16.7167  -24.4251  -46.9818 H         1 UNK         0.1121 
     67 H67        15.4478  -26.3367  -45.6775 H         1 UNK         0.0849 
     68 H68        17.0009  -26.7435  -45.0241 H         1 UNK         0.0849 
     69 H69        18.8739  -28.2485  -48.0398 H         1 UNK         0.0865 
     70 H70        19.1361  -27.2290  -46.6523 H         1 UNK         0.0865 
     71 H71        20.3934  -29.8170  -46.8431 H         1 UNK         0.1346 
     72 H72        18.6389  -32.3032  -43.8289 H         1 UNK         0.1412 
     73 H73        16.4976  -28.9027  -45.2733 H         1 UNK         0.1426 
     74 H74        16.5266  -31.7828  -42.8675 H         1 UNK         0.0716 
     75 H75        15.4183  -31.1055  -44.0360 H         1 UNK         0.0716 
     76 H76        17.1335  -29.1509  -40.2830 H         1 UNK         0.0695 
     77 H77        17.7939  -30.5260  -41.1268 H         1 UNK         0.0695 
     78 H78        19.0564  -29.0956  -42.6581 H         1 UNK         0.0983 
     79 H79        17.2619  -27.0262  -41.9614 H         1 UNK         0.3095 
     80 H80        17.2796  -25.2108  -43.3234 H         1 UNK         0.0454 
     81 H81        18.1706  -24.3341  -41.1912 H         1 UNK         0.0851 
     82 H82        19.6855  -23.8840  -41.9632 H         1 UNK         0.0851 
     83 H83        18.1893  -23.0620  -42.3997 H         1 UNK         0.0851 
     84 H84        19.9600  -24.4785  -44.4228 H         1 UNK         0.2976 
     85 H85        19.2793  -26.7408  -40.1236 H         1 UNK         0.3116 
     86 H86        21.1731  -28.2306  -38.4676 H         1 UNK         0.0646 
     87 H87        21.2147  -26.1202  -37.1563 H         1 UNK         0.0847 
     88 H88        19.5602  -26.6058  -37.4738 H         1 UNK         0.0847 
     89 H89        20.2898  -25.2935  -38.4008 H         1 UNK         0.0847 
     90 H90        21.5623  -26.7466  -41.4780 H         1 UNK         0.3040 
     91 H91        23.8645  -25.1289  -41.0224 H         1 UNK         0.1015 
     92 H92        22.3010  -24.8051  -42.9335 H         1 UNK         0.0786 
     93 H93        22.8033  -26.3500  -43.6238 H         1 UNK         0.0786 
     94 H94        23.9469  -25.0213  -43.5026 H         1 UNK         0.0786 
     95 H95        23.7006  -28.5817  -41.1878 H         1 UNK         0.3172 
     96 H96        26.6170  -28.7657  -41.2275 H         1 UNK         0.0595 
     97 H97        26.0628  -28.9851  -43.6666 H         1 UNK         0.0839 
     98 H98        24.8918  -30.2491  -43.3028 H         1 UNK         0.0839 
     99 H99        26.6069  -30.5240  -43.0235 H         1 UNK         0.0839 
    100 H100       27.3473  -30.6215  -40.2030 H         1 UNK         0.2998 
    101 H101       25.6454  -31.8499  -38.2726 H         1 UNK         0.0822 
    102 H102       28.0764  -31.4882  -37.9008 H         1 UNK         0.0787 
    103 H103       27.6883  -33.1929  -37.7466 H         1 UNK         0.0787 
    104 H104       28.4698  -32.6064  -39.2081 H         1 UNK         0.0787 
    105 H105       26.5213  -32.7853  -41.5393 H         1 UNK         0.3055 
    106 H106       25.6143  -35.5323  -41.3911 H         1 UNK         0.1106 
    107 H107       26.0198  -33.6684  -43.7989 H         1 UNK         0.0828 
    108 H108       27.2266  -34.7694  -43.1312 H         1 UNK         0.0828 
    109 H109       25.7727  -35.4065  -43.8800 H         1 UNK         0.0828 
    110 H110       24.0390  -32.4203  -41.8963 H         1 UNK         0.2931 
    111 H111       21.5014  -33.6104  -42.7899 H         1 UNK         0.0412 
    112 H112       21.5229  -32.5783  -38.7919 H         1 UNK         0.3472 
    113 H113       22.8418  -32.0319  -39.8067 H         1 UNK         0.3472 
    114 H114       22.2733  -30.7071  -42.2580 H         1 UNK         0.0970 
    115 H115       20.6904  -31.2126  -42.7577 H         1 UNK         0.0970 
    116 H116       20.6080  -33.0681  -45.0142 H         1 UNK         0.0612 
    117 H117       21.1186  -32.2476  -46.4644 H         1 UNK         0.0612 
@<TRIPOS>BOND
     1    1    2 1    
     2    1   62 1    
     3    1   63 1    
     4    1   64 1    
     5    2    3 2    
     6    2    4 am   BACKBONE|DICT|INTERRES
     7    4    5 1    
     8    4   65 1    
     9    5    6 1    
    10    5   25 1    
    11    5   66 1    
    12    6    7 1    
    13    6   67 1    
    14    6   68 1    
    15    7    8 1    
    16    8    9 1    
    17    8   69 1    
    18    8   70 1    
    19    9   10 ar   
    20    9   14 ar   
    21   10   11 ar   
    22   10   71 1    
    23   11   12 ar   
    24   11   61 1    
    25   12   13 ar   
    26   12   72 1    
    27   13   14 ar   
    28   13   15 1    
    29   14   73 1    
    30   15   16 1    
    31   15   74 1    
    32   15   75 1    
    33   16   17 1    
    34   17   18 1    
    35   17   76 1    
    36   17   77 1    
    37   18   19 1    
    38   18   27 1    
    39   18   78 1    
    40   19   20 am   BACKBONE|DICT|INTERRES
    41   19   79 1    
    42   20   21 2    
    43   20   22 1    
    44   22   23 1    
    45   22   24 1    
    46   22   80 1    
    47   23   81 1    
    48   23   82 1    
    49   23   83 1    
    50   24   25 am   BACKBONE|DICT|INTERRES
    51   24   84 1    
    52   25   26 2    
    53   27   28 2    
    54   27   29 am   BACKBONE|DICT|INTERRES
    55   29   30 1    
    56   29   85 1    
    57   30   31 1    
    58   30   32 1    
    59   30   86 1    
    60   31   87 1    
    61   31   88 1    
    62   31   89 1    
    63   32   33 2    
    64   32   34 am   BACKBONE|DICT|INTERRES
    65   34   35 1    
    66   34   90 1    
    67   35   36 1    
    68   35   37 1    
    69   35   91 1    
    70   36   92 1    
    71   36   93 1    
    72   36   94 1    
    73   37   38 2    
    74   37   39 am   BACKBONE|DICT|INTERRES
    75   39   40 1    
    76   39   95 1    
    77   40   41 1    
    78   40   42 1    
    79   40   96 1    
    80   41   97 1    
    81   41   98 1    
    82   41   99 1    
    83   42   43 2    
    84   42   44 am   BACKBONE|DICT|INTERRES
    85   44   45 1    
    86   44  100 1    
    87   45   46 1    
    88   45   47 1    
    89   45  101 1    
    90   46  102 1    
    91   46  103 1    
    92   46  104 1    
    93   47   48 2    
    94   47   49 am   BACKBONE|DICT|INTERRES
    95   49   50 1    
    96   49  105 1    
    97   50   51 1    
    98   50   52 1    
    99   50  106 1    
   100   51  107 1    
   101   51  108 1    
   102   51  109 1    
   103   52   53 2    
   104   52   54 am   BACKBONE|DICT|INTERRES
   105   54   55 1    
   106   54  110 1    
   107   55   56 1    
   108   55   59 1    
   109   55  111 1    
   110   56   57 am   BACKBONE|DICT|INTERRES
   111   56   58 2    
   112   57  112 1    
   113   57  113 1    
   114   59   60 1    
   115   59  114 1    
   116   59  115 1    
   117   60   61 1    
   118   61  116 1    
   119   61  117 1    
@<TRIPOS>SUBSTRUCTURE
     1 UNK         1 GROUP             0       ****    0 ROOT    
