@<TRIPOS>MOLECULE
3R8
117   119    1
SMALL
USER_CHARGES


@<TRIPOS>ATOM
      1 CA         14.1942  -22.9100  -42.2130 C.3       0 UNK        -0.2013 
      2 C          14.8978  -23.7345  -43.2809 C.2       0 UNK         0.4866 
      3 O          15.2441  -23.2011  -44.3359 O.2       0 UNK        -0.5176 
      4 N          15.1040  -25.0315  -43.0189 N.am      1 UNK        -0.4884 
      5 CA         15.8318  -25.9561  -43.8960 C.3       1 UNK         0.0853 
      6 C6         15.3629  -27.4165  -43.6716 C.3       10 UNK        -0.0849 
      7 S7         15.4586  -28.4175  -45.1979 S.3       10 UNK        -0.2776 
      8 C8         15.8525  -30.0752  -44.5525 C.3       10 UNK         0.0316 
      9 C9         17.2822  -30.1445  -44.0419 C.ar      10 UNK        -0.0863 
     10 C10        18.3422  -30.3063  -44.9362 C.ar      10 UNK        -0.1009 
     11 C11        19.6624  -30.3203  -44.4772 C.ar      10 UNK        -0.0712 
     12 C12        19.9182  -30.1703  -43.1094 C.ar      10 UNK        -0.0894 
     13 C13        18.8619  -30.0031  -42.2055 C.ar      10 UNK        -0.0745 
     14 C14        17.5479  -30.0202  -42.6777 C.ar      10 UNK        -0.0972 
     15 C15        19.1121  -29.7866  -40.7197 C.3       10 UNK         0.0209 
     16 S16        18.5148  -28.1526  -40.1704 S.3       10 UNK        -0.2568 
     17 C17        20.0487  -27.1735  -40.0465 C.3       10 UNK        -0.0983 
     18 CA         20.8952  -27.1243  -41.3412 C.3       3 UNK         0.0876 
     19 N          20.1271  -26.6546  -42.5040 N.am      3 UNK        -0.4424 
     20 C          20.5084  -26.7713  -43.7817 C.2       2 UNK         0.4918 
     21 O          21.5943  -27.2575  -44.1036 O.2       2 UNK        -0.4875 
     22 CA         19.5692  -26.2045  -44.8722 C.3       2 UNK         0.0481 
     23 CB         19.9230  -26.7349  -46.2740 C.3       2 UNK        -0.1831 
     24 N          18.1286  -26.3974  -44.6527 N.am      2 UNK        -0.4498 
     25 C          17.3623  -25.7755  -43.7472 C.2       1 UNK         0.5027 
     26 O          17.8225  -25.0751  -42.8404 O.2       1 UNK        -0.4969 
     27 C          22.2086  -26.3470  -41.1050 C.2       3 UNK         0.5005 
     28 O          23.0372  -26.7942  -40.3114 O.2       3 UNK        -0.5279 
     29 N          22.4029  -25.2270  -41.8173 N.am      4 UNK        -0.4463 
     30 CA         23.6629  -24.4860  -41.9002 C.3       4 UNK         0.0283 
     31 CB         23.4283  -23.1757  -42.6689 C.3       4 UNK        -0.1875 
     32 C          24.8067  -25.2926  -42.5478 C.2       4 UNK         0.4949 
     33 O          25.9691  -24.9899  -42.2782 O.2       4 UNK        -0.5039 
     34 N          24.4729  -26.2984  -43.3744 N.am      5 UNK        -0.4663 
     35 CA         25.4334  -27.2488  -43.9408 C.3       5 UNK         0.0242 
     36 CB         24.7673  -28.0482  -45.0742 C.3       5 UNK        -0.1982 
     37 C          26.0042  -28.1858  -42.8628 C.2       5 UNK         0.5017 
     38 O          27.2243  -28.2915  -42.7361 O.2       5 UNK        -0.5012 
     39 N          25.1036  -28.8156  -42.0987 N.am      6 UNK        -0.4439 
     40 CA         25.3471  -29.7026  -40.9626 C.3       6 UNK         0.0297 
     41 CB         26.2375  -30.9017  -41.3537 C.3       6 UNK        -0.2006 
     42 C          23.9874  -30.1889  -40.4444 C.2       6 UNK         0.4892 
     43 O          23.0072  -30.1701  -41.1953 O.2       6 UNK        -0.5089 
     44 N          23.9550  -30.6423  -39.1838 N.am      7 UNK        -0.4243 
     45 CA         22.7773  -31.2130  -38.5229 C.3       7 UNK         0.0196 
     46 CB         23.1023  -31.4886  -37.0453 C.3       7 UNK        -0.2007 
     47 C          22.3038  -32.4912  -39.2368 C.2       7 UNK         0.5020 
     48 O          23.0293  -33.4861  -39.2438 O.2       7 UNK        -0.5147 
     49 N          21.1264  -32.4026  -39.8719 N.am      8 UNK        -0.4734 
     50 CA         20.4923  -33.3886  -40.7648 C.3       8 UNK         0.0238 
     51 CB         20.1612  -34.6884  -40.0010 C.3       8 UNK        -0.1912 
     52 C          21.2643  -33.6687  -42.0751 C.2       8 UNK         0.5038 
     53 O          20.8624  -34.5682  -42.8146 O.2       8 UNK        -0.5046 
     54 N          22.3257  -32.8898  -42.3330 N.am      9 UNK        -0.4200 
     55 CA         23.2934  -32.9677  -43.4366 C.3       9 UNK         0.0839 
     56 C          23.6855  -34.3988  -43.9165 C.2       9 UNK         0.5513 
     57 N          23.7569  -34.6555  -45.2161 N.am      9 UNK        -0.7519 
     58 O          24.0031  -35.2649  -43.1044 O.2       9 UNK        -0.4960 
     59 C59        23.0422  -31.8977  -44.5342 C.3       10 UNK        -0.0876 
     60 S60        21.5078  -32.1246  -45.4986 S.3       10 UNK        -0.2414 
     61 C61        20.8033  -30.4478  -45.4755 C.3       10 UNK         0.0169 
     62 H62        13.2797  -22.4755  -42.6159 H         1 UNK         0.0903 
     63 H63        13.9295  -23.5096  -41.3423 H         1 UNK         0.0903 
     64 H64        14.8402  -22.0976  -41.8811 H         1 UNK         0.0903 
     65 H65        14.8348  -25.4016  -42.1182 H         1 UNK         0.3096 
     66 H66        15.5857  -25.6758  -44.9234 H         1 UNK         0.1121 
     67 H67        14.3149  -27.4339  -43.3672 H         1 UNK         0.0849 
     68 H68        15.9103  -27.8798  -42.8514 H         1 UNK         0.0849 
     69 H69        15.1434  -30.3421  -43.7672 H         1 UNK         0.0865 
     70 H70        15.7141  -30.8082  -45.3488 H         1 UNK         0.0865 
     71 H71        18.1379  -30.4009  -45.9940 H         1 UNK         0.1346 
     72 H72        20.9406  -30.1642  -42.7603 H         1 UNK         0.1412 
     73 H73        16.7319  -29.8967  -41.9787 H         1 UNK         0.1426 
     74 H74        20.1689  -29.8931  -40.4770 H         1 UNK         0.0716 
     75 H75        18.5820  -30.5567  -40.1576 H         1 UNK         0.0716 
     76 H76        19.7709  -26.1632  -39.7403 H         1 UNK         0.0695 
     77 H77        20.6343  -27.5889  -39.2237 H         1 UNK         0.0695 
     78 H78        21.2201  -28.1389  -41.5692 H         1 UNK         0.0983 
     79 H79        19.2371  -26.2013  -42.3160 H         1 UNK         0.3095 
     80 H80        19.7492  -25.1279  -44.8836 H         1 UNK         0.0454 
     81 H81        19.7566  -27.8092  -46.3482 H         1 UNK         0.0851 
     82 H82        19.3255  -26.2492  -47.0456 H         1 UNK         0.0851 
     83 H83        20.9694  -26.5480  -46.5193 H         1 UNK         0.0851 
     84 H84        17.6662  -27.0233  -45.2985 H         1 UNK         0.2976 
     85 H85        21.6575  -24.9262  -42.4279 H         1 UNK         0.3116 
     86 H86        23.9718  -24.2379  -40.8826 H         1 UNK         0.0646 
     87 H87        24.3445  -22.5856  -42.7209 H         1 UNK         0.0847 
     88 H88        22.6752  -22.5567  -42.1811 H         1 UNK         0.0847 
     89 H89        23.1025  -23.3601  -43.6934 H         1 UNK         0.0847 
     90 H90        23.4921  -26.4792  -43.5587 H         1 UNK         0.3040 
     91 H91        26.2655  -26.6834  -44.3666 H         1 UNK         0.1015 
     92 H92        24.4229  -27.3901  -45.8721 H         1 UNK         0.0786 
     93 H93        23.9075  -28.6187  -44.7218 H         1 UNK         0.0786 
     94 H94        25.4692  -28.7558  -45.5174 H         1 UNK         0.0786 
     95 H95        24.1181  -28.6601  -42.2730 H         1 UNK         0.3172 
     96 H96        25.8299  -29.1258  -40.1717 H         1 UNK         0.0595 
     97 H97        27.2796  -30.6021  -41.4625 H         1 UNK         0.0839 
     98 H98        25.9257  -31.3460  -42.2974 H         1 UNK         0.0839 
     99 H99        26.2155  -31.6866  -40.5964 H         1 UNK         0.0839 
    100 H100       24.8127  -30.6481  -38.6509 H         1 UNK         0.2998 
    101 H101       21.9817  -30.4654  -38.5588 H         1 UNK         0.0822 
    102 H102       23.3793  -30.5732  -36.5219 H         1 UNK         0.0787 
    103 H103       22.2379  -31.9076  -36.5284 H         1 UNK         0.0787 
    104 H104       23.9226  -32.1995  -36.9364 H         1 UNK         0.0787 
    105 H105       20.6353  -31.5242  -39.8000 H         1 UNK         0.3055 
    106 H106       19.5457  -32.9458  -41.0797 H         1 UNK         0.1106 
    107 H107       19.5552  -35.3586  -40.6120 H         1 UNK         0.0828 
    108 H108       21.0619  -35.2349  -39.7206 H         1 UNK         0.0828 
    109 H109       19.5955  -34.4828  -39.0924 H         1 UNK         0.0828 
    110 H110       22.5224  -32.1576  -41.6624 H         1 UNK         0.2931 
    111 H111       24.2127  -32.6426  -42.9530 H         1 UNK         0.0412 
    112 H112       24.0374  -35.5734  -45.5242 H         1 UNK         0.3472 
    113 H113       23.4724  -33.9608  -45.8894 H         1 UNK         0.3472 
    114 H114       23.0267  -30.9181  -44.0551 H         1 UNK         0.0970 
    115 H115       23.8840  -31.8573  -45.2274 H         1 UNK         0.0970 
    116 H116       20.4465  -30.2224  -46.4814 H         1 UNK         0.0612 
    117 H117       21.5708  -29.7027  -45.2655 H         1 UNK         0.0612 
@<TRIPOS>BOND
     1    1    2 1    
     2    1   62 1    
     3    1   63 1    
     4    1   64 1    
     5    2    3 2    
     6    2    4 am   BACKBONE|DICT|INTERRES
     7    4    5 1    
     8    4   65 1    
     9    5    6 1    
    10    5   25 1    
    11    5   66 1    
    12    6    7 1    
    13    6   67 1    
    14    6   68 1    
    15    7    8 1    
    16    8    9 1    
    17    8   69 1    
    18    8   70 1    
    19    9   10 ar   
    20    9   14 ar   
    21   10   11 ar   
    22   10   71 1    
    23   11   12 ar   
    24   11   61 1    
    25   12   13 ar   
    26   12   72 1    
    27   13   14 ar   
    28   13   15 1    
    29   14   73 1    
    30   15   16 1    
    31   15   74 1    
    32   15   75 1    
    33   16   17 1    
    34   17   18 1    
    35   17   76 1    
    36   17   77 1    
    37   18   19 1    
    38   18   27 1    
    39   18   78 1    
    40   19   20 am   BACKBONE|DICT|INTERRES
    41   19   79 1    
    42   20   21 2    
    43   20   22 1    
    44   22   23 1    
    45   22   24 1    
    46   22   80 1    
    47   23   81 1    
    48   23   82 1    
    49   23   83 1    
    50   24   25 am   BACKBONE|DICT|INTERRES
    51   24   84 1    
    52   25   26 2    
    53   27   28 2    
    54   27   29 am   BACKBONE|DICT|INTERRES
    55   29   30 1    
    56   29   85 1    
    57   30   31 1    
    58   30   32 1    
    59   30   86 1    
    60   31   87 1    
    61   31   88 1    
    62   31   89 1    
    63   32   33 2    
    64   32   34 am   BACKBONE|DICT|INTERRES
    65   34   35 1    
    66   34   90 1    
    67   35   36 1    
    68   35   37 1    
    69   35   91 1    
    70   36   92 1    
    71   36   93 1    
    72   36   94 1    
    73   37   38 2    
    74   37   39 am   BACKBONE|DICT|INTERRES
    75   39   40 1    
    76   39   95 1    
    77   40   41 1    
    78   40   42 1    
    79   40   96 1    
    80   41   97 1    
    81   41   98 1    
    82   41   99 1    
    83   42   43 2    
    84   42   44 am   BACKBONE|DICT|INTERRES
    85   44   45 1    
    86   44  100 1    
    87   45   46 1    
    88   45   47 1    
    89   45  101 1    
    90   46  102 1    
    91   46  103 1    
    92   46  104 1    
    93   47   48 2    
    94   47   49 am   BACKBONE|DICT|INTERRES
    95   49   50 1    
    96   49  105 1    
    97   50   51 1    
    98   50   52 1    
    99   50  106 1    
   100   51  107 1    
   101   51  108 1    
   102   51  109 1    
   103   52   53 2    
   104   52   54 am   BACKBONE|DICT|INTERRES
   105   54   55 1    
   106   54  110 1    
   107   55   56 1    
   108   55   59 1    
   109   55  111 1    
   110   56   57 am   BACKBONE|DICT|INTERRES
   111   56   58 2    
   112   57  112 1    
   113   57  113 1    
   114   59   60 1    
   115   59  114 1    
   116   59  115 1    
   117   60   61 1    
   118   61  116 1    
   119   61  117 1    
@<TRIPOS>SUBSTRUCTURE
     1 UNK         1 GROUP             0       ****    0 ROOT    
