@<TRIPOS>MOLECULE
3R8
117   119    1
SMALL
USER_CHARGES


@<TRIPOS>ATOM
      1 CA         18.8581  -21.8218  -46.2168 C.3       0 UNK        -0.2013 
      2 C          19.2524  -23.2431  -46.5903 C.2       0 UNK         0.4866 
      3 O          20.2532  -23.4389  -47.2810 O.2       0 UNK        -0.5176 
      4 N          18.4695  -24.2348  -46.1470 N.am      1 UNK        -0.4884 
      5 CA         18.7425  -25.6624  -46.3447 C.3       1 UNK         0.0853 
      6 C6         17.4442  -26.5008  -46.2193 C.3       10 UNK        -0.0849 
      7 S7         17.5160  -28.0324  -47.2094 S.3       10 UNK        -0.2776 
      8 C8         16.0906  -28.9575  -46.5572 C.3       10 UNK         0.0316 
      9 C9         16.3974  -29.6061  -45.2148 C.ar      10 UNK        -0.0863 
     10 C10        17.0572  -30.8378  -45.1660 C.ar      10 UNK        -0.1009 
     11 C11        17.3256  -31.4557  -43.9392 C.ar      10 UNK        -0.0712 
     12 C12        16.9133  -30.8323  -42.7567 C.ar      10 UNK        -0.0894 
     13 C13        16.2511  -29.6013  -42.7910 C.ar      10 UNK        -0.0745 
     14 C14        15.9956  -28.9942  -44.0242 C.ar      10 UNK        -0.0972 
     15 C15        15.7821  -28.9351  -41.5020 C.3       10 UNK         0.0209 
     16 S16        17.1358  -28.6065  -40.3249 S.3       10 UNK        -0.2568 
     17 C17        18.2789  -27.5922  -41.3210 C.3       10 UNK        -0.0983 
     18 CA         19.6532  -28.2908  -41.4870 C.3       3 UNK         0.0876 
     19 N          20.3014  -27.8764  -42.7266 N.am      3 UNK        -0.4424 
     20 C          20.8188  -28.6959  -43.6457 C.2       2 UNK         0.4918 
     21 O          20.7952  -29.9233  -43.5573 O.2       2 UNK        -0.4875 
     22 CA         21.4302  -28.0186  -44.8885 C.3       2 UNK         0.0481 
     23 CB         22.1722  -29.0160  -45.7960 C.3       2 UNK        -0.1831 
     24 N          20.4139  -27.3273  -45.6837 N.am      2 UNK        -0.4498 
     25 C          19.8390  -26.1581  -45.3756 C.2       1 UNK         0.5027 
     26 O          20.1207  -25.5065  -44.3646 O.2       1 UNK        -0.4969 
     27 C          20.5771  -27.9611  -40.3026 C.2       3 UNK         0.5005 
     28 O          21.2007  -26.8956  -40.2986 O.2       3 UNK        -0.5279 
     29 N          20.5973  -28.8497  -39.2973 N.am      4 UNK        -0.4463 
     30 CA         21.2595  -28.7015  -37.9949 C.3       4 UNK         0.0283 
     31 CB         20.4128  -27.7767  -37.0903 C.3       4 UNK        -0.1875 
     32 C          22.7386  -28.2775  -38.1152 C.2       4 UNK         0.4949 
     33 O          23.5566  -29.0620  -38.6001 O.2       4 UNK        -0.5039 
     34 N          23.0441  -27.0431  -37.6919 N.am      5 UNK        -0.4663 
     35 CA         24.3700  -26.4234  -37.7243 C.3       5 UNK         0.0242 
     36 CB         24.3290  -25.1168  -36.9152 C.3       5 UNK        -0.1982 
     37 C          24.9172  -26.1618  -39.1390 C.2       5 UNK         0.5017 
     38 O          26.1304  -26.0092  -39.2807 O.2       5 UNK        -0.5012 
     39 N          24.0499  -26.1499  -40.1628 N.am      6 UNK        -0.4439 
     40 CA         24.4242  -26.0244  -41.5759 C.3       6 UNK         0.0297 
     41 CB         23.3121  -25.2770  -42.3359 C.3       6 UNK        -0.2006 
     42 C          24.7608  -27.3886  -42.2162 C.2       6 UNK         0.4892 
     43 O          24.5334  -27.5620  -43.4130 O.2       6 UNK        -0.5089 
     44 N          25.3058  -28.3159  -41.4128 N.am      7 UNK        -0.4243 
     45 CA         25.6948  -29.6904  -41.7379 C.3       7 UNK         0.0196 
     46 CB         26.8099  -29.7208  -42.8059 C.3       7 UNK        -0.2007 
     47 C          24.4760  -30.5478  -42.1149 C.2       7 UNK         0.5020 
     48 O          24.2567  -30.8169  -43.2966 O.2       7 UNK        -0.5147 
     49 N          23.7103  -30.9450  -41.0865 N.am      8 UNK        -0.4734 
     50 CA         22.5154  -31.7981  -41.1565 C.3       8 UNK         0.0238 
     51 CB         22.1146  -32.2126  -39.7313 C.3       8 UNK        -0.1912 
     52 C          22.6813  -33.0590  -42.0274 C.2       8 UNK         0.5038 
     53 O          23.7336  -33.7015  -41.9733 O.2       8 UNK        -0.5046 
     54 N          21.6268  -33.3804  -42.7875 N.am      9 UNK        -0.4200 
     55 CA         21.5391  -34.4836  -43.7579 C.3       9 UNK         0.0839 
     56 C          21.9453  -35.8698  -43.1847 C.2       9 UNK         0.5513 
     57 N          22.6909  -36.6625  -43.9424 N.am      9 UNK        -0.7519 
     58 O          21.5430  -36.2490  -42.0866 O.2       9 UNK        -0.4960 
     59 C59        20.1244  -34.5760  -44.3935 C.3       10 UNK        -0.0876 
     60 S60        19.4623  -32.9702  -44.9630 S.3       10 UNK        -0.2414 
     61 C61        18.0077  -32.8182  -43.8723 C.3       10 UNK         0.0169 
     62 H62        17.9455  -21.7940  -45.6218 H         1 UNK         0.0903 
     63 H63        19.6537  -21.3522  -45.6390 H         1 UNK         0.0903 
     64 H64        18.6944  -21.2289  -47.1163 H         1 UNK         0.0903 
     65 H65        17.6841  -24.0154  -45.5507 H         1 UNK         0.3096 
     66 H66        19.1308  -25.7746  -47.3603 H         1 UNK         0.1121 
     67 H67        16.5897  -25.9319  -46.5900 H         1 UNK         0.0849 
     68 H68        17.2212  -26.7295  -45.1759 H         1 UNK         0.0849 
     69 H69        15.2255  -28.2968  -46.4810 H         1 UNK         0.0865 
     70 H70        15.8154  -29.7296  -47.2773 H         1 UNK         0.0865 
     71 H71        17.3583  -31.3182  -46.0869 H         1 UNK         0.1346 
     72 H72        17.0996  -31.3066  -41.8028 H         1 UNK         0.1412 
     73 H73        15.4731  -28.0480  -44.0587 H         1 UNK         0.1426 
     74 H74        15.0461  -29.5794  -41.0194 H         1 UNK         0.0716 
     75 H75        15.2720  -27.9941  -41.7142 H         1 UNK         0.0716 
     76 H76        18.3717  -26.6032  -40.8670 H         1 UNK         0.0695 
     77 H77        17.8268  -27.4139  -42.2977 H         1 UNK         0.0695 
     78 H78        19.4967  -29.3715  -41.5175 H         1 UNK         0.0983 
     79 H79        20.3594  -26.8769  -42.8902 H         1 UNK         0.3095 
     80 H80        22.1551  -27.2811  -44.5409 H         1 UNK         0.0454 
     81 H81        22.6374  -28.5138  -46.6439 H         1 UNK         0.0851 
     82 H82        21.5054  -29.7882  -46.1821 H         1 UNK         0.0851 
     83 H83        22.9679  -29.5182  -45.2448 H         1 UNK         0.0851 
     84 H84        20.0636  -27.8289  -46.4886 H         1 UNK         0.2976 
     85 H85        20.0433  -29.6881  -39.4008 H         1 UNK         0.3116 
     86 H86        21.2664  -29.6881  -37.5300 H         1 UNK         0.0646 
     87 H87        20.2936  -26.7787  -37.5139 H         1 UNK         0.0847 
     88 H88        20.8574  -27.6724  -36.0994 H         1 UNK         0.0847 
     89 H89        19.4132  -28.1867  -36.9445 H         1 UNK         0.0847 
     90 H90        22.2910  -26.4688  -37.3417 H         1 UNK         0.3040 
     91 H91        25.0667  -27.1083  -37.2357 H         1 UNK         0.1015 
     92 H92        23.6322  -24.3968  -37.3465 H         1 UNK         0.0786 
     93 H93        25.3113  -24.6426  -36.8875 H         1 UNK         0.0786 
     94 H94        24.0310  -25.2975  -35.8822 H         1 UNK         0.0786 
     95 H95        23.0668  -26.3402  -39.9787 H         1 UNK         0.3172 
     96 H96        25.3272  -25.4152  -41.6504 H         1 UNK         0.0595 
     97 H97        23.6135  -25.0617  -43.3618 H         1 UNK         0.0839 
     98 H98        23.0772  -24.3235  -41.8630 H         1 UNK         0.0839 
     99 H99        22.3937  -25.8601  -42.3870 H         1 UNK         0.0839 
    100 H100       25.4249  -28.0563  -40.4434 H         1 UNK         0.2998 
    101 H101       26.1149  -30.1158  -40.8248 H         1 UNK         0.0822 
    102 H102       27.1453  -30.7432  -42.9839 H         1 UNK         0.0787 
    103 H103       26.4749  -29.3216  -43.7636 H         1 UNK         0.0787 
    104 H104       27.6785  -29.1440  -42.4884 H         1 UNK         0.0787 
    105 H105       23.9476  -30.6007  -40.1634 H         1 UNK         0.3055 
    106 H106       21.7174  -31.1849  -41.5742 H         1 UNK         0.1106 
    107 H107       22.8812  -32.8333  -39.2654 H         1 UNK         0.0828 
    108 H108       21.9558  -31.3486  -39.0901 H         1 UNK         0.0828 
    109 H109       21.1882  -32.7886  -39.7355 H         1 UNK         0.0828 
    110 H110       20.8258  -32.7660  -42.7808 H         1 UNK         0.2931 
    111 H111       22.2427  -34.2285  -44.5529 H         1 UNK         0.0412 
    112 H112       22.9483  -37.5735  -43.5948 H         1 UNK         0.3472 
    113 H113       23.0138  -36.3638  -44.8500 H         1 UNK         0.3472 
    114 H114       19.4202  -35.0256  -43.6902 H         1 UNK         0.0970 
    115 H115       20.1479  -35.2482  -45.2533 H         1 UNK         0.0970 
    116 H116       18.3217  -33.0267  -42.8482 H         1 UNK         0.0612 
    117 H117       17.2816  -33.5870  -44.1399 H         1 UNK         0.0612 
@<TRIPOS>BOND
     1    1    2 1    
     2    1   62 1    
     3    1   63 1    
     4    1   64 1    
     5    2    3 2    
     6    2    4 am   BACKBONE|DICT|INTERRES
     7    4    5 1    
     8    4   65 1    
     9    5    6 1    
    10    5   25 1    
    11    5   66 1    
    12    6    7 1    
    13    6   67 1    
    14    6   68 1    
    15    7    8 1    
    16    8    9 1    
    17    8   69 1    
    18    8   70 1    
    19    9   10 ar   
    20    9   14 ar   
    21   10   11 ar   
    22   10   71 1    
    23   11   12 ar   
    24   11   61 1    
    25   12   13 ar   
    26   12   72 1    
    27   13   14 ar   
    28   13   15 1    
    29   14   73 1    
    30   15   16 1    
    31   15   74 1    
    32   15   75 1    
    33   16   17 1    
    34   17   18 1    
    35   17   76 1    
    36   17   77 1    
    37   18   19 1    
    38   18   27 1    
    39   18   78 1    
    40   19   20 am   BACKBONE|DICT|INTERRES
    41   19   79 1    
    42   20   21 2    
    43   20   22 1    
    44   22   23 1    
    45   22   24 1    
    46   22   80 1    
    47   23   81 1    
    48   23   82 1    
    49   23   83 1    
    50   24   25 am   BACKBONE|DICT|INTERRES
    51   24   84 1    
    52   25   26 2    
    53   27   28 2    
    54   27   29 am   BACKBONE|DICT|INTERRES
    55   29   30 1    
    56   29   85 1    
    57   30   31 1    
    58   30   32 1    
    59   30   86 1    
    60   31   87 1    
    61   31   88 1    
    62   31   89 1    
    63   32   33 2    
    64   32   34 am   BACKBONE|DICT|INTERRES
    65   34   35 1    
    66   34   90 1    
    67   35   36 1    
    68   35   37 1    
    69   35   91 1    
    70   36   92 1    
    71   36   93 1    
    72   36   94 1    
    73   37   38 2    
    74   37   39 am   BACKBONE|DICT|INTERRES
    75   39   40 1    
    76   39   95 1    
    77   40   41 1    
    78   40   42 1    
    79   40   96 1    
    80   41   97 1    
    81   41   98 1    
    82   41   99 1    
    83   42   43 2    
    84   42   44 am   BACKBONE|DICT|INTERRES
    85   44   45 1    
    86   44  100 1    
    87   45   46 1    
    88   45   47 1    
    89   45  101 1    
    90   46  102 1    
    91   46  103 1    
    92   46  104 1    
    93   47   48 2    
    94   47   49 am   BACKBONE|DICT|INTERRES
    95   49   50 1    
    96   49  105 1    
    97   50   51 1    
    98   50   52 1    
    99   50  106 1    
   100   51  107 1    
   101   51  108 1    
   102   51  109 1    
   103   52   53 2    
   104   52   54 am   BACKBONE|DICT|INTERRES
   105   54   55 1    
   106   54  110 1    
   107   55   56 1    
   108   55   59 1    
   109   55  111 1    
   110   56   57 am   BACKBONE|DICT|INTERRES
   111   56   58 2    
   112   57  112 1    
   113   57  113 1    
   114   59   60 1    
   115   59  114 1    
   116   59  115 1    
   117   60   61 1    
   118   61  116 1    
   119   61  117 1    
@<TRIPOS>SUBSTRUCTURE
     1 UNK         1 GROUP             0       ****    0 ROOT    
