@<TRIPOS>MOLECULE
3R8
117   119    1
SMALL
USER_CHARGES


@<TRIPOS>ATOM
      1 CA         12.7787  -25.5126  -41.2986 C.3       0 UNK        -0.2013 
      2 C          13.7357  -25.4462  -42.4793 C.2       0 UNK         0.4866 
      3 O          14.3330  -24.3981  -42.7246 O.2       0 UNK        -0.5176 
      4 N          13.8854  -26.5570  -43.2140 N.am      1 UNK        -0.4884 
      5 CA         14.7792  -26.6765  -44.3748 C.3       1 UNK         0.0853 
      6 C6         14.3950  -27.9017  -45.2445 C.3       10 UNK        -0.0849 
      7 S7         15.0253  -27.7906  -46.9555 S.3       10 UNK        -0.2776 
      8 C8         15.9151  -29.3700  -47.1493 C.3       10 UNK         0.0316 
      9 C9         17.2254  -29.4226  -46.3713 C.ar      10 UNK        -0.0863 
     10 C10        17.3147  -30.1647  -45.1898 C.ar      10 UNK        -0.1009 
     11 C11        18.5328  -30.2792  -44.5146 C.ar      10 UNK        -0.0712 
     12 C12        19.6686  -29.6461  -45.0265 C.ar      10 UNK        -0.0894 
     13 C13        19.5938  -28.8864  -46.1999 C.ar      10 UNK        -0.0745 
     14 C14        18.3664  -28.7798  -46.8648 C.ar      10 UNK        -0.0972 
     15 C15        20.8411  -28.2508  -46.8115 C.3       10 UNK         0.0209 
     16 S16        21.9964  -27.5256  -45.5973 S.3       10 UNK        -0.2568 
     17 C17        21.2629  -25.8831  -45.2682 C.3       10 UNK        -0.0983 
     18 CA         20.8424  -25.6399  -43.7947 C.3       3 UNK         0.0876 
     19 N          19.7638  -26.5421  -43.4043 N.am      3 UNK        -0.4424 
     20 C          18.9114  -26.3400  -42.3944 C.2       2 UNK         0.4918 
     21 O          18.8992  -25.3340  -41.6818 O.2       2 UNK        -0.4875 
     22 CA         17.8779  -27.4571  -42.1693 C.3       2 UNK         0.0481 
     23 CB         17.7124  -27.7738  -40.6733 C.3       2 UNK        -0.1831 
     24 N          16.5585  -27.1962  -42.7566 N.am      2 UNK        -0.4498 
     25 C          16.2719  -26.7080  -43.9769 C.2       1 UNK         0.5027 
     26 O          17.1073  -26.2968  -44.7815 O.2       1 UNK        -0.4969 
     27 C          22.0294  -25.7285  -42.8110 C.2       3 UNK         0.5005 
     28 O          22.1347  -26.6909  -42.0433 O.2       3 UNK        -0.5279 
     29 N          22.9352  -24.7430  -42.8797 N.am      4 UNK        -0.4463 
     30 CA         24.1523  -24.6387  -42.0646 C.3       4 UNK         0.0283 
     31 CB         24.6131  -23.1688  -42.0438 C.3       4 UNK        -0.1875 
     32 C          25.2747  -25.6046  -42.5087 C.2       4 UNK         0.4949 
     33 O          26.4322  -25.1975  -42.6243 O.2       4 UNK        -0.5039 
     34 N          24.9152  -26.8689  -42.7504 N.am      5 UNK        -0.4663 
     35 CA         25.8324  -27.9757  -43.0143 C.3       5 UNK         0.0242 
     36 CB         25.0748  -29.0654  -43.7922 C.3       5 UNK        -0.1982 
     37 C          26.3913  -28.5379  -41.6974 C.2       5 UNK         0.5017 
     38 O          25.7905  -28.3383  -40.6391 O.2       5 UNK        -0.5012 
     39 N          27.5132  -29.2647  -41.7892 N.am      6 UNK        -0.4439 
     40 CA         28.1650  -29.9200  -40.6494 C.3       6 UNK         0.0297 
     41 CB         29.5482  -30.4406  -41.0733 C.3       6 UNK        -0.2006 
     42 C          27.3224  -31.0546  -40.0383 C.2       6 UNK         0.4892 
     43 O          27.3099  -31.2052  -38.8161 O.2       6 UNK        -0.5089 
     44 N          26.6352  -31.8226  -40.8963 N.am      7 UNK        -0.4243 
     45 CA         25.7283  -32.8985  -40.4903 C.3       7 UNK         0.0196 
     46 CB         25.5726  -33.9032  -41.6440 C.3       7 UNK        -0.2007 
     47 C          24.3537  -32.3699  -40.0518 C.2       7 UNK         0.5020 
     48 O          23.7790  -32.9051  -39.1041 O.2       7 UNK        -0.5147 
     49 N          23.8408  -31.3569  -40.7704 N.am      8 UNK        -0.4734 
     50 CA         22.5459  -30.6807  -40.5707 C.3       8 UNK         0.0238 
     51 CB         22.6052  -29.7846  -39.3162 C.3       8 UNK        -0.1912 
     52 C          21.3283  -31.6333  -40.5552 C.2       8 UNK         0.5038 
     53 O          20.3441  -31.3572  -39.8673 O.2       8 UNK        -0.5046 
     54 N          21.4296  -32.7421  -41.3025 N.am      9 UNK        -0.4200 
     55 CA         20.4842  -33.8734  -41.3308 C.3       9 UNK         0.0839 
     56 C          20.4092  -34.6891  -40.0018 C.2       9 UNK         0.5513 
     57 N          21.3507  -34.5521  -39.0754 N.am      9 UNK        -0.7519 
     58 O          19.4975  -35.4915  -39.8163 O.2       9 UNK        -0.4960 
     59 C59        19.0760  -33.4982  -41.8781 C.3       10 UNK        -0.0876 
     60 S60        19.1276  -32.7974  -43.5620 S.3       10 UNK        -0.2414 
     61 C61        18.6228  -31.0853  -43.2297 C.3       10 UNK         0.0169 
     62 H62        11.9853  -24.7751  -41.4172 H         1 UNK         0.0903 
     63 H63        13.3101  -25.2951  -40.3725 H         1 UNK         0.0903 
     64 H64        12.3162  -26.4947  -41.2015 H         1 UNK         0.0903 
     65 H65        13.3563  -27.3844  -42.9741 H         1 UNK         0.3096 
     66 H66        14.6369  -25.7775  -44.9798 H         1 UNK         0.1121 
     67 H67        13.3089  -27.9719  -45.3233 H         1 UNK         0.0849 
     68 H68        14.7155  -28.8328  -44.7743 H         1 UNK         0.0849 
     69 H69        15.2593  -30.1928  -46.8598 H         1 UNK         0.0865 
     70 H70        16.1268  -29.5196  -48.2091 H         1 UNK         0.0865 
     71 H71        16.4409  -30.6712  -44.8033 H         1 UNK         0.1346 
     72 H72        20.6152  -29.7623  -44.5165 H         1 UNK         0.1412 
     73 H73        18.2998  -28.2153  -47.7851 H         1 UNK         0.1426 
     74 H74        20.5711  -27.4899  -47.5455 H         1 UNK         0.0716 
     75 H75        21.3740  -29.0267  -47.3623 H         1 UNK         0.0716 
     76 H76        20.3961  -25.7401  -45.9157 H         1 UNK         0.0695 
     77 H77        21.9841  -25.1277  -45.5845 H         1 UNK         0.0695 
     78 H78        20.4520  -24.6217  -43.7281 H         1 UNK         0.0983 
     79 H79        19.6801  -27.3834  -43.9566 H         1 UNK         0.3095 
     80 H80        18.2597  -28.3578  -42.6443 H         1 UNK         0.0454 
     81 H81        17.2561  -26.9435  -40.1328 H         1 UNK         0.0851 
     82 H82        18.6791  -27.9736  -40.2084 H         1 UNK         0.0851 
     83 H83        17.0941  -28.6581  -40.5184 H         1 UNK         0.0851 
     84 H84        15.7692  -27.4562  -42.1843 H         1 UNK         0.2976 
     85 H85        22.8026  -24.0154  -43.5679 H         1 UNK         0.3116 
     86 H86        23.8973  -24.9145  -41.0390 H         1 UNK         0.0646 
     87 H87        24.9072  -22.8239  -43.0358 H         1 UNK         0.0847 
     88 H88        25.4723  -23.0363  -41.3848 H         1 UNK         0.0847 
     89 H89        23.8261  -22.5096  -41.6771 H         1 UNK         0.0847 
     90 H90        23.9465  -27.1109  -42.5602 H         1 UNK         0.3040 
     91 H91        26.6652  -27.6162  -43.6232 H         1 UNK         0.1015 
     92 H92        24.1987  -29.4181  -43.2471 H         1 UNK         0.0786 
     93 H93        25.7103  -29.9287  -43.9930 H         1 UNK         0.0786 
     94 H94        24.7336  -28.6900  -44.7571 H         1 UNK         0.0786 
     95 H95        27.9504  -29.3795  -42.6930 H         1 UNK         0.3172 
     96 H96        28.3129  -29.1663  -39.8728 H         1 UNK         0.0595 
     97 H97        29.4779  -31.1821  -41.8701 H         1 UNK         0.0839 
     98 H98        30.0597  -30.9138  -40.2337 H         1 UNK         0.0839 
     99 H99        30.1881  -29.6302  -41.4230 H         1 UNK         0.0839 
    100 H100       26.7286  -31.6424  -41.8848 H         1 UNK         0.2998 
    101 H101       26.1667  -33.4272  -39.6406 H         1 UNK         0.0822 
    102 H102       26.5314  -34.3468  -41.9133 H         1 UNK         0.0787 
    103 H103       24.9081  -34.7212  -41.3612 H         1 UNK         0.0787 
    104 H104       25.1558  -33.4383  -42.5383 H         1 UNK         0.0787 
    105 H105       24.4053  -30.9972  -41.5254 H         1 UNK         0.3055 
    106 H106       22.3986  -30.0256  -41.4314 H         1 UNK         0.1106 
    107 H107       21.7044  -29.1765  -39.2236 H         1 UNK         0.0828 
    108 H108       22.6985  -30.3745  -38.4038 H         1 UNK         0.0828 
    109 H109       23.4505  -29.0979  -39.3604 H         1 UNK         0.0828 
    110 H110       22.2801  -32.8779  -41.8277 H         1 UNK         0.2931 
    111 H111       20.9186  -34.5751  -42.0437 H         1 UNK         0.0412 
    112 H112       22.1249  -33.9057  -39.1957 H         1 UNK         0.3472 
    113 H113       21.2874  -35.0980  -38.2309 H         1 UNK         0.3472 
    114 H114       18.5674  -32.8144  -41.1970 H         1 UNK         0.0970 
    115 H115       18.4419  -34.3849  -41.9303 H         1 UNK         0.0970 
    116 H116       17.6594  -31.0822  -42.7171 H         1 UNK         0.0612 
    117 H117       19.3374  -30.6218  -42.5486 H         1 UNK         0.0612 
@<TRIPOS>BOND
     1    1    2 1    
     2    1   62 1    
     3    1   63 1    
     4    1   64 1    
     5    2    3 2    
     6    2    4 am   BACKBONE|DICT|INTERRES
     7    4    5 1    
     8    4   65 1    
     9    5    6 1    
    10    5   25 1    
    11    5   66 1    
    12    6    7 1    
    13    6   67 1    
    14    6   68 1    
    15    7    8 1    
    16    8    9 1    
    17    8   69 1    
    18    8   70 1    
    19    9   10 ar   
    20    9   14 ar   
    21   10   11 ar   
    22   10   71 1    
    23   11   12 ar   
    24   11   61 1    
    25   12   13 ar   
    26   12   72 1    
    27   13   14 ar   
    28   13   15 1    
    29   14   73 1    
    30   15   16 1    
    31   15   74 1    
    32   15   75 1    
    33   16   17 1    
    34   17   18 1    
    35   17   76 1    
    36   17   77 1    
    37   18   19 1    
    38   18   27 1    
    39   18   78 1    
    40   19   20 am   BACKBONE|DICT|INTERRES
    41   19   79 1    
    42   20   21 2    
    43   20   22 1    
    44   22   23 1    
    45   22   24 1    
    46   22   80 1    
    47   23   81 1    
    48   23   82 1    
    49   23   83 1    
    50   24   25 am   BACKBONE|DICT|INTERRES
    51   24   84 1    
    52   25   26 2    
    53   27   28 2    
    54   27   29 am   BACKBONE|DICT|INTERRES
    55   29   30 1    
    56   29   85 1    
    57   30   31 1    
    58   30   32 1    
    59   30   86 1    
    60   31   87 1    
    61   31   88 1    
    62   31   89 1    
    63   32   33 2    
    64   32   34 am   BACKBONE|DICT|INTERRES
    65   34   35 1    
    66   34   90 1    
    67   35   36 1    
    68   35   37 1    
    69   35   91 1    
    70   36   92 1    
    71   36   93 1    
    72   36   94 1    
    73   37   38 2    
    74   37   39 am   BACKBONE|DICT|INTERRES
    75   39   40 1    
    76   39   95 1    
    77   40   41 1    
    78   40   42 1    
    79   40   96 1    
    80   41   97 1    
    81   41   98 1    
    82   41   99 1    
    83   42   43 2    
    84   42   44 am   BACKBONE|DICT|INTERRES
    85   44   45 1    
    86   44  100 1    
    87   45   46 1    
    88   45   47 1    
    89   45  101 1    
    90   46  102 1    
    91   46  103 1    
    92   46  104 1    
    93   47   48 2    
    94   47   49 am   BACKBONE|DICT|INTERRES
    95   49   50 1    
    96   49  105 1    
    97   50   51 1    
    98   50   52 1    
    99   50  106 1    
   100   51  107 1    
   101   51  108 1    
   102   51  109 1    
   103   52   53 2    
   104   52   54 am   BACKBONE|DICT|INTERRES
   105   54   55 1    
   106   54  110 1    
   107   55   56 1    
   108   55   59 1    
   109   55  111 1    
   110   56   57 am   BACKBONE|DICT|INTERRES
   111   56   58 2    
   112   57  112 1    
   113   57  113 1    
   114   59   60 1    
   115   59  114 1    
   116   59  115 1    
   117   60   61 1    
   118   61  116 1    
   119   61  117 1    
@<TRIPOS>SUBSTRUCTURE
     1 UNK         1 GROUP             0       ****    0 ROOT    
