@<TRIPOS>MOLECULE
3R8
117   119    1
SMALL
USER_CHARGES


@<TRIPOS>ATOM
      1 CA         15.6345  -22.9668  -46.1207 C.3       0 UNK        -0.2013 
      2 C          15.7921  -24.3822  -45.5848 C.2       0 UNK         0.4866 
      3 O          15.3790  -25.3332  -46.2483 O.2       0 UNK        -0.5176 
      4 N          16.3902  -24.5204  -44.3970 N.am      1 UNK        -0.4884 
      5 CA         16.6918  -25.7910  -43.7335 C.3       1 UNK         0.0853 
      6 C6         15.6644  -26.1313  -42.6177 C.3       10 UNK        -0.0849 
      7 S7         14.1709  -26.9121  -43.3119 S.3       10 UNK        -0.2776 
      8 C8         14.4550  -28.6779  -42.9369 C.3       10 UNK         0.0316 
      9 C9         15.7791  -29.2104  -43.4801 C.ar      10 UNK        -0.0863 
     10 C10        16.7053  -29.8033  -42.6160 C.ar      10 UNK        -0.1009 
     11 C11        17.9140  -30.3167  -43.0989 C.ar      10 UNK        -0.0712 
     12 C12        18.1895  -30.2306  -44.4697 C.ar      10 UNK        -0.0894 
     13 C13        17.2872  -29.6141  -45.3402 C.ar      10 UNK        -0.0745 
     14 C14        16.0746  -29.1277  -44.8440 C.ar      10 UNK        -0.0972 
     15 C15        17.6167  -29.4705  -46.8179 C.3       10 UNK         0.0209 
     16 S16        18.6053  -27.9723  -47.1388 S.3       10 UNK        -0.2568 
     17 C17        20.3182  -28.5789  -46.9474 C.3       10 UNK        -0.0983 
     18 CA         21.1421  -27.7705  -45.9136 C.3       3 UNK         0.0876 
     19 N          20.5159  -27.7888  -44.5854 N.am      3 UNK        -0.4424 
     20 C          20.9486  -27.1611  -43.4818 C.2       2 UNK         0.4918 
     21 O          22.0309  -26.5810  -43.3977 O.2       2 UNK        -0.4875 
     22 CA         19.9842  -27.1843  -42.2804 C.3       2 UNK         0.0481 
     23 CB         20.4352  -26.2817  -41.1121 C.3       2 UNK        -0.1831 
     24 N          18.6054  -26.9001  -42.6983 N.am      2 UNK        -0.4498 
     25 C          18.1345  -25.7479  -43.2020 C.2       1 UNK         0.5027 
     26 O          18.7866  -24.7021  -43.2726 O.2       1 UNK        -0.4969 
     27 C          22.6151  -28.2342  -45.9365 C.2       3 UNK         0.5005 
     28 O          23.3953  -27.7161  -46.7370 O.2       3 UNK        -0.5279 
     29 N          22.9742  -29.1869  -45.0644 N.am      4 UNK        -0.4463 
     30 CA         24.3372  -29.7147  -44.9283 C.3       4 UNK         0.0283 
     31 CB         24.2622  -31.1502  -44.3839 C.3       4 UNK        -0.1875 
     32 C          25.2545  -28.8524  -44.0375 C.2       4 UNK         0.4949 
     33 O          26.4385  -29.1748  -43.9345 O.2       4 UNK        -0.5039 
     34 N          24.6977  -27.8040  -43.4093 N.am      5 UNK        -0.4663 
     35 CA         25.2648  -26.9441  -42.3616 C.3       5 UNK         0.0242 
     36 CB         26.6161  -26.3267  -42.7760 C.3       5 UNK        -0.1982 
     37 C          25.3609  -27.6623  -41.0036 C.2       5 UNK         0.5017 
     38 O          25.4457  -28.8909  -40.9442 O.2       5 UNK        -0.5012 
     39 N          25.3008  -26.8723  -39.9198 N.am      6 UNK        -0.4439 
     40 CA         25.3944  -27.2855  -38.5071 C.3       6 UNK         0.0297 
     41 CB         26.8360  -27.7346  -38.1861 C.3       6 UNK        -0.2006 
     42 C          24.3542  -28.3400  -38.0606 C.2       6 UNK         0.4892 
     43 O          24.5648  -29.0058  -37.0457 O.2       6 UNK        -0.5089 
     44 N          23.2688  -28.4846  -38.8375 N.am      7 UNK        -0.4243 
     45 CA         22.2357  -29.5236  -38.7528 C.3       7 UNK         0.0196 
     46 CB         21.3896  -29.3591  -37.4730 C.3       7 UNK        -0.2007 
     47 C          22.7839  -30.9574  -38.9296 C.2       7 UNK         0.5020 
     48 O          22.1764  -31.9044  -38.4278 O.2       7 UNK        -0.5147 
     49 N          23.8961  -31.1139  -39.6689 N.am      8 UNK        -0.4734 
     50 CA         24.5466  -32.4050  -39.9496 C.3       8 UNK         0.0238 
     51 CB         25.8885  -32.1502  -40.6548 C.3       8 UNK        -0.1912 
     52 C          23.6810  -33.3779  -40.7740 C.2       8 UNK         0.5038 
     53 O          23.8965  -34.5889  -40.7172 O.2       8 UNK        -0.5046 
     54 N          22.7097  -32.8199  -41.5015 N.am      9 UNK        -0.4200 
     55 CA         21.6122  -33.5059  -42.1923 C.3       9 UNK         0.0839 
     56 C          20.5615  -34.1662  -41.2505 C.2       9 UNK         0.5513 
     57 N          20.5418  -33.8813  -39.9530 N.am      9 UNK        -0.7519 
     58 O          19.7481  -34.9620  -41.7120 O.2       9 UNK        -0.4960 
     59 C59        20.9402  -32.5650  -43.2336 C.3       10 UNK        -0.0876 
     60 S60        20.6387  -30.8768  -42.5925 S.3       10 UNK        -0.2414 
     61 C61        18.8805  -30.9689  -42.1107 C.3       10 UNK         0.0169 
     62 H62        14.5804  -22.7430  -46.2832 H         1 UNK         0.0903 
     63 H63        16.0366  -22.2223  -45.4337 H         1 UNK         0.0903 
     64 H64        16.1551  -22.8660  -47.0727 H         1 UNK         0.0903 
     65 H65        16.7904  -23.7118  -43.9383 H         1 UNK         0.3096 
     66 H66        16.6978  -26.5810  -44.4850 H         1 UNK         0.1121 
     67 H67        16.0734  -26.8023  -41.8605 H         1 UNK         0.0849 
     68 H68        15.3723  -25.2298  -42.0763 H         1 UNK         0.0849 
     69 H69        14.3939  -28.8188  -41.8565 H         1 UNK         0.0865 
     70 H70        13.6397  -29.2628  -43.3647 H         1 UNK         0.0865 
     71 H71        16.4795  -29.8783  -41.5604 H         1 UNK         0.1346 
     72 H72        19.1083  -30.6372  -44.8668 H         1 UNK         0.1412 
     73 H73        15.3668  -28.6599  -45.5159 H         1 UNK         0.1426 
     74 H74        16.6940  -29.4037  -47.3965 H         1 UNK         0.0716 
     75 H75        18.1347  -30.3575  -47.1855 H         1 UNK         0.0716 
     76 H76        20.7863  -28.5208  -47.9323 H         1 UNK         0.0695 
     77 H77        20.3117  -29.6376  -46.6835 H         1 UNK         0.0695 
     78 H78        21.1471  -26.7260  -46.2327 H         1 UNK         0.0983 
     79 H79        19.6076  -28.2281  -44.5504 H         1 UNK         0.3095 
     80 H80        19.9796  -28.2043  -41.9018 H         1 UNK         0.0454 
     81 H81        21.4016  -26.6042  -40.7243 H         1 UNK         0.0851 
     82 H82        19.7265  -26.3190  -40.2852 H         1 UNK         0.0851 
     83 H83        20.5444  -25.2403  -41.4153 H         1 UNK         0.0851 
     84 H84        17.9830  -27.6981  -42.6873 H         1 UNK         0.2976 
     85 H85        22.2741  -29.5526  -44.4341 H         1 UNK         0.3116 
     86 H86        24.8002  -29.7579  -45.9165 H         1 UNK         0.0646 
     87 H87        23.8127  -31.1746  -43.3925 H         1 UNK         0.0847 
     88 H88        23.6819  -31.7956  -45.0425 H         1 UNK         0.0847 
     89 H89        25.2559  -31.5922  -44.2996 H         1 UNK         0.0847 
     90 H90        23.7167  -27.6208  -43.5950 H         1 UNK         0.3040 
     91 H91        24.5488  -26.1281  -42.2479 H         1 UNK         0.1015 
     92 H92        26.9209  -25.5501  -42.0736 H         1 UNK         0.0786 
     93 H93        26.5571  -25.8658  -43.7620 H         1 UNK         0.0786 
     94 H94        27.4163  -27.0671  -42.7974 H         1 UNK         0.0786 
     95 H95        25.2053  -25.8760  -40.0671 H         1 UNK         0.3172 
     96 H96        25.1865  -26.3928  -37.9154 H         1 UNK         0.0595 
     97 H97        27.0925  -28.6616  -38.7005 H         1 UNK         0.0839 
     98 H98        26.9673  -27.9091  -37.1175 H         1 UNK         0.0839 
     99 H99        27.5632  -26.9771  -38.4783 H         1 UNK         0.0839 
    100 H100       23.2122  -27.8811  -39.6445 H         1 UNK         0.2998 
    101 H101       21.5726  -29.3579  -39.6036 H         1 UNK         0.0822 
    102 H102       20.5318  -30.0328  -37.4810 H         1 UNK         0.0787 
    103 H103       21.0011  -28.3448  -37.3819 H         1 UNK         0.0787 
    104 H104       21.9669  -29.5802  -36.5748 H         1 UNK         0.0787 
    105 H105       24.3555  -30.2891  -40.0478 H         1 UNK         0.3055 
    106 H106       24.7468  -32.8899  -38.9917 H         1 UNK         0.1106 
    107 H107       26.5472  -31.5345  -40.0419 H         1 UNK         0.0828 
    108 H108       26.4121  -33.0862  -40.8540 H         1 UNK         0.0828 
    109 H109       25.7527  -31.6409  -41.6099 H         1 UNK         0.0828 
    110 H110       22.6141  -31.8167  -41.4534 H         1 UNK         0.2931 
    111 H111       22.0610  -34.3315  -42.7479 H         1 UNK         0.0412 
    112 H112       21.1960  -33.2217  -39.5453 H         1 UNK         0.3472 
    113 H113       19.8551  -34.3265  -39.3655 H         1 UNK         0.3472 
    114 H114       21.5945  -32.4698  -44.0996 H         1 UNK         0.0970 
    115 H115       20.0162  -32.9918  -43.6293 H         1 UNK         0.0970 
    116 H116       18.5835  -32.0064  -41.9556 H         1 UNK         0.0612 
    117 H117       18.7891  -30.4801  -41.1395 H         1 UNK         0.0612 
@<TRIPOS>BOND
     1    1    2 1    
     2    1   62 1    
     3    1   63 1    
     4    1   64 1    
     5    2    3 2    
     6    2    4 am   BACKBONE|DICT|INTERRES
     7    4    5 1    
     8    4   65 1    
     9    5    6 1    
    10    5   25 1    
    11    5   66 1    
    12    6    7 1    
    13    6   67 1    
    14    6   68 1    
    15    7    8 1    
    16    8    9 1    
    17    8   69 1    
    18    8   70 1    
    19    9   10 ar   
    20    9   14 ar   
    21   10   11 ar   
    22   10   71 1    
    23   11   12 ar   
    24   11   61 1    
    25   12   13 ar   
    26   12   72 1    
    27   13   14 ar   
    28   13   15 1    
    29   14   73 1    
    30   15   16 1    
    31   15   74 1    
    32   15   75 1    
    33   16   17 1    
    34   17   18 1    
    35   17   76 1    
    36   17   77 1    
    37   18   19 1    
    38   18   27 1    
    39   18   78 1    
    40   19   20 am   BACKBONE|DICT|INTERRES
    41   19   79 1    
    42   20   21 2    
    43   20   22 1    
    44   22   23 1    
    45   22   24 1    
    46   22   80 1    
    47   23   81 1    
    48   23   82 1    
    49   23   83 1    
    50   24   25 am   BACKBONE|DICT|INTERRES
    51   24   84 1    
    52   25   26 2    
    53   27   28 2    
    54   27   29 am   BACKBONE|DICT|INTERRES
    55   29   30 1    
    56   29   85 1    
    57   30   31 1    
    58   30   32 1    
    59   30   86 1    
    60   31   87 1    
    61   31   88 1    
    62   31   89 1    
    63   32   33 2    
    64   32   34 am   BACKBONE|DICT|INTERRES
    65   34   35 1    
    66   34   90 1    
    67   35   36 1    
    68   35   37 1    
    69   35   91 1    
    70   36   92 1    
    71   36   93 1    
    72   36   94 1    
    73   37   38 2    
    74   37   39 am   BACKBONE|DICT|INTERRES
    75   39   40 1    
    76   39   95 1    
    77   40   41 1    
    78   40   42 1    
    79   40   96 1    
    80   41   97 1    
    81   41   98 1    
    82   41   99 1    
    83   42   43 2    
    84   42   44 am   BACKBONE|DICT|INTERRES
    85   44   45 1    
    86   44  100 1    
    87   45   46 1    
    88   45   47 1    
    89   45  101 1    
    90   46  102 1    
    91   46  103 1    
    92   46  104 1    
    93   47   48 2    
    94   47   49 am   BACKBONE|DICT|INTERRES
    95   49   50 1    
    96   49  105 1    
    97   50   51 1    
    98   50   52 1    
    99   50  106 1    
   100   51  107 1    
   101   51  108 1    
   102   51  109 1    
   103   52   53 2    
   104   52   54 am   BACKBONE|DICT|INTERRES
   105   54   55 1    
   106   54  110 1    
   107   55   56 1    
   108   55   59 1    
   109   55  111 1    
   110   56   57 am   BACKBONE|DICT|INTERRES
   111   56   58 2    
   112   57  112 1    
   113   57  113 1    
   114   59   60 1    
   115   59  114 1    
   116   59  115 1    
   117   60   61 1    
   118   61  116 1    
   119   61  117 1    
@<TRIPOS>SUBSTRUCTURE
     1 UNK         1 GROUP             0       ****    0 ROOT    
