@<TRIPOS>MOLECULE
3R8
117   119    1
SMALL
USER_CHARGES


@<TRIPOS>ATOM
      1 CA         18.9713  -23.4085  -48.2945 C.3       0 UNK        -0.2013 
      2 C          19.5154  -24.6351  -47.5784 C.2       0 UNK         0.4866 
      3 O          20.7101  -24.6955  -47.2835 O.2       0 UNK        -0.5176 
      4 N          18.6514  -25.6167  -47.2915 N.am      1 UNK        -0.4884 
      5 CA         18.9781  -26.8540  -46.5766 C.3       1 UNK         0.0853 
      6 C6         18.0205  -28.0138  -46.9602 C.3       10 UNK        -0.0849 
      7 S7         16.2353  -27.6508  -46.7599 S.3       10 UNK        -0.2776 
      8 C8         15.5035  -29.3222  -46.7028 C.3       10 UNK         0.0316 
      9 C9         16.0799  -30.1767  -45.5808 C.ar      10 UNK        -0.0863 
     10 C10        16.9578  -31.2250  -45.8807 C.ar      10 UNK        -0.1009 
     11 C11        17.5278  -31.9830  -44.8554 C.ar      10 UNK        -0.0712 
     12 C12        17.1774  -31.7234  -43.5304 C.ar      10 UNK        -0.0894 
     13 C13        16.3386  -30.6526  -43.2140 C.ar      10 UNK        -0.0745 
     14 C14        15.7746  -29.8932  -44.2443 C.ar      10 UNK        -0.0972 
     15 C15        16.1082  -30.2853  -41.7546 C.3       10 UNK         0.0209 
     16 S16        17.2770  -29.0039  -41.1765 S.3       10 UNK        -0.2568 
     17 C17        18.9027  -29.7939  -41.4689 C.3       10 UNK        -0.0983 
     18 CA         20.1204  -28.8523  -41.3368 C.3       3 UNK         0.0876 
     19 N          19.9528  -27.6224  -42.1197 N.am      3 UNK        -0.4424 
     20 C          20.9112  -26.7399  -42.4176 C.2       2 UNK         0.4918 
     21 O          22.0789  -26.8668  -42.0483 O.2       2 UNK        -0.4875 
     22 CA         20.4882  -25.5310  -43.2748 C.3       2 UNK         0.0481 
     23 CB         21.5624  -24.4298  -43.3039 C.3       2 UNK        -0.1831 
     24 N          20.1665  -25.9084  -44.6528 N.am      2 UNK        -0.4498 
     25 C          19.0913  -26.5992  -45.0552 C.2       1 UNK         0.5027 
     26 O          18.2153  -26.9883  -44.2813 O.2       1 UNK        -0.4969 
     27 C          20.5438  -28.6324  -39.8703 C.2       3 UNK         0.5005 
     28 O          21.0370  -29.5730  -39.2440 O.2       3 UNK        -0.5279 
     29 N          20.4082  -27.3985  -39.3653 N.am      4 UNK        -0.4463 
     30 CA         20.9572  -26.9262  -38.0953 C.3       4 UNK         0.0283 
     31 CB         20.2989  -25.5812  -37.7378 C.3       4 UNK        -0.1875 
     32 C          22.4952  -26.8263  -38.1553 C.2       4 UNK         0.4949 
     33 O          23.0422  -25.7314  -38.2889 O.2       4 UNK        -0.5039 
     34 N          23.1553  -27.9891  -38.0909 N.am      5 UNK        -0.4663 
     35 CA         24.6011  -28.2447  -38.0047 C.3       5 UNK         0.0242 
     36 CB         25.1983  -27.5940  -36.7409 C.3       5 UNK        -0.1982 
     37 C          25.4427  -27.8934  -39.2473 C.2       5 UNK         0.5017 
     38 O          26.5134  -28.4809  -39.4025 O.2       5 UNK        -0.5012 
     39 N          24.9850  -26.9664  -40.0998 N.am      6 UNK        -0.4439 
     40 CA         25.6928  -26.5409  -41.3114 C.3       6 UNK         0.0297 
     41 CB         25.1341  -25.2005  -41.8154 C.3       6 UNK        -0.2006 
     42 C          25.6809  -27.6252  -42.4024 C.2       6 UNK         0.4892 
     43 O          26.7492  -28.0937  -42.7979 O.2       6 UNK        -0.5089 
     44 N          24.4810  -28.0227  -42.8486 N.am      7 UNK        -0.4243 
     45 CA         24.2813  -29.1527  -43.7630 C.3       7 UNK         0.0196 
     46 CB         22.9665  -28.9766  -44.5426 C.3       7 UNK        -0.2007 
     47 C          24.2882  -30.4920  -43.0087 C.2       7 UNK         0.5020 
     48 O          24.7772  -31.4847  -43.5459 O.2       7 UNK        -0.5147 
     49 N          23.7487  -30.4847  -41.7785 N.am      8 UNK        -0.4734 
     50 CA         23.7224  -31.5768  -40.7915 C.3       8 UNK         0.0238 
     51 CB         25.1552  -31.8932  -40.3125 C.3       8 UNK        -0.1912 
     52 C          22.9723  -32.8597  -41.2148 C.2       8 UNK         0.5038 
     53 O          23.0938  -33.8719  -40.5227 O.2       8 UNK        -0.5046 
     54 N          22.2060  -32.8142  -42.3129 N.am      9 UNK        -0.4200 
     55 CA         21.4324  -33.9502  -42.8440 C.3       9 UNK         0.0839 
     56 C          20.1373  -34.3034  -42.0528 C.2       9 UNK         0.5513 
     57 N          19.7330  -33.5315  -41.0510 N.am      9 UNK        -0.7519 
     58 O          19.4950  -35.3080  -42.3471 O.2       9 UNK        -0.4960 
     59 C59        21.1861  -33.8173  -44.3719 C.3       10 UNK        -0.0876 
     60 S60        20.2429  -32.3269  -44.8415 S.3       10 UNK        -0.2414 
     61 C61        18.5881  -33.0275  -45.1519 C.3       10 UNK         0.0169 
     62 H62        17.9036  -23.4939  -48.4958 H         1 UNK         0.0903 
     63 H63        19.1322  -22.5180  -47.6875 H         1 UNK         0.0903 
     64 H64        19.4858  -23.2707  -49.2452 H         1 UNK         0.0903 
     65 H65        17.6738  -25.5110  -47.5277 H         1 UNK         0.3096 
     66 H66        19.9729  -27.1727  -46.8981 H         1 UNK         0.1121 
     67 H67        18.1841  -28.2867  -48.0038 H         1 UNK         0.0849 
     68 H68        18.2900  -28.8985  -46.3835 H         1 UNK         0.0849 
     69 H69        14.4249  -29.2316  -46.5671 H         1 UNK         0.0865 
     70 H70        15.6475  -29.8060  -47.6702 H         1 UNK         0.0865 
     71 H71        17.2326  -31.4225  -46.9079 H         1 UNK         0.1346 
     72 H72        17.6334  -32.3006  -42.7374 H         1 UNK         0.1412 
     73 H73        15.1340  -29.0548  -44.0064 H         1 UNK         0.1426 
     74 H74        16.2018  -31.1682  -41.1202 H         1 UNK         0.0716 
     75 H75        15.0885  -29.9206  -41.6224 H         1 UNK         0.0716 
     76 H76        18.9230  -30.1706  -42.4892 H         1 UNK         0.0695 
     77 H77        18.9978  -30.6695  -40.8243 H         1 UNK         0.0695 
     78 H78        20.9641  -29.3794  -41.7851 H         1 UNK         0.0983 
     79 H79        19.0345  -27.4796  -42.5319 H         1 UNK         0.3095 
     80 H80        19.5923  -25.1060  -42.8176 H         1 UNK         0.0454 
     81 H81        21.8294  -24.1157  -42.2940 H         1 UNK         0.0851 
     82 H82        21.2079  -23.5449  -43.8327 H         1 UNK         0.0851 
     83 H83        22.4747  -24.7687  -43.7962 H         1 UNK         0.0851 
     84 H84        20.7946  -25.5716  -45.3746 H         1 UNK         0.2976 
     85 H85        20.0040  -26.6966  -39.9673 H         1 UNK         0.3116 
     86 H86        20.6974  -27.6441  -37.3143 H         1 UNK         0.0646 
     87 H87        19.2192  -25.6841  -37.6280 H         1 UNK         0.0847 
     88 H88        20.4885  -24.8205  -38.4963 H         1 UNK         0.0847 
     89 H89        20.6842  -25.1992  -36.7914 H         1 UNK         0.0847 
     90 H90        22.5733  -28.8216  -38.1153 H         1 UNK         0.3040 
     91 H91        24.6933  -29.3258  -37.8857 H         1 UNK         0.1015 
     92 H92        26.2446  -27.8759  -36.6140 H         1 UNK         0.0786 
     93 H93        24.6681  -27.9104  -35.8427 H         1 UNK         0.0786 
     94 H94        25.1616  -26.5051  -36.7873 H         1 UNK         0.0786 
     95 H95        24.1228  -26.4890  -39.8604 H         1 UNK         0.3172 
     96 H96        26.7372  -26.3680  -41.0421 H         1 UNK         0.0595 
     97 H97        25.6195  -24.8976  -42.7441 H         1 UNK         0.0839 
     98 H98        25.3036  -24.4064  -41.0881 H         1 UNK         0.0839 
     99 H99        24.0645  -25.2480  -42.0061 H         1 UNK         0.0839 
    100 H100       23.6458  -27.5570  -42.4952 H         1 UNK         0.2998 
    101 H101       25.0993  -29.1707  -44.4867 H         1 UNK         0.0822 
    102 H102       22.8580  -29.7564  -45.2978 H         1 UNK         0.0787 
    103 H103       22.9362  -28.0174  -45.0598 H         1 UNK         0.0787 
    104 H104       22.0931  -29.0360  -43.8948 H         1 UNK         0.0787 
    105 H105       23.3832  -29.6022  -41.4513 H         1 UNK         0.3055 
    106 H106       23.1704  -31.1913  -39.9327 H         1 UNK         0.1106 
    107 H107       25.6751  -30.9936  -39.9860 H         1 UNK         0.0828 
    108 H108       25.1472  -32.5822  -39.4670 H         1 UNK         0.0828 
    109 H109       25.7510  -32.3543  -41.1009 H         1 UNK         0.0828 
    110 H110       22.1557  -31.9559  -42.8400 H         1 UNK         0.2931 
    111 H111       22.0673  -34.8309  -42.7279 H         1 UNK         0.0412 
    112 H112       20.2717  -32.7270  -40.7773 H         1 UNK         0.3472 
    113 H113       18.9044  -33.7863  -40.5373 H         1 UNK         0.3472 
    114 H114       20.6953  -34.7095  -44.7654 H         1 UNK         0.0970 
    115 H115       22.1474  -33.7717  -44.8861 H         1 UNK         0.0970 
    116 H116       18.5253  -33.3693  -46.1860 H         1 UNK         0.0612 
    117 H117       18.4174  -33.9014  -44.5223 H         1 UNK         0.0612 
@<TRIPOS>BOND
     1    1    2 1    
     2    1   62 1    
     3    1   63 1    
     4    1   64 1    
     5    2    3 2    
     6    2    4 am   BACKBONE|DICT|INTERRES
     7    4    5 1    
     8    4   65 1    
     9    5    6 1    
    10    5   25 1    
    11    5   66 1    
    12    6    7 1    
    13    6   67 1    
    14    6   68 1    
    15    7    8 1    
    16    8    9 1    
    17    8   69 1    
    18    8   70 1    
    19    9   10 ar   
    20    9   14 ar   
    21   10   11 ar   
    22   10   71 1    
    23   11   12 ar   
    24   11   61 1    
    25   12   13 ar   
    26   12   72 1    
    27   13   14 ar   
    28   13   15 1    
    29   14   73 1    
    30   15   16 1    
    31   15   74 1    
    32   15   75 1    
    33   16   17 1    
    34   17   18 1    
    35   17   76 1    
    36   17   77 1    
    37   18   19 1    
    38   18   27 1    
    39   18   78 1    
    40   19   20 am   BACKBONE|DICT|INTERRES
    41   19   79 1    
    42   20   21 2    
    43   20   22 1    
    44   22   23 1    
    45   22   24 1    
    46   22   80 1    
    47   23   81 1    
    48   23   82 1    
    49   23   83 1    
    50   24   25 am   BACKBONE|DICT|INTERRES
    51   24   84 1    
    52   25   26 2    
    53   27   28 2    
    54   27   29 am   BACKBONE|DICT|INTERRES
    55   29   30 1    
    56   29   85 1    
    57   30   31 1    
    58   30   32 1    
    59   30   86 1    
    60   31   87 1    
    61   31   88 1    
    62   31   89 1    
    63   32   33 2    
    64   32   34 am   BACKBONE|DICT|INTERRES
    65   34   35 1    
    66   34   90 1    
    67   35   36 1    
    68   35   37 1    
    69   35   91 1    
    70   36   92 1    
    71   36   93 1    
    72   36   94 1    
    73   37   38 2    
    74   37   39 am   BACKBONE|DICT|INTERRES
    75   39   40 1    
    76   39   95 1    
    77   40   41 1    
    78   40   42 1    
    79   40   96 1    
    80   41   97 1    
    81   41   98 1    
    82   41   99 1    
    83   42   43 2    
    84   42   44 am   BACKBONE|DICT|INTERRES
    85   44   45 1    
    86   44  100 1    
    87   45   46 1    
    88   45   47 1    
    89   45  101 1    
    90   46  102 1    
    91   46  103 1    
    92   46  104 1    
    93   47   48 2    
    94   47   49 am   BACKBONE|DICT|INTERRES
    95   49   50 1    
    96   49  105 1    
    97   50   51 1    
    98   50   52 1    
    99   50  106 1    
   100   51  107 1    
   101   51  108 1    
   102   51  109 1    
   103   52   53 2    
   104   52   54 am   BACKBONE|DICT|INTERRES
   105   54   55 1    
   106   54  110 1    
   107   55   56 1    
   108   55   59 1    
   109   55  111 1    
   110   56   57 am   BACKBONE|DICT|INTERRES
   111   56   58 2    
   112   57  112 1    
   113   57  113 1    
   114   59   60 1    
   115   59  114 1    
   116   59  115 1    
   117   60   61 1    
   118   61  116 1    
   119   61  117 1    
@<TRIPOS>SUBSTRUCTURE
     1 UNK         1 GROUP             0       ****    0 ROOT    
