@<TRIPOS>MOLECULE
3R8
117   119    1
SMALL
USER_CHARGES


@<TRIPOS>ATOM
      1 CA         16.1115  -23.9568  -46.6025 C.3       0 UNK        -0.2013 
      2 C          17.6090  -24.0954  -46.8312 C.2       0 UNK         0.4866 
      3 O          18.2689  -23.1178  -47.1832 O.2       0 UNK        -0.5176 
      4 N          18.1531  -25.3026  -46.6276 N.am      1 UNK        -0.4884 
      5 CA         19.5776  -25.6216  -46.8063 C.3       1 UNK         0.0853 
      6 C6         19.7735  -27.1249  -47.1433 C.3       10 UNK        -0.0849 
      7 S7         19.5356  -28.2513  -45.7251 S.3       10 UNK        -0.2776 
      8 C8         17.9378  -29.0404  -46.0747 C.3       10 UNK         0.0316 
      9 C9         17.5513  -29.9031  -44.8862 C.ar      10 UNK        -0.0863 
     10 C10        17.8934  -31.2583  -44.8548 C.ar      10 UNK        -0.1009 
     11 C11        17.6427  -32.0332  -43.7171 C.ar      10 UNK        -0.0712 
     12 C12        17.0116  -31.4388  -42.6178 C.ar      10 UNK        -0.0894 
     13 C13        16.6757  -30.0830  -42.6349 C.ar      10 UNK        -0.0745 
     14 C14        16.9258  -29.3236  -43.7797 C.ar      10 UNK        -0.0972 
     15 C15        16.1066  -29.4310  -41.3869 C.3       10 UNK         0.0209 
     16 S16        17.4366  -29.0527  -40.1996 S.3       10 UNK        -0.2568 
     17 C17        18.2504  -27.6115  -40.9733 C.3       10 UNK        -0.0983 
     18 CA         19.5366  -27.9352  -41.7973 C.3       3 UNK         0.0876 
     19 N          19.9031  -26.7894  -42.6407 N.am      3 UNK        -0.4424 
     20 C          20.3574  -25.6042  -42.2020 C.2       2 UNK         0.4918 
     21 O          20.7097  -25.4033  -41.0391 O.2       2 UNK        -0.4875 
     22 CA         20.3413  -24.4147  -43.1818 C.3       2 UNK         0.0481 
     23 CB         21.6725  -23.6354  -43.2051 C.3       2 UNK        -0.1831 
     24 N          19.8170  -24.7477  -44.5149 N.am      2 UNK        -0.4498 
     25 C          20.4607  -25.1706  -45.6152 C.2       1 UNK         0.5027 
     26 O          21.6838  -25.2517  -45.7181 O.2       1 UNK        -0.4969 
     27 C          20.7441  -28.4395  -40.9721 C.2       3 UNK         0.5005 
     28 O          21.7661  -28.8133  -41.5546 O.2       3 UNK        -0.5279 
     29 N          20.6233  -28.4209  -39.6383 N.am      4 UNK        -0.4463 
     30 CA         21.6527  -28.8226  -38.6799 C.3       4 UNK         0.0283 
     31 CB         21.0428  -28.8618  -37.2701 C.3       4 UNK        -0.1875 
     32 C          22.9075  -27.9330  -38.6968 C.2       4 UNK         0.4949 
     33 O          23.9810  -28.4255  -38.3534 O.2       4 UNK        -0.5039 
     34 N          22.7788  -26.6651  -39.1196 N.am      5 UNK        -0.4663 
     35 CA         23.9130  -25.7459  -39.2747 C.3       5 UNK         0.0242 
     36 CB         23.4119  -24.2943  -39.3243 C.3       5 UNK        -0.1982 
     37 C          24.7690  -26.0746  -40.5103 C.2       5 UNK         0.5017 
     38 O          25.9730  -25.8187  -40.4928 O.2       5 UNK        -0.5012 
     39 N          24.1441  -26.6641  -41.5396 N.am      6 UNK        -0.4439 
     40 CA         24.8226  -27.2318  -42.7077 C.3       6 UNK         0.0297 
     41 CB         23.8727  -27.1812  -43.9156 C.3       6 UNK        -0.2006 
     42 C          25.2962  -28.6771  -42.4679 C.2       6 UNK         0.4892 
     43 O          26.0956  -29.1785  -43.2590 O.2       6 UNK        -0.5089 
     44 N          24.7765  -29.3192  -41.4089 N.am      7 UNK        -0.4243 
     45 CA         24.9111  -30.7372  -41.0591 C.3       7 UNK         0.0196 
     46 CB         26.3649  -31.0798  -40.6711 C.3       7 UNK        -0.2007 
     47 C          24.3398  -31.6476  -42.1628 C.2       7 UNK         0.5020 
     48 O          24.9609  -32.6475  -42.5257 O.2       7 UNK        -0.5147 
     49 N          23.1697  -31.2624  -42.6940 N.am      8 UNK        -0.4734 
     50 CA         22.5338  -31.8803  -43.8628 C.3       8 UNK         0.0238 
     51 CB         21.3473  -31.0080  -44.2948 C.3       8 UNK        -0.1912 
     52 C          22.0863  -33.3391  -43.6602 C.2       8 UNK         0.5038 
     53 O          22.0704  -34.1029  -44.6265 O.2       8 UNK        -0.5046 
     54 N          21.7364  -33.6951  -42.4213 N.am      9 UNK        -0.4200 
     55 CA         21.2862  -35.0326  -42.0072 C.3       9 UNK         0.0839 
     56 C          21.5347  -35.3120  -40.4965 C.2       9 UNK         0.5513 
     57 N          22.4217  -34.5816  -39.8291 N.am      9 UNK        -0.7519 
     58 O          20.9369  -36.2161  -39.9184 O.2       9 UNK        -0.4960 
     59 C59        19.8441  -35.3689  -42.4914 C.3       10 UNK        -0.0876 
     60 S60        18.6128  -34.0923  -42.0515 S.3       10 UNK        -0.2414 
     61 C61        18.0883  -33.4947  -43.6985 C.3       10 UNK         0.0169 
     62 H62        15.6211  -23.6328  -47.5201 H         1 UNK         0.0903 
     63 H63        15.6565  -24.8963  -46.2893 H         1 UNK         0.0903 
     64 H64        15.9167  -23.2119  -45.8314 H         1 UNK         0.0903 
     65 H65        17.5651  -26.0722  -46.3422 H         1 UNK         0.3096 
     66 H66        19.9365  -25.0548  -47.6689 H         1 UNK         0.1121 
     67 H67        20.7871  -27.2841  -47.5164 H         1 UNK         0.0849 
     68 H68        19.1166  -27.4189  -47.9636 H         1 UNK         0.0849 
     69 H69        18.0127  -29.6415  -46.9824 H         1 UNK         0.0865 
     70 H70        17.1728  -28.2850  -46.2580 H         1 UNK         0.0865 
     71 H71        18.3939  -31.7003  -45.7056 H         1 UNK         0.1346 
     72 H72        16.8164  -32.0159  -41.7249 H         1 UNK         0.1412 
     73 H73        16.6860  -28.2692  -43.7891 H         1 UNK         0.1426 
     74 H74        15.3922  -30.1069  -40.9147 H         1 UNK         0.0716 
     75 H75        15.5526  -28.5238  -41.6330 H         1 UNK         0.0716 
     76 H76        18.4588  -26.8744  -40.1958 H         1 UNK         0.0695 
     77 H77        17.5187  -27.1283  -41.6224 H         1 UNK         0.0695 
     78 H78        19.3037  -28.7489  -42.4847 H         1 UNK         0.0983 
     79 H79        19.7104  -26.8960  -43.6270 H         1 UNK         0.3095 
     80 H80        19.5990  -23.7290  -42.7712 H         1 UNK         0.0454 
     81 H81        22.5189  -24.2774  -43.4437 H         1 UNK         0.0851 
     82 H82        21.8756  -23.1899  -42.2314 H         1 UNK         0.0851 
     83 H83        21.6479  -22.8225  -43.9305 H         1 UNK         0.0851 
     84 H84        18.8096  -24.7120  -44.5885 H         1 UNK         0.2976 
     85 H85        19.7382  -28.1196  -39.2543 H         1 UNK         0.3116 
     86 H86        21.9682  -29.8346  -38.9428 H         1 UNK         0.0646 
     87 H87        20.2047  -29.5571  -37.2183 H         1 UNK         0.0847 
     88 H88        20.6864  -27.8800  -36.9561 H         1 UNK         0.0847 
     89 H89        21.7793  -29.1909  -36.5354 H         1 UNK         0.0847 
     90 H90        21.8716  -26.3310  -39.4265 H         1 UNK         0.3040 
     91 H91        24.5567  -25.8464  -38.3975 H         1 UNK         0.1015 
     92 H92        24.2496  -23.5962  -39.3522 H         1 UNK         0.0786 
     93 H93        22.8148  -24.0488  -38.4460 H         1 UNK         0.0786 
     94 H94        22.8046  -24.1035  -40.2078 H         1 UNK         0.0786 
     95 H95        23.1531  -26.8506  -41.4565 H         1 UNK         0.3172 
     96 H96        25.7041  -26.6324  -42.9448 H         1 UNK         0.0595 
     97 H97        22.9314  -27.6968  -43.7224 H         1 UNK         0.0839 
     98 H98        24.3237  -27.6483  -44.7922 H         1 UNK         0.0839 
     99 H99        23.6444  -26.1532  -44.1896 H         1 UNK         0.0839 
    100 H100       24.1159  -28.8024  -40.8457 H         1 UNK         0.2998 
    101 H101       24.2884  -30.8954  -40.1772 H         1 UNK         0.0822 
    102 H102       26.7293  -30.4198  -39.8837 H         1 UNK         0.0787 
    103 H103       26.4378  -32.1016  -40.2969 H         1 UNK         0.0787 
    104 H104       27.0437  -30.9964  -41.5203 H         1 UNK         0.0787 
    105 H105       22.7304  -30.4197  -42.3320 H         1 UNK         0.3055 
    106 H106       23.2684  -31.8816  -44.6711 H         1 UNK         0.1106 
    107 H107       20.8814  -31.3999  -45.1995 H         1 UNK         0.0828 
    108 H108       21.6666  -29.9887  -44.5121 H         1 UNK         0.0828 
    109 H109       20.5777  -30.9590  -43.5233 H         1 UNK         0.0828 
    110 H110       21.7487  -32.9948  -41.6949 H         1 UNK         0.2931 
    111 H111       21.9490  -35.7463  -42.5001 H         1 UNK         0.0412 
    112 H112       22.9987  -33.9046  -40.2998 H         1 UNK         0.3472 
    113 H113       22.5759  -34.7789  -38.8524 H         1 UNK         0.3472 
    114 H114       19.8537  -35.5115  -43.5724 H         1 UNK         0.0970 
    115 H115       19.5092  -36.3271  -42.0906 H         1 UNK         0.0970 
    116 H116       17.2751  -34.1231  -44.0631 H         1 UNK         0.0612 
    117 H117       18.9177  -33.6174  -44.3967 H         1 UNK         0.0612 
@<TRIPOS>BOND
     1    1    2 1    
     2    1   62 1    
     3    1   63 1    
     4    1   64 1    
     5    2    3 2    
     6    2    4 am   BACKBONE|DICT|INTERRES
     7    4    5 1    
     8    4   65 1    
     9    5    6 1    
    10    5   25 1    
    11    5   66 1    
    12    6    7 1    
    13    6   67 1    
    14    6   68 1    
    15    7    8 1    
    16    8    9 1    
    17    8   69 1    
    18    8   70 1    
    19    9   10 ar   
    20    9   14 ar   
    21   10   11 ar   
    22   10   71 1    
    23   11   12 ar   
    24   11   61 1    
    25   12   13 ar   
    26   12   72 1    
    27   13   14 ar   
    28   13   15 1    
    29   14   73 1    
    30   15   16 1    
    31   15   74 1    
    32   15   75 1    
    33   16   17 1    
    34   17   18 1    
    35   17   76 1    
    36   17   77 1    
    37   18   19 1    
    38   18   27 1    
    39   18   78 1    
    40   19   20 am   BACKBONE|DICT|INTERRES
    41   19   79 1    
    42   20   21 2    
    43   20   22 1    
    44   22   23 1    
    45   22   24 1    
    46   22   80 1    
    47   23   81 1    
    48   23   82 1    
    49   23   83 1    
    50   24   25 am   BACKBONE|DICT|INTERRES
    51   24   84 1    
    52   25   26 2    
    53   27   28 2    
    54   27   29 am   BACKBONE|DICT|INTERRES
    55   29   30 1    
    56   29   85 1    
    57   30   31 1    
    58   30   32 1    
    59   30   86 1    
    60   31   87 1    
    61   31   88 1    
    62   31   89 1    
    63   32   33 2    
    64   32   34 am   BACKBONE|DICT|INTERRES
    65   34   35 1    
    66   34   90 1    
    67   35   36 1    
    68   35   37 1    
    69   35   91 1    
    70   36   92 1    
    71   36   93 1    
    72   36   94 1    
    73   37   38 2    
    74   37   39 am   BACKBONE|DICT|INTERRES
    75   39   40 1    
    76   39   95 1    
    77   40   41 1    
    78   40   42 1    
    79   40   96 1    
    80   41   97 1    
    81   41   98 1    
    82   41   99 1    
    83   42   43 2    
    84   42   44 am   BACKBONE|DICT|INTERRES
    85   44   45 1    
    86   44  100 1    
    87   45   46 1    
    88   45   47 1    
    89   45  101 1    
    90   46  102 1    
    91   46  103 1    
    92   46  104 1    
    93   47   48 2    
    94   47   49 am   BACKBONE|DICT|INTERRES
    95   49   50 1    
    96   49  105 1    
    97   50   51 1    
    98   50   52 1    
    99   50  106 1    
   100   51  107 1    
   101   51  108 1    
   102   51  109 1    
   103   52   53 2    
   104   52   54 am   BACKBONE|DICT|INTERRES
   105   54   55 1    
   106   54  110 1    
   107   55   56 1    
   108   55   59 1    
   109   55  111 1    
   110   56   57 am   BACKBONE|DICT|INTERRES
   111   56   58 2    
   112   57  112 1    
   113   57  113 1    
   114   59   60 1    
   115   59  114 1    
   116   59  115 1    
   117   60   61 1    
   118   61  116 1    
   119   61  117 1    
@<TRIPOS>SUBSTRUCTURE
     1 UNK         1 GROUP             0       ****    0 ROOT    
