@<TRIPOS>MOLECULE
3R8
117   119    1
SMALL
USER_CHARGES


@<TRIPOS>ATOM
      1 CA         17.9817  -23.8113  -47.0682 C.3       0 UNK        -0.2013 
      2 C          17.8934  -25.1010  -46.2667 C.2       0 UNK         0.4866 
      3 O          18.8429  -25.4421  -45.5590 O.2       0 UNK        -0.5176 
      4 N          16.7615  -25.8145  -46.3762 N.am      1 UNK        -0.4884 
      5 CA         16.4569  -27.0640  -45.6683 C.3       1 UNK         0.0853 
      6 C6         15.1660  -27.7217  -46.2259 C.3       10 UNK        -0.0849 
      7 S7         14.5713  -29.2147  -45.3511 S.3       10 UNK        -0.2776 
      8 C8         15.7585  -30.4997  -45.8666 C.3       10 UNK         0.0316 
      9 C9         17.0237  -30.4846  -45.0175 C.ar      10 UNK        -0.0863 
     10 C10        16.9481  -30.7188  -43.6406 C.ar      10 UNK        -0.1009 
     11 C11        18.0979  -30.6960  -42.8460 C.ar      10 UNK        -0.0712 
     12 C12        19.3356  -30.4352  -43.4444 C.ar      10 UNK        -0.0894 
     13 C13        19.4301  -30.2333  -44.8241 C.ar      10 UNK        -0.0745 
     14 C14        18.2712  -30.2572  -45.6053 C.ar      10 UNK        -0.0972 
     15 C15        20.7835  -30.0203  -45.4828 C.3       10 UNK         0.0209 
     16 S16        21.2056  -28.2562  -45.6038 S.3       10 UNK        -0.2568 
     17 C17        22.0418  -27.9742  -44.0080 C.3       10 UNK        -0.0983 
     18 CA         21.6340  -26.6310  -43.3448 C.3       3 UNK         0.0876 
     19 N          20.1913  -26.5481  -43.0743 N.am      3 UNK        -0.4424 
     20 C          19.5026  -27.1618  -42.0937 C.2       2 UNK         0.4918 
     21 O          20.0033  -27.8621  -41.2148 O.2       2 UNK        -0.4875 
     22 CA         17.9806  -26.9783  -42.1281 C.3       2 UNK         0.0481 
     23 CB         17.6275  -25.5785  -41.5797 C.3       2 UNK        -0.1831 
     24 N          17.5599  -27.1866  -43.5122 N.am      2 UNK        -0.4498 
     25 C          16.4400  -26.8214  -44.1432 C.2       1 UNK         0.5027 
     26 O          15.4699  -26.2741  -43.6150 O.2       1 UNK        -0.4969 
     27 C          22.4925  -26.3219  -42.0979 C.2       3 UNK         0.5005 
     28 O          23.4498  -27.0460  -41.8261 O.2       3 UNK        -0.5279 
     29 N          22.1214  -25.2753  -41.3438 N.am      4 UNK        -0.4463 
     30 CA         22.5779  -24.9722  -39.9766 C.3       4 UNK         0.0283 
     31 CB         21.9526  -23.6416  -39.5267 C.3       4 UNK        -0.1875 
     32 C          24.1005  -24.9542  -39.7280 C.2       4 UNK         0.4949 
     33 O          24.5227  -25.1718  -38.5923 O.2       4 UNK        -0.5039 
     34 N          24.8960  -24.7111  -40.7768 N.am      5 UNK        -0.4663 
     35 CA         26.3588  -24.7653  -40.7433 C.3       5 UNK         0.0242 
     36 CB         26.9081  -24.0269  -41.9754 C.3       5 UNK        -0.1982 
     37 C          26.9389  -26.1938  -40.6744 C.2       5 UNK         0.5017 
     38 O          28.1044  -26.3308  -40.2992 O.2       5 UNK        -0.5012 
     39 N          26.1571  -27.2161  -41.0543 N.am      6 UNK        -0.4439 
     40 CA         26.6026  -28.6118  -41.1556 C.3       6 UNK         0.0297 
     41 CB         26.8987  -28.9416  -42.6288 C.3       6 UNK        -0.2006 
     42 C          25.6048  -29.6276  -40.5741 C.2       6 UNK         0.4892 
     43 O          26.0464  -30.6693  -40.0874 O.2       6 UNK        -0.5089 
     44 N          24.2991  -29.3267  -40.6368 N.am      7 UNK        -0.4243 
     45 CA         23.1639  -30.1759  -40.2656 C.3       7 UNK         0.0196 
     46 CB         23.1160  -30.4080  -38.7380 C.3       7 UNK        -0.2007 
     47 C          23.1278  -31.4616  -41.1137 C.2       7 UNK         0.5020 
     48 O          22.8773  -31.3720  -42.3171 O.2       7 UNK        -0.5147 
     49 N          23.3629  -32.6210  -40.4808 N.am      8 UNK        -0.4734 
     50 CA         23.3590  -33.9914  -41.0188 C.3       8 UNK         0.0238 
     51 CB         24.3894  -34.1693  -42.1524 C.3       8 UNK        -0.1912 
     52 C          21.9624  -34.4847  -41.4342 C.2       8 UNK         0.5038 
     53 O          21.5126  -35.5117  -40.9247 O.2       8 UNK        -0.5046 
     54 N          21.3002  -33.7284  -42.3165 N.am      9 UNK        -0.4200 
     55 CA         19.8970  -33.8859  -42.7363 C.3       9 UNK         0.0839 
     56 C          19.5829  -35.1924  -43.5254 C.2       9 UNK         0.5513 
     57 N          20.5706  -35.8590  -44.1110 N.am      9 UNK        -0.7519 
     58 O          18.4279  -35.5961  -43.6362 O.2       9 UNK        -0.4960 
     59 C59        18.8887  -33.6182  -41.5781 C.3       10 UNK        -0.0876 
     60 S60        19.2307  -32.0686  -40.6666 S.3       10 UNK        -0.2414 
     61 C61        17.9793  -30.9284  -41.3422 C.3       10 UNK         0.0169 
     62 H62        17.0822  -23.6322  -47.6568 H         1 UNK         0.0903 
     63 H63        18.1238  -22.9637  -46.3984 H         1 UNK         0.0903 
     64 H64        18.8307  -23.8526  -47.7501 H         1 UNK         0.0903 
     65 H65        16.0178  -25.4560  -46.9585 H         1 UNK         0.3096 
     66 H66        17.2795  -27.7440  -45.8912 H         1 UNK         0.1121 
     67 H67        15.3042  -27.9722  -47.2789 H         1 UNK         0.0849 
     68 H68        14.3493  -26.9979  -46.2007 H         1 UNK         0.0849 
     69 H69        15.2829  -31.4760  -45.7622 H         1 UNK         0.0865 
     70 H70        15.9879  -30.3857  -46.9273 H         1 UNK         0.0865 
     71 H71        15.9841  -30.9051  -43.1867 H         1 UNK         0.1346 
     72 H72        20.2287  -30.4118  -42.8348 H         1 UNK         0.1412 
     73 H73        18.3442  -30.0971  -46.6727 H         1 UNK         0.1426 
     74 H74        21.5640  -30.5586  -44.9419 H         1 UNK         0.0716 
     75 H75        20.7714  -30.4435  -46.4884 H         1 UNK         0.0716 
     76 H76        23.1146  -27.9968  -44.2091 H         1 UNK         0.0695 
     77 H77        21.8462  -28.8040  -43.3275 H         1 UNK         0.0695 
     78 H78        21.8553  -25.8342  -44.0568 H         1 UNK         0.0983 
     79 H79        19.6655  -26.0216  -43.7669 H         1 UNK         0.3095 
     80 H80        17.5142  -27.7428  -41.5059 H         1 UNK         0.0454 
     81 H81        16.5564  -25.4710  -41.4122 H         1 UNK         0.0851 
     82 H82        17.9435  -24.7837  -42.2561 H         1 UNK         0.0851 
     83 H83        18.1112  -25.4017  -40.6178 H         1 UNK         0.0851 
     84 H84        18.2680  -27.6414  -44.0756 H         1 UNK         0.2976 
     85 H85        21.3356  -24.7323  -41.6716 H         1 UNK         0.3116 
     86 H86        22.1748  -25.7628  -39.3404 H         1 UNK         0.0646 
     87 H87        20.8635  -23.6848  -39.5471 H         1 UNK         0.0847 
     88 H88        22.2430  -23.3972  -38.5038 H         1 UNK         0.0847 
     89 H89        22.2700  -22.8133  -40.1613 H         1 UNK         0.0847 
     90 H90        24.4623  -24.5537  -41.6750 H         1 UNK         0.3040 
     91 H91        26.7003  -24.2375  -39.8498 H         1 UNK         0.1015 
     92 H92        26.5948  -24.5043  -42.9049 H         1 UNK         0.0786 
     93 H93        27.9990  -24.0124  -41.9686 H         1 UNK         0.0786 
     94 H94        26.5732  -22.9897  -41.9993 H         1 UNK         0.0786 
     95 H95        25.1967  -27.0173  -41.3298 H         1 UNK         0.3172 
     96 H96        27.5274  -28.7438  -40.5901 H         1 UNK         0.0595 
     97 H97        26.0137  -28.8147  -43.2540 H         1 UNK         0.0839 
     98 H98        27.2325  -29.9743  -42.7401 H         1 UNK         0.0839 
     99 H99        27.6863  -28.3022  -43.0276 H         1 UNK         0.0839 
    100 H100       24.0277  -28.4600  -41.1013 H         1 UNK         0.2998 
    101 H101       22.2669  -29.6156  -40.5369 H         1 UNK         0.0822 
    102 H102       22.2393  -30.9941  -38.4582 H         1 UNK         0.0787 
    103 H103       23.9991  -30.9267  -38.3642 H         1 UNK         0.0787 
    104 H104       23.0458  -29.4591  -38.2060 H         1 UNK         0.0787 
    105 H105       23.5496  -32.5581  -39.4894 H         1 UNK         0.3055 
    106 H106       23.6779  -34.6309  -40.1937 H         1 UNK         0.1106 
    107 H107       24.4439  -35.2125  -42.4663 H         1 UNK         0.0828 
    108 H108       24.1415  -33.5797  -43.0352 H         1 UNK         0.0828 
    109 H109       25.3876  -33.8765  -41.8266 H         1 UNK         0.0828 
    110 H110       21.7665  -32.8814  -42.6288 H         1 UNK         0.2931 
    111 H111       19.7443  -33.1027  -43.4765 H         1 UNK         0.0412 
    112 H112       20.3634  -36.6989  -44.6283 H         1 UNK         0.3472 
    113 H113       21.5208  -35.5333  -44.0327 H         1 UNK         0.3472 
    114 H114       18.9127  -34.4415  -40.8624 H         1 UNK         0.0970 
    115 H115       17.8673  -33.5849  -41.9617 H         1 UNK         0.0970 
    116 H116       18.0800  -29.9707  -40.8319 H         1 UNK         0.0612 
    117 H117       16.9903  -31.3118  -41.0865 H         1 UNK         0.0612 
@<TRIPOS>BOND
     1    1    2 1    
     2    1   62 1    
     3    1   63 1    
     4    1   64 1    
     5    2    3 2    
     6    2    4 am   BACKBONE|DICT|INTERRES
     7    4    5 1    
     8    4   65 1    
     9    5    6 1    
    10    5   25 1    
    11    5   66 1    
    12    6    7 1    
    13    6   67 1    
    14    6   68 1    
    15    7    8 1    
    16    8    9 1    
    17    8   69 1    
    18    8   70 1    
    19    9   10 ar   
    20    9   14 ar   
    21   10   11 ar   
    22   10   71 1    
    23   11   12 ar   
    24   11   61 1    
    25   12   13 ar   
    26   12   72 1    
    27   13   14 ar   
    28   13   15 1    
    29   14   73 1    
    30   15   16 1    
    31   15   74 1    
    32   15   75 1    
    33   16   17 1    
    34   17   18 1    
    35   17   76 1    
    36   17   77 1    
    37   18   19 1    
    38   18   27 1    
    39   18   78 1    
    40   19   20 am   BACKBONE|DICT|INTERRES
    41   19   79 1    
    42   20   21 2    
    43   20   22 1    
    44   22   23 1    
    45   22   24 1    
    46   22   80 1    
    47   23   81 1    
    48   23   82 1    
    49   23   83 1    
    50   24   25 am   BACKBONE|DICT|INTERRES
    51   24   84 1    
    52   25   26 2    
    53   27   28 2    
    54   27   29 am   BACKBONE|DICT|INTERRES
    55   29   30 1    
    56   29   85 1    
    57   30   31 1    
    58   30   32 1    
    59   30   86 1    
    60   31   87 1    
    61   31   88 1    
    62   31   89 1    
    63   32   33 2    
    64   32   34 am   BACKBONE|DICT|INTERRES
    65   34   35 1    
    66   34   90 1    
    67   35   36 1    
    68   35   37 1    
    69   35   91 1    
    70   36   92 1    
    71   36   93 1    
    72   36   94 1    
    73   37   38 2    
    74   37   39 am   BACKBONE|DICT|INTERRES
    75   39   40 1    
    76   39   95 1    
    77   40   41 1    
    78   40   42 1    
    79   40   96 1    
    80   41   97 1    
    81   41   98 1    
    82   41   99 1    
    83   42   43 2    
    84   42   44 am   BACKBONE|DICT|INTERRES
    85   44   45 1    
    86   44  100 1    
    87   45   46 1    
    88   45   47 1    
    89   45  101 1    
    90   46  102 1    
    91   46  103 1    
    92   46  104 1    
    93   47   48 2    
    94   47   49 am   BACKBONE|DICT|INTERRES
    95   49   50 1    
    96   49  105 1    
    97   50   51 1    
    98   50   52 1    
    99   50  106 1    
   100   51  107 1    
   101   51  108 1    
   102   51  109 1    
   103   52   53 2    
   104   52   54 am   BACKBONE|DICT|INTERRES
   105   54   55 1    
   106   54  110 1    
   107   55   56 1    
   108   55   59 1    
   109   55  111 1    
   110   56   57 am   BACKBONE|DICT|INTERRES
   111   56   58 2    
   112   57  112 1    
   113   57  113 1    
   114   59   60 1    
   115   59  114 1    
   116   59  115 1    
   117   60   61 1    
   118   61  116 1    
   119   61  117 1    
@<TRIPOS>SUBSTRUCTURE
     1 UNK         1 GROUP             0       ****    0 ROOT    
