@<TRIPOS>MOLECULE
3R8
117   119    1
SMALL
USER_CHARGES


@<TRIPOS>ATOM
      1 CA         13.0187  -25.5910  -41.5253 C.3       0 UNK        -0.2013 
      2 C          13.9169  -25.7396  -42.7442 C.2       0 UNK         0.4866 
      3 O          14.3236  -24.7360  -43.3296 O.2       0 UNK        -0.5176 
      4 N          14.2240  -26.9847  -43.1335 N.am      1 UNK        -0.4884 
      5 CA         15.0976  -27.3180  -44.2669 C.3       1 UNK         0.0853 
      6 C6         14.9788  -28.8202  -44.6347 C.3       10 UNK        -0.0849 
      7 S7         15.5162  -29.1953  -46.3383 S.3       10 UNK        -0.2776 
      8 C8         16.8843  -30.3838  -46.0798 C.3       10 UNK         0.0316 
      9 C9         18.2653  -29.7500  -45.9038 C.ar      10 UNK        -0.0863 
     10 C10        19.1860  -30.3262  -45.0203 C.ar      10 UNK        -0.1009 
     11 C11        20.4891  -29.8250  -44.9149 C.ar      10 UNK        -0.0712 
     12 C12        20.8683  -28.7342  -45.7009 C.ar      10 UNK        -0.0894 
     13 C13        19.9634  -28.1462  -46.5887 C.ar      10 UNK        -0.0745 
     14 C14        18.6670  -28.6603  -46.6858 C.ar      10 UNK        -0.0972 
     15 C15        20.3988  -27.0007  -47.4942 C.3       10 UNK         0.0209 
     16 S16        20.1195  -25.3646  -46.7432 S.3       10 UNK        -0.2568 
     17 C17        21.5097  -25.2502  -45.5675 C.3       10 UNK        -0.0983 
     18 CA         21.0691  -25.0767  -44.0903 C.3       3 UNK         0.0876 
     19 N          20.0865  -26.0849  -43.6732 N.am      3 UNK        -0.4424 
     20 C          19.2113  -25.9261  -42.6732 C.2       2 UNK         0.4918 
     21 O          19.0703  -24.8815  -42.0352 O.2       2 UNK        -0.4875 
     22 CA         18.4007  -27.1753  -42.2877 C.3       2 UNK         0.0481 
     23 CB         18.3934  -27.3678  -40.7609 C.3       2 UNK        -0.1831 
     24 N          17.0185  -27.2007  -42.7661 N.am      2 UNK        -0.4498 
     25 C          16.5666  -26.9337  -44.0011 C.2       1 UNK         0.5027 
     26 O          17.2334  -26.4356  -44.9055 O.2       1 UNK        -0.4969 
     27 C          22.3180  -25.0764  -43.1784 C.2       3 UNK         0.5005 
     28 O          23.1544  -24.1822  -43.3123 O.2       3 UNK        -0.5279 
     29 N          22.4469  -26.0979  -42.3130 N.am      4 UNK        -0.4463 
     30 CA         23.6122  -26.4334  -41.4828 C.3       4 UNK         0.0283 
     31 CB         23.9492  -25.3067  -40.4831 C.3       4 UNK        -0.1875 
     32 C          24.8259  -26.8871  -42.3197 C.2       4 UNK         0.4949 
     33 O          25.9695  -26.7093  -41.8988 O.2       4 UNK        -0.5039 
     34 N          24.5513  -27.4881  -43.4877 N.am      5 UNK        -0.4663 
     35 CA         25.5511  -28.0839  -44.3808 C.3       5 UNK         0.0242 
     36 CB         24.9572  -28.2045  -45.7939 C.3       5 UNK        -0.1982 
     37 C          26.0449  -29.4564  -43.8868 C.2       5 UNK         0.5017 
     38 O          27.1070  -29.9061  -44.3181 O.2       5 UNK        -0.5012 
     39 N          25.2708  -30.0855  -42.9961 N.am      6 UNK        -0.4439 
     40 CA         25.6038  -31.3020  -42.2663 C.3       6 UNK         0.0297 
     41 CB         24.6075  -32.4081  -42.6562 C.3       6 UNK        -0.2006 
     42 C          25.5038  -30.9945  -40.7675 C.2       6 UNK         0.4892 
     43 O          24.8284  -30.0367  -40.3805 O.2       6 UNK        -0.5089 
     44 N          26.1501  -31.8340  -39.9483 N.am      7 UNK        -0.4243 
     45 CA         26.1331  -31.7418  -38.4831 C.3       7 UNK         0.0196 
     46 CB         27.1869  -32.7002  -37.9043 C.3       7 UNK        -0.2007 
     47 C          24.7520  -32.0225  -37.8604 C.2       7 UNK         0.5020 
     48 O          24.4854  -31.5588  -36.7514 O.2       7 UNK        -0.5147 
     49 N          23.9036  -32.7661  -38.5789 N.am      8 UNK        -0.4734 
     50 CA         22.5307  -33.0786  -38.2048 C.3       8 UNK         0.0238 
     51 CB         22.4959  -34.3883  -37.3930 C.3       8 UNK        -0.1912 
     52 C          21.6964  -33.1543  -39.4881 C.2       8 UNK         0.5038 
     53 O          21.5587  -34.2365  -40.0613 O.2       8 UNK        -0.5046 
     54 N          21.1826  -32.0004  -39.9339 N.am      9 UNK        -0.4200 
     55 CA         20.2554  -31.8915  -41.0746 C.3       9 UNK         0.0839 
     56 C          18.8452  -32.5063  -40.8266 C.2       9 UNK         0.5513 
     57 N          18.4397  -32.7760  -39.5912 N.am      9 UNK        -0.7519 
     58 O          18.1066  -32.7408  -41.7792 O.2       9 UNK        -0.4960 
     59 C59        20.1173  -30.4282  -41.5726 C.3       10 UNK        -0.0876 
     60 S60        21.6240  -29.7654  -42.3579 S.3       10 UNK        -0.2414 
     61 C61        21.5164  -30.5073  -44.0191 C.3       10 UNK         0.0169 
     62 H62        12.7263  -26.5562  -41.1121 H         1 UNK         0.0903 
     63 H63        13.5345  -25.0309  -40.7457 H         1 UNK         0.0903 
     64 H64        12.1122  -25.0481  -41.7915 H         1 UNK         0.0903 
     65 H65        13.8418  -27.7685  -42.6225 H         1 UNK         0.3096 
     66 H66        14.7571  -26.7258  -45.1199 H         1 UNK         0.1121 
     67 H67        15.5109  -29.4480  -43.9171 H         1 UNK         0.0849 
     68 H68        13.9343  -29.1305  -44.5736 H         1 UNK         0.0849 
     69 H69        16.6451  -31.0351  -45.2376 H         1 UNK         0.0865 
     70 H70        16.9314  -31.0345  -46.9538 H         1 UNK         0.0865 
     71 H71        18.8999  -31.1929  -44.4396 H         1 UNK         0.1346 
     72 H72        21.8816  -28.3669  -45.6465 H         1 UNK         0.1412 
     73 H73        17.9741  -28.2182  -47.3883 H         1 UNK         0.1426 
     74 H74        19.8431  -27.0464  -48.4319 H         1 UNK         0.0716 
     75 H75        21.4497  -27.1078  -47.7676 H         1 UNK         0.0716 
     76 H76        22.1576  -26.1192  -45.6810 H         1 UNK         0.0695 
     77 H77        22.1165  -24.3961  -45.8748 H         1 UNK         0.0695 
     78 H78        20.6074  -24.0911  -43.9957 H         1 UNK         0.0983 
     79 H79        20.0562  -26.9355  -44.2193 H         1 UNK         0.3095 
     80 H80        18.8944  -28.0406  -42.7314 H         1 UNK         0.0454 
     81 H81        19.4079  -27.3673  -40.3597 H         1 UNK         0.0851 
     82 H82        17.8478  -26.5684  -40.2577 H         1 UNK         0.0851 
     83 H83        17.9315  -28.3135  -40.4774 H         1 UNK         0.0851 
     84 H84        16.3390  -27.5502  -42.1072 H         1 UNK         0.2976 
     85 H85        21.6918  -26.7682  -42.2828 H         1 UNK         0.3116 
     86 H86        23.3186  -27.3058  -40.8965 H         1 UNK         0.0646 
     87 H87        24.6985  -25.6380  -39.7632 H         1 UNK         0.0847 
     88 H88        23.0698  -25.0017  -39.9162 H         1 UNK         0.0847 
     89 H89        24.3515  -24.4248  -40.9819 H         1 UNK         0.0847 
     90 H90        23.5839  -27.5862  -43.7543 H         1 UNK         0.3040 
     91 H91        26.4170  -27.4192  -44.4265 H         1 UNK         0.1015 
     92 H92        24.5849  -27.2459  -46.1558 H         1 UNK         0.0786 
     93 H93        24.1398  -28.9246  -45.8301 H         1 UNK         0.0786 
     94 H94        25.7143  -28.5438  -46.5024 H         1 UNK         0.0786 
     95 H95        24.4680  -29.5892  -42.6325 H         1 UNK         0.3172 
     96 H96        26.6214  -31.6260  -42.4946 H         1 UNK         0.0595 
     97 H97        24.6109  -32.5818  -43.7323 H         1 UNK         0.0839 
     98 H98        23.5871  -32.1581  -42.3623 H         1 UNK         0.0839 
     99 H99        24.8613  -33.3541  -42.1766 H         1 UNK         0.0839 
    100 H100       26.6823  -32.5940  -40.3483 H         1 UNK         0.2998 
    101 H101       26.4100  -30.7215  -38.2088 H         1 UNK         0.0822 
    102 H102       28.1856  -32.4614  -38.2706 H         1 UNK         0.0787 
    103 H103       27.2190  -32.6331  -36.8158 H         1 UNK         0.0787 
    104 H104       26.9727  -33.7387  -38.1600 H         1 UNK         0.0787 
    105 H105       24.1981  -33.0924  -39.4889 H         1 UNK         0.3055 
    106 H106       22.1204  -32.2791  -37.5831 H         1 UNK         0.1106 
    107 H107       22.9382  -35.2194  -37.9436 H         1 UNK         0.0828 
    108 H108       23.0387  -34.2852  -36.4533 H         1 UNK         0.0828 
    109 H109       21.4708  -34.6673  -37.1464 H         1 UNK         0.0828 
    110 H110       21.3834  -31.1449  -39.4375 H         1 UNK         0.2931 
    111 H111       20.6850  -32.4799  -41.8869 H         1 UNK         0.0412 
    112 H112       17.5250  -33.1758  -39.4505 H         1 UNK         0.3472 
    113 H113       19.0304  -32.5809  -38.7995 H         1 UNK         0.3472 
    114 H114       19.8645  -29.7829  -40.7318 H         1 UNK         0.0970 
    115 H115       19.2921  -30.3259  -42.2769 H         1 UNK         0.0970 
    116 H116       21.2970  -31.5721  -43.9368 H         1 UNK         0.0612 
    117 H117       22.5016  -30.4471  -44.4840 H         1 UNK         0.0612 
@<TRIPOS>BOND
     1    1    2 1    
     2    1   62 1    
     3    1   63 1    
     4    1   64 1    
     5    2    3 2    
     6    2    4 am   BACKBONE|DICT|INTERRES
     7    4    5 1    
     8    4   65 1    
     9    5    6 1    
    10    5   25 1    
    11    5   66 1    
    12    6    7 1    
    13    6   67 1    
    14    6   68 1    
    15    7    8 1    
    16    8    9 1    
    17    8   69 1    
    18    8   70 1    
    19    9   10 ar   
    20    9   14 ar   
    21   10   11 ar   
    22   10   71 1    
    23   11   12 ar   
    24   11   61 1    
    25   12   13 ar   
    26   12   72 1    
    27   13   14 ar   
    28   13   15 1    
    29   14   73 1    
    30   15   16 1    
    31   15   74 1    
    32   15   75 1    
    33   16   17 1    
    34   17   18 1    
    35   17   76 1    
    36   17   77 1    
    37   18   19 1    
    38   18   27 1    
    39   18   78 1    
    40   19   20 am   BACKBONE|DICT|INTERRES
    41   19   79 1    
    42   20   21 2    
    43   20   22 1    
    44   22   23 1    
    45   22   24 1    
    46   22   80 1    
    47   23   81 1    
    48   23   82 1    
    49   23   83 1    
    50   24   25 am   BACKBONE|DICT|INTERRES
    51   24   84 1    
    52   25   26 2    
    53   27   28 2    
    54   27   29 am   BACKBONE|DICT|INTERRES
    55   29   30 1    
    56   29   85 1    
    57   30   31 1    
    58   30   32 1    
    59   30   86 1    
    60   31   87 1    
    61   31   88 1    
    62   31   89 1    
    63   32   33 2    
    64   32   34 am   BACKBONE|DICT|INTERRES
    65   34   35 1    
    66   34   90 1    
    67   35   36 1    
    68   35   37 1    
    69   35   91 1    
    70   36   92 1    
    71   36   93 1    
    72   36   94 1    
    73   37   38 2    
    74   37   39 am   BACKBONE|DICT|INTERRES
    75   39   40 1    
    76   39   95 1    
    77   40   41 1    
    78   40   42 1    
    79   40   96 1    
    80   41   97 1    
    81   41   98 1    
    82   41   99 1    
    83   42   43 2    
    84   42   44 am   BACKBONE|DICT|INTERRES
    85   44   45 1    
    86   44  100 1    
    87   45   46 1    
    88   45   47 1    
    89   45  101 1    
    90   46  102 1    
    91   46  103 1    
    92   46  104 1    
    93   47   48 2    
    94   47   49 am   BACKBONE|DICT|INTERRES
    95   49   50 1    
    96   49  105 1    
    97   50   51 1    
    98   50   52 1    
    99   50  106 1    
   100   51  107 1    
   101   51  108 1    
   102   51  109 1    
   103   52   53 2    
   104   52   54 am   BACKBONE|DICT|INTERRES
   105   54   55 1    
   106   54  110 1    
   107   55   56 1    
   108   55   59 1    
   109   55  111 1    
   110   56   57 am   BACKBONE|DICT|INTERRES
   111   56   58 2    
   112   57  112 1    
   113   57  113 1    
   114   59   60 1    
   115   59  114 1    
   116   59  115 1    
   117   60   61 1    
   118   61  116 1    
   119   61  117 1    
@<TRIPOS>SUBSTRUCTURE
     1 UNK         1 GROUP             0       ****    0 ROOT    
