@<TRIPOS>MOLECULE
3R8
117   119    1
SMALL
USER_CHARGES


@<TRIPOS>ATOM
      1 CA         18.7419  -26.6636  -40.2090 C.3       0 UNK        -0.2013 
      2 C          18.6380  -26.5788  -41.7238 C.2       0 UNK         0.4866 
      3 O          19.6336  -26.8086  -42.4130 O.2       0 UNK        -0.5176 
      4 N          17.4442  -26.2409  -42.2328 N.am      1 UNK        -0.4884 
      5 CA         17.0972  -26.1064  -43.6577 C.3       1 UNK         0.0853 
      6 C6         17.2472  -27.4413  -44.4476 C.3       10 UNK        -0.0849 
      7 S7         16.3281  -28.8292  -43.6969 S.3       10 UNK        -0.2776 
      8 C8         16.8077  -30.2141  -44.7818 C.3       10 UNK         0.0316 
      9 C9         18.3098  -30.4647  -44.7673 C.ar      10 UNK        -0.0863 
     10 C10        18.9155  -31.0575  -43.6545 C.ar      10 UNK        -0.1009 
     11 C11        20.2959  -31.2755  -43.6347 C.ar      10 UNK        -0.0712 
     12 C12        21.0718  -30.8919  -44.7318 C.ar      10 UNK        -0.0894 
     13 C13        20.4783  -30.3039  -45.8512 C.ar      10 UNK        -0.0745 
     14 C14        19.0948  -30.1010  -45.8671 C.ar      10 UNK        -0.0972 
     15 C15        21.3360  -29.9019  -47.0440 C.3       10 UNK         0.0209 
     16 S16        21.2651  -28.1161  -47.3919 S.3       10 UNK        -0.2568 
     17 C17        21.9312  -27.4009  -45.8495 C.3       10 UNK        -0.0983 
     18 CA         21.8413  -25.8547  -45.8468 C.3       3 UNK         0.0876 
     19 N          20.4647  -25.4031  -46.0640 N.am      3 UNK        -0.4424 
     20 C          20.0803  -24.1774  -46.4436 C.2       2 UNK         0.4918 
     21 O          20.8609  -23.2673  -46.7211 O.2       2 UNK        -0.4875 
     22 CA         18.5597  -23.9204  -46.4976 C.3       2 UNK         0.0481 
     23 CB         18.0580  -23.9884  -47.9486 C.3       2 UNK        -0.1831 
     24 N          17.7808  -24.8543  -45.6713 N.am      2 UNK        -0.4498 
     25 C          17.8579  -24.9370  -44.3335 C.2       1 UNK         0.5027 
     26 O          18.5211  -24.1448  -43.6576 O.2       1 UNK        -0.4969 
     27 C          22.4673  -25.2679  -44.5602 C.2       3 UNK         0.5005 
     28 O          23.6879  -25.3401  -44.4126 O.2       3 UNK        -0.5279 
     29 N          21.6401  -24.6949  -43.6685 N.am      4 UNK        -0.4463 
     30 CA         22.0013  -24.0139  -42.4209 C.3       4 UNK         0.0283 
     31 CB         22.7897  -22.7192  -42.7129 C.3       4 UNK        -0.1875 
     32 C          22.7051  -24.9380  -41.4096 C.2       4 UNK         0.4949 
     33 O          23.7379  -24.5663  -40.8497 O.2       4 UNK        -0.5039 
     34 N          22.1106  -26.1202  -41.1896 N.am      5 UNK        -0.4663 
     35 CA         22.5310  -27.1643  -40.2467 C.3       5 UNK         0.0242 
     36 CB         22.3970  -26.6782  -38.7869 C.3       5 UNK        -0.1982 
     37 C          23.9277  -27.7262  -40.5686 C.2       5 UNK         0.5017 
     38 O          24.7916  -27.7921  -39.6919 O.2       5 UNK        -0.5012 
     39 N          24.1130  -28.1376  -41.8315 N.am      6 UNK        -0.4439 
     40 CA         25.3270  -28.7901  -42.3409 C.3       6 UNK         0.0297 
     41 CB         25.2135  -28.9329  -43.8676 C.3       6 UNK        -0.2006 
     42 C          25.6209  -30.1591  -41.6911 C.2       6 UNK         0.4892 
     43 O          26.7727  -30.5948  -41.6863 O.2       6 UNK        -0.5089 
     44 N          24.5795  -30.7940  -41.1468 N.am      7 UNK        -0.4243 
     45 CA         24.5898  -32.0151  -40.3522 C.3       7 UNK         0.0196 
     46 CB         24.7122  -33.2461  -41.2709 C.3       7 UNK        -0.2007 
     47 C          23.2928  -32.0262  -39.5278 C.2       7 UNK         0.5020 
     48 O          22.4657  -31.1219  -39.6818 O.2       7 UNK        -0.5147 
     49 N          23.1273  -33.0368  -38.6656 N.am      8 UNK        -0.4734 
     50 CA         21.9084  -33.2273  -37.8704 C.3       8 UNK         0.0238 
     51 CB         22.1835  -34.2129  -36.7223 C.3       8 UNK        -0.1912 
     52 C          20.7176  -33.6976  -38.7246 C.2       8 UNK         0.5038 
     53 O          19.6172  -33.1664  -38.5732 O.2       8 UNK        -0.5046 
     54 N          20.9732  -34.6765  -39.6049 N.am      9 UNK        -0.4200 
     55 CA         20.0157  -35.2785  -40.5533 C.3       9 UNK         0.0839 
     56 C          18.7969  -35.9971  -39.8956 C.2       9 UNK         0.5513 
     57 N          18.8848  -36.4217  -38.6406 N.am      9 UNK        -0.7519 
     58 O          17.7686  -36.2047  -40.5352 O.2       9 UNK        -0.4960 
     59 C59        19.6069  -34.3081  -41.6997 C.3       10 UNK        -0.0876 
     60 S60        21.0608  -33.7287  -42.6401 S.3       10 UNK        -0.2414 
     61 C61        20.9632  -31.9248  -42.4356 C.3       10 UNK         0.0169 
     62 H62        19.2329  -27.5915  -39.9169 H         1 UNK         0.0903 
     63 H63        17.7626  -26.6367  -39.7316 H         1 UNK         0.0903 
     64 H64        19.3295  -25.8288  -39.8289 H         1 UNK         0.0903 
     65 H65        16.6868  -26.0391  -41.5954 H         1 UNK         0.3096 
     66 H66        16.0440  -25.8219  -43.6830 H         1 UNK         0.1121 
     67 H67        16.8850  -27.3402  -45.4716 H         1 UNK         0.0849 
     68 H68        18.3006  -27.7166  -44.5184 H         1 UNK         0.0849 
     69 H69        16.2886  -31.1162  -44.4547 H         1 UNK         0.0865 
     70 H70        16.4574  -30.0139  -45.7957 H         1 UNK         0.0865 
     71 H71        18.3126  -31.3438  -42.8036 H         1 UNK         0.1346 
     72 H72        22.1396  -31.0618  -44.7150 H         1 UNK         0.1412 
     73 H73        18.6346  -29.6443  -46.7328 H         1 UNK         0.1426 
     74 H74        22.3778  -30.1887  -46.8922 H         1 UNK         0.0716 
     75 H75        20.9934  -30.4458  -47.9252 H         1 UNK         0.0716 
     76 H76        22.9669  -27.7285  -45.7446 H         1 UNK         0.0695 
     77 H77        21.3844  -27.8131  -44.9988 H         1 UNK         0.0695 
     78 H78        22.4437  -25.4817  -46.6782 H         1 UNK         0.0983 
     79 H79        19.7506  -26.0944  -45.8952 H         1 UNK         0.3095 
     80 H80        18.3837  -22.9105  -46.1215 H         1 UNK         0.0454 
     81 H81        16.9998  -23.7356  -48.0165 H         1 UNK         0.0851 
     82 H82        18.1965  -24.9810  -48.3793 H         1 UNK         0.0851 
     83 H83        18.5977  -23.2821  -48.5810 H         1 UNK         0.0851 
     84 H84        17.1912  -25.5062  -46.1689 H         1 UNK         0.2976 
     85 H85        20.6448  -24.7254  -43.8594 H         1 UNK         0.3116 
     86 H86        21.0579  -23.7223  -41.9564 H         1 UNK         0.0646 
     87 H87        22.2497  -22.0739  -43.4059 H         1 UNK         0.0847 
     88 H88        22.9531  -22.1473  -41.7988 H         1 UNK         0.0847 
     89 H89        23.7694  -22.9287  -43.1434 H         1 UNK         0.0847 
     90 H90        21.2675  -26.3304  -41.7245 H         1 UNK         0.3040 
     91 H91        21.8346  -27.9951  -40.3761 H         1 UNK         0.1015 
     92 H92        23.0947  -25.8715  -38.5604 H         1 UNK         0.0786 
     93 H93        22.6027  -27.4899  -38.0878 H         1 UNK         0.0786 
     94 H94        21.3905  -26.3193  -38.5754 H         1 UNK         0.0786 
     95 H95        23.3600  -27.9998  -42.4898 H         1 UNK         0.3172 
     96 H96        26.1726  -28.1358  -42.1193 H         1 UNK         0.0595 
     97 H97        24.3621  -29.5511  -44.1552 H         1 UNK         0.0839 
     98 H98        26.1085  -29.3978  -44.2837 H         1 UNK         0.0839 
     99 H99        25.1037  -27.9607  -44.3490 H         1 UNK         0.0839 
    100 H100       23.6789  -30.3304  -41.1373 H         1 UNK         0.2998 
    101 H101       25.4329  -31.9828  -39.6591 H         1 UNK         0.0822 
    102 H102       24.6978  -34.1754  -40.7011 H         1 UNK         0.0787 
    103 H103       23.8982  -33.2908  -41.9936 H         1 UNK         0.0787 
    104 H104       25.6479  -33.2301  -41.8299 H         1 UNK         0.0787 
    105 H105       23.8547  -33.7318  -38.5731 H         1 UNK         0.3055 
    106 H106       21.6328  -32.2660  -37.4294 H         1 UNK         0.1106 
    107 H107       22.9646  -33.8398  -36.0598 H         1 UNK         0.0828 
    108 H108       21.2901  -34.3606  -36.1137 H         1 UNK         0.0828 
    109 H109       22.4942  -35.1921  -37.0883 H         1 UNK         0.0828 
    110 H110       21.9121  -35.0427  -39.6480 H         1 UNK         0.2931 
    111 H111       20.5690  -36.0933  -41.0221 H         1 UNK         0.0412 
    112 H112       19.7259  -36.2717  -38.1072 H         1 UNK         0.3472 
    113 H113       18.0986  -36.8948  -38.2230 H         1 UNK         0.3472 
    114 H114       18.9460  -34.8074  -42.4103 H         1 UNK         0.0970 
    115 H115       19.0386  -33.4654  -41.3040 H         1 UNK         0.0970 
    116 H116       20.4464  -31.6631  -41.5111 H         1 UNK         0.0612 
    117 H117       21.9766  -31.5360  -42.3349 H         1 UNK         0.0612 
@<TRIPOS>BOND
     1    1    2 1    
     2    1   62 1    
     3    1   63 1    
     4    1   64 1    
     5    2    3 2    
     6    2    4 am   BACKBONE|DICT|INTERRES
     7    4    5 1    
     8    4   65 1    
     9    5    6 1    
    10    5   25 1    
    11    5   66 1    
    12    6    7 1    
    13    6   67 1    
    14    6   68 1    
    15    7    8 1    
    16    8    9 1    
    17    8   69 1    
    18    8   70 1    
    19    9   10 ar   
    20    9   14 ar   
    21   10   11 ar   
    22   10   71 1    
    23   11   12 ar   
    24   11   61 1    
    25   12   13 ar   
    26   12   72 1    
    27   13   14 ar   
    28   13   15 1    
    29   14   73 1    
    30   15   16 1    
    31   15   74 1    
    32   15   75 1    
    33   16   17 1    
    34   17   18 1    
    35   17   76 1    
    36   17   77 1    
    37   18   19 1    
    38   18   27 1    
    39   18   78 1    
    40   19   20 am   BACKBONE|DICT|INTERRES
    41   19   79 1    
    42   20   21 2    
    43   20   22 1    
    44   22   23 1    
    45   22   24 1    
    46   22   80 1    
    47   23   81 1    
    48   23   82 1    
    49   23   83 1    
    50   24   25 am   BACKBONE|DICT|INTERRES
    51   24   84 1    
    52   25   26 2    
    53   27   28 2    
    54   27   29 am   BACKBONE|DICT|INTERRES
    55   29   30 1    
    56   29   85 1    
    57   30   31 1    
    58   30   32 1    
    59   30   86 1    
    60   31   87 1    
    61   31   88 1    
    62   31   89 1    
    63   32   33 2    
    64   32   34 am   BACKBONE|DICT|INTERRES
    65   34   35 1    
    66   34   90 1    
    67   35   36 1    
    68   35   37 1    
    69   35   91 1    
    70   36   92 1    
    71   36   93 1    
    72   36   94 1    
    73   37   38 2    
    74   37   39 am   BACKBONE|DICT|INTERRES
    75   39   40 1    
    76   39   95 1    
    77   40   41 1    
    78   40   42 1    
    79   40   96 1    
    80   41   97 1    
    81   41   98 1    
    82   41   99 1    
    83   42   43 2    
    84   42   44 am   BACKBONE|DICT|INTERRES
    85   44   45 1    
    86   44  100 1    
    87   45   46 1    
    88   45   47 1    
    89   45  101 1    
    90   46  102 1    
    91   46  103 1    
    92   46  104 1    
    93   47   48 2    
    94   47   49 am   BACKBONE|DICT|INTERRES
    95   49   50 1    
    96   49  105 1    
    97   50   51 1    
    98   50   52 1    
    99   50  106 1    
   100   51  107 1    
   101   51  108 1    
   102   51  109 1    
   103   52   53 2    
   104   52   54 am   BACKBONE|DICT|INTERRES
   105   54   55 1    
   106   54  110 1    
   107   55   56 1    
   108   55   59 1    
   109   55  111 1    
   110   56   57 am   BACKBONE|DICT|INTERRES
   111   56   58 2    
   112   57  112 1    
   113   57  113 1    
   114   59   60 1    
   115   59  114 1    
   116   59  115 1    
   117   60   61 1    
   118   61  116 1    
   119   61  117 1    
@<TRIPOS>SUBSTRUCTURE
     1 UNK         1 GROUP             0       ****    0 ROOT    
