@<TRIPOS>MOLECULE
3R8
117   119    1
SMALL
USER_CHARGES


@<TRIPOS>ATOM
      1 CA         20.0832  -26.5766  -49.2756 C.3       0 UNK        -0.2013 
      2 C          19.4544  -27.0976  -47.9926 C.2       0 UNK         0.4866 
      3 O          19.8461  -28.1561  -47.5027 O.2       0 UNK        -0.5176 
      4 N          18.4898  -26.3581  -47.4304 N.am      1 UNK        -0.4884 
      5 CA         17.7645  -26.6863  -46.1960 C.3       1 UNK         0.0853 
      6 C6         16.3505  -26.0504  -46.2270 C.3       10 UNK        -0.0849 
      7 S7         15.1676  -26.7454  -45.0255 S.3       10 UNK        -0.2776 
      8 C8         14.8841  -28.4295  -45.6665 C.3       10 UNK         0.0316 
      9 C9         15.6648  -29.4615  -44.8641 C.ar      10 UNK        -0.0863 
     10 C10        16.6882  -30.2132  -45.4515 C.ar      10 UNK        -0.1009 
     11 C11        17.4020  -31.1495  -44.6960 C.ar      10 UNK        -0.0712 
     12 C12        17.0698  -31.3482  -43.3518 C.ar      10 UNK        -0.0894 
     13 C13        16.0666  -30.5858  -42.7493 C.ar      10 UNK        -0.0745 
     14 C14        15.3565  -29.6590  -43.5155 C.ar      10 UNK        -0.0972 
     15 C15        15.7650  -30.7333  -41.2642 C.3       10 UNK         0.0209 
     16 S16        17.1683  -30.2459  -40.2023 S.3       10 UNK        -0.2568 
     17 C17        17.5690  -28.5523  -40.7618 C.3       10 UNK        -0.0983 
     18 CA         19.1039  -28.3411  -40.8919 C.3       3 UNK         0.0876 
     19 N          19.4499  -27.5558  -42.0874 N.am      3 UNK        -0.4424 
     20 C          20.6924  -27.3804  -42.5591 C.2       2 UNK         0.4918 
     21 O          21.6933  -27.8060  -41.9835 O.2       2 UNK        -0.4875 
     22 CA         20.8525  -26.6112  -43.8859 C.3       2 UNK         0.0481 
     23 CB         22.2132  -26.8795  -44.5554 C.3       2 UNK        -0.1831 
     24 N          19.8042  -26.9133  -44.8617 N.am      2 UNK        -0.4498 
     25 C          18.6058  -26.3253  -44.9485 C.2       1 UNK         0.5027 
     26 O          18.1939  -25.5165  -44.1155 O.2       1 UNK        -0.4969 
     27 C          19.7021  -27.7719  -39.5847 C.2       3 UNK         0.5005 
     28 O          20.0118  -28.5359  -38.6695 O.2       3 UNK        -0.5279 
     29 N          19.8546  -26.4417  -39.5216 N.am      4 UNK        -0.4463 
     30 CA         20.4166  -25.7182  -38.3781 C.3       4 UNK         0.0283 
     31 CB         19.8306  -24.2959  -38.3607 C.3       4 UNK        -0.1875 
     32 C          21.9568  -25.6619  -38.3766 C.2       4 UNK         0.4949 
     33 O          22.5307  -25.2304  -37.3757 O.2       4 UNK        -0.5039 
     34 N          22.6014  -26.0559  -39.4823 N.am      5 UNK        -0.4663 
     35 CA         24.0539  -26.0187  -39.6559 C.3       5 UNK         0.0242 
     36 CB         24.3565  -25.5650  -41.0946 C.3       5 UNK        -0.1982 
     37 C          24.6724  -27.4001  -39.3998 C.2       5 UNK         0.5017 
     38 O          23.9651  -28.4105  -39.3944 O.2       5 UNK        -0.5012 
     39 N          26.0051  -27.4323  -39.2673 N.am      6 UNK        -0.4439 
     40 CA         26.8202  -28.6513  -39.2058 C.3       6 UNK         0.0297 
     41 CB         28.1379  -28.3376  -38.4722 C.3       6 UNK        -0.2006 
     42 C          27.0474  -29.2413  -40.6147 C.2       6 UNK         0.4892 
     43 O          28.1907  -29.4135  -41.0418 O.2       6 UNK        -0.5089 
     44 N          25.9427  -29.5033  -41.3181 N.am      7 UNK        -0.4243 
     45 CA         25.8791  -30.0496  -42.6707 C.3       7 UNK         0.0196 
     46 CB         24.9305  -29.1566  -43.4930 C.3       7 UNK        -0.2007 
     47 C          25.3627  -31.4951  -42.6266 C.2       7 UNK         0.5020 
     48 O          24.9998  -31.9948  -41.5588 O.2       7 UNK        -0.5147 
     49 N          25.2812  -32.1334  -43.8030 N.am      8 UNK        -0.4734 
     50 CA         24.7160  -33.4789  -43.9944 C.3       8 UNK         0.0238 
     51 CB         24.9078  -33.9055  -45.4590 C.3       8 UNK        -0.1912 
     52 C          23.2332  -33.6034  -43.5867 C.2       8 UNK         0.5038 
     53 O          22.7870  -34.7038  -43.2602 O.2       8 UNK        -0.5046 
     54 N          22.5161  -32.4728  -43.5872 N.am      9 UNK        -0.4200 
     55 CA         21.1695  -32.3147  -43.0229 C.3       9 UNK         0.0839 
     56 C          21.0997  -32.4084  -41.4696 C.2       9 UNK         0.5513 
     57 N          22.2045  -32.3627  -40.7344 N.am      9 UNK        -0.7519 
     58 O          20.0095  -32.5379  -40.9212 O.2       9 UNK        -0.4960 
     59 C59        20.5103  -31.0032  -43.5207 C.3       10 UNK        -0.0876 
     60 S60        20.1203  -31.0368  -45.3016 S.3       10 UNK        -0.2414 
     61 C61        18.5363  -31.9428  -45.3294 C.3       10 UNK         0.0169 
     62 H62        19.9512  -27.3017  -50.0782 H         1 UNK         0.0903 
     63 H63        19.6400  -25.6333  -49.5944 H         1 UNK         0.0903 
     64 H64        21.1516  -26.4185  -49.1316 H         1 UNK         0.0903 
     65 H65        18.2387  -25.4775  -47.8585 H         1 UNK         0.3096 
     66 H66        17.6397  -27.7682  -46.1716 H         1 UNK         0.1121 
     67 H67        15.9080  -26.1757  -47.2169 H         1 UNK         0.0849 
     68 H68        16.4100  -24.9716  -46.0705 H         1 UNK         0.0849 
     69 H69        13.8199  -28.6584  -45.5924 H         1 UNK         0.0865 
     70 H70        15.1316  -28.4814  -46.7279 H         1 UNK         0.0865 
     71 H71        16.9409  -30.0662  -46.4929 H         1 UNK         0.1346 
     72 H72        17.6186  -32.0678  -42.7588 H         1 UNK         0.1412 
     73 H73        14.5763  -29.0663  -43.0567 H         1 UNK         0.1426 
     74 H74        15.5079  -31.7722  -41.0538 H         1 UNK         0.0716 
     75 H75        14.8936  -30.1394  -40.9838 H         1 UNK         0.0716 
     76 H76        17.1097  -27.8351  -40.0784 H         1 UNK         0.0695 
     77 H77        17.0838  -28.3738  -41.7206 H         1 UNK         0.0695 
     78 H78        19.5800  -29.3134  -41.0372 H         1 UNK         0.0983 
     79 H79        18.6850  -27.1411  -42.6033 H         1 UNK         0.3095 
     80 H80        20.8091  -25.5481  -43.6413 H         1 UNK         0.0454 
     81 H81        22.3420  -27.9364  -44.7926 H         1 UNK         0.0851 
     82 H82        23.0398  -26.5846  -43.9101 H         1 UNK         0.0851 
     83 H83        22.3180  -26.3148  -45.4819 H         1 UNK         0.0851 
     84 H84        20.0448  -27.5712  -45.5984 H         1 UNK         0.2976 
     85 H85        19.5758  -25.8888  -40.3198 H         1 UNK         0.3116 
     86 H86        20.1106  -26.2186  -37.4568 H         1 UNK         0.0646 
     87 H87        18.7422  -24.3146  -38.3005 H         1 UNK         0.0847 
     88 H88        20.1096  -23.7320  -39.2516 H         1 UNK         0.0847 
     89 H89        20.1893  -23.7352  -37.4963 H         1 UNK         0.0847 
     90 H90        22.0802  -26.5194  -40.2167 H         1 UNK         0.3040 
     91 H91        24.4992  -25.3032  -38.9608 H         1 UNK         0.1015 
     92 H92        25.4270  -25.4271  -41.2507 H         1 UNK         0.0786 
     93 H93        23.8728  -24.6151  -41.3236 H         1 UNK         0.0786 
     94 H94        24.0158  -26.3001  -41.8234 H         1 UNK         0.0786 
     95 H95        26.5145  -26.5616  -39.3235 H         1 UNK         0.3172 
     96 H96        26.2887  -29.4058  -38.6217 H         1 UNK         0.0595 
     97 H97        28.7314  -27.5931  -39.0044 H         1 UNK         0.0839 
     98 H98        28.7522  -29.2337  -38.3733 H         1 UNK         0.0839 
     99 H99        27.9526  -27.9629  -37.4654 H         1 UNK         0.0839 
    100 H100       25.0524  -29.3771  -40.8469 H         1 UNK         0.2998 
    101 H101       26.8683  -30.0504  -43.1331 H         1 UNK         0.0822 
    102 H102       25.2705  -28.1208  -43.4954 H         1 UNK         0.0787 
    103 H103       24.8758  -29.4751  -44.5344 H         1 UNK         0.0787 
    104 H104       23.9164  -29.1690  -43.0901 H         1 UNK         0.0787 
    105 H105       25.6046  -31.6592  -44.6347 H         1 UNK         0.3055 
    106 H106       25.2783  -34.1663  -43.3583 H         1 UNK         0.1106 
    107 H107       24.3841  -33.2396  -46.1460 H         1 UNK         0.0828 
    108 H108       24.5227  -34.9127  -45.6256 H         1 UNK         0.0828 
    109 H109       25.9621  -33.9155  -45.7361 H         1 UNK         0.0828 
    110 H110       22.9718  -31.6267  -43.8907 H         1 UNK         0.2931 
    111 H111       20.5709  -33.1510  -43.3880 H         1 UNK         0.0412 
    112 H112       23.1231  -32.2611  -41.1544 H         1 UNK         0.3472 
    113 H113       22.1235  -32.4271  -39.7325 H         1 UNK         0.3472 
    114 H114       19.6044  -30.7681  -42.9649 H         1 UNK         0.0970 
    115 H115       21.1810  -30.1634  -43.3380 H         1 UNK         0.0970 
    116 H116       18.2858  -32.1715  -46.3663 H         1 UNK         0.0612 
    117 H117       18.6555  -32.9047  -44.8291 H         1 UNK         0.0612 
@<TRIPOS>BOND
     1    1    2 1    
     2    1   62 1    
     3    1   63 1    
     4    1   64 1    
     5    2    3 2    
     6    2    4 am   BACKBONE|DICT|INTERRES
     7    4    5 1    
     8    4   65 1    
     9    5    6 1    
    10    5   25 1    
    11    5   66 1    
    12    6    7 1    
    13    6   67 1    
    14    6   68 1    
    15    7    8 1    
    16    8    9 1    
    17    8   69 1    
    18    8   70 1    
    19    9   10 ar   
    20    9   14 ar   
    21   10   11 ar   
    22   10   71 1    
    23   11   12 ar   
    24   11   61 1    
    25   12   13 ar   
    26   12   72 1    
    27   13   14 ar   
    28   13   15 1    
    29   14   73 1    
    30   15   16 1    
    31   15   74 1    
    32   15   75 1    
    33   16   17 1    
    34   17   18 1    
    35   17   76 1    
    36   17   77 1    
    37   18   19 1    
    38   18   27 1    
    39   18   78 1    
    40   19   20 am   BACKBONE|DICT|INTERRES
    41   19   79 1    
    42   20   21 2    
    43   20   22 1    
    44   22   23 1    
    45   22   24 1    
    46   22   80 1    
    47   23   81 1    
    48   23   82 1    
    49   23   83 1    
    50   24   25 am   BACKBONE|DICT|INTERRES
    51   24   84 1    
    52   25   26 2    
    53   27   28 2    
    54   27   29 am   BACKBONE|DICT|INTERRES
    55   29   30 1    
    56   29   85 1    
    57   30   31 1    
    58   30   32 1    
    59   30   86 1    
    60   31   87 1    
    61   31   88 1    
    62   31   89 1    
    63   32   33 2    
    64   32   34 am   BACKBONE|DICT|INTERRES
    65   34   35 1    
    66   34   90 1    
    67   35   36 1    
    68   35   37 1    
    69   35   91 1    
    70   36   92 1    
    71   36   93 1    
    72   36   94 1    
    73   37   38 2    
    74   37   39 am   BACKBONE|DICT|INTERRES
    75   39   40 1    
    76   39   95 1    
    77   40   41 1    
    78   40   42 1    
    79   40   96 1    
    80   41   97 1    
    81   41   98 1    
    82   41   99 1    
    83   42   43 2    
    84   42   44 am   BACKBONE|DICT|INTERRES
    85   44   45 1    
    86   44  100 1    
    87   45   46 1    
    88   45   47 1    
    89   45  101 1    
    90   46  102 1    
    91   46  103 1    
    92   46  104 1    
    93   47   48 2    
    94   47   49 am   BACKBONE|DICT|INTERRES
    95   49   50 1    
    96   49  105 1    
    97   50   51 1    
    98   50   52 1    
    99   50  106 1    
   100   51  107 1    
   101   51  108 1    
   102   51  109 1    
   103   52   53 2    
   104   52   54 am   BACKBONE|DICT|INTERRES
   105   54   55 1    
   106   54  110 1    
   107   55   56 1    
   108   55   59 1    
   109   55  111 1    
   110   56   57 am   BACKBONE|DICT|INTERRES
   111   56   58 2    
   112   57  112 1    
   113   57  113 1    
   114   59   60 1    
   115   59  114 1    
   116   59  115 1    
   117   60   61 1    
   118   61  116 1    
   119   61  117 1    
@<TRIPOS>SUBSTRUCTURE
     1 UNK         1 GROUP             0       ****    0 ROOT    
