@<TRIPOS>MOLECULE
3R8
117   119    1
SMALL
USER_CHARGES


@<TRIPOS>ATOM
      1 CA         16.5011  -25.3147  -41.9133 C.3       0 UNK        -0.2013 
      2 C          17.4466  -25.9896  -42.8938 C.2       0 UNK         0.4866 
      3 O          18.2369  -26.8403  -42.4908 O.2       0 UNK        -0.5176 
      4 N          17.3800  -25.6188  -44.1791 N.am      1 UNK        -0.4884 
      5 CA         18.2132  -26.1425  -45.2732 C.3       1 UNK         0.0853 
      6 C6         17.9214  -27.6354  -45.6272 C.3       10 UNK        -0.0849 
      7 S7         16.1392  -28.0163  -45.7840 S.3       10 UNK        -0.2776 
      8 C8         16.1338  -29.8454  -45.8824 C.3       10 UNK         0.0316 
      9 C9         16.4769  -30.6190  -44.6026 C.ar      10 UNK        -0.0863 
     10 C10        16.4041  -32.0159  -44.6395 C.ar      10 UNK        -0.1009 
     11 C11        16.7474  -32.7884  -43.5246 C.ar      10 UNK        -0.0712 
     12 C12        17.1964  -32.1561  -42.3618 C.ar      10 UNK        -0.0894 
     13 C13        17.2736  -30.7617  -42.3055 C.ar      10 UNK        -0.0745 
     14 C14        16.8814  -30.0027  -43.4111 C.ar      10 UNK        -0.0972 
     15 C15        17.8114  -30.0615  -41.0688 C.3       10 UNK         0.0209 
     16 S16        19.6254  -29.9250  -41.1612 S.3       10 UNK        -0.2568 
     17 C17        19.9386  -28.3845  -40.2319 C.3       10 UNK        -0.0983 
     18 CA         21.1533  -27.5927  -40.7817 C.3       3 UNK         0.0876 
     19 N          21.0800  -27.3295  -42.2304 N.am      3 UNK        -0.4424 
     20 C          22.1350  -26.9874  -42.9895 C.2       2 UNK         0.4918 
     21 O          23.2559  -26.7978  -42.5177 O.2       2 UNK        -0.4875 
     22 CA         21.9484  -26.8057  -44.5077 C.3       2 UNK         0.0481 
     23 CB         22.7735  -27.8535  -45.2719 C.3       2 UNK        -0.1831 
     24 N          20.5505  -26.8841  -44.9335 N.am      2 UNK        -0.4498 
     25 C          19.7046  -25.8448  -44.9763 C.2       1 UNK         0.5027 
     26 O          20.0481  -24.6825  -44.7482 O.2       1 UNK        -0.4969 
     27 C          21.4255  -26.3261  -39.9416 C.2       3 UNK         0.5005 
     28 O          21.7907  -26.4417  -38.7711 O.2       3 UNK        -0.5279 
     29 N          21.2845  -25.1415  -40.5529 N.am      4 UNK        -0.4463 
     30 CA         21.7175  -23.8600  -39.9953 C.3       4 UNK         0.0283 
     31 CB         21.0607  -22.7223  -40.7938 C.3       4 UNK        -0.1875 
     32 C          23.2512  -23.6907  -39.9818 C.2       4 UNK         0.4949 
     33 O          23.7491  -22.8874  -39.1926 O.2       4 UNK        -0.5039 
     34 N          23.9664  -24.4208  -40.8512 N.am      5 UNK        -0.4663 
     35 CA         25.4221  -24.3496  -41.0081 C.3       5 UNK         0.0242 
     36 CB         25.7527  -24.0427  -42.4788 C.3       5 UNK        -0.1982 
     37 C          26.1175  -25.6466  -40.5667 C.2       5 UNK         0.5017 
     38 O          27.1583  -25.5758  -39.9119 O.2       5 UNK        -0.5012 
     39 N          25.5475  -26.7988  -40.9368 N.am      6 UNK        -0.4439 
     40 CA         26.0668  -28.1348  -40.6598 C.3       6 UNK         0.0297 
     41 CB         27.0186  -28.5699  -41.7950 C.3       6 UNK        -0.2006 
     42 C          24.8696  -29.0684  -40.4350 C.2       6 UNK         0.4892 
     43 O          24.1986  -28.9335  -39.4118 O.2       6 UNK        -0.5089 
     44 N          24.6027  -29.9748  -41.3818 N.am      7 UNK        -0.4243 
     45 CA         23.4438  -30.8616  -41.4030 C.3       7 UNK         0.0196 
     46 CB         23.6983  -32.1059  -40.5341 C.3       7 UNK        -0.2007 
     47 C          23.1704  -31.2457  -42.8586 C.2       7 UNK         0.5020 
     48 O          24.1111  -31.6032  -43.5697 O.2       7 UNK        -0.5147 
     49 N          21.9005  -31.1822  -43.2759 N.am      8 UNK        -0.4734 
     50 CA         21.4607  -31.6004  -44.6126 C.3       8 UNK         0.0238 
     51 CB         20.1412  -30.8955  -44.9579 C.3       8 UNK        -0.1912 
     52 C          21.2884  -33.1235  -44.7195 C.2       8 UNK         0.5038 
     53 O          21.5612  -33.6898  -45.7785 O.2       8 UNK        -0.5046 
     54 N          20.8487  -33.7431  -43.6186 N.am      9 UNK        -0.4200 
     55 CA         20.6195  -35.1884  -43.4724 C.3       9 UNK         0.0839 
     56 C          21.6329  -35.8593  -42.4994 C.2       9 UNK         0.5513 
     57 N          22.7331  -35.2100  -42.1370 N.am      9 UNK        -0.7519 
     58 O          21.4332  -36.9956  -42.0776 O.2       9 UNK        -0.4960 
     59 C59        19.1429  -35.4837  -43.0916 C.3       10 UNK        -0.0876 
     60 S60        17.9922  -35.0919  -44.4541 S.3       10 UNK        -0.2414 
     61 C61        16.6048  -34.3023  -43.5811 C.3       10 UNK         0.0169 
     62 H62        17.0705  -24.7996  -41.1402 H         1 UNK         0.0903 
     63 H63        15.8551  -24.5870  -42.4039 H         1 UNK         0.0903 
     64 H64        15.8696  -26.0608  -41.4319 H         1 UNK         0.0903 
     65 H65        16.7248  -24.8984  -44.4489 H         1 UNK         0.3096 
     66 H66        17.9636  -25.5465  -46.1526 H         1 UNK         0.1121 
     67 H67        18.3454  -28.2989  -44.8763 H         1 UNK         0.0849 
     68 H68        18.4031  -27.8976  -46.5712 H         1 UNK         0.0849 
     69 H69        15.1399  -30.1530  -46.2107 H         1 UNK         0.0865 
     70 H70        16.8222  -30.1506  -46.6719 H         1 UNK         0.0865 
     71 H71        16.0797  -32.5108  -45.5451 H         1 UNK         0.1346 
     72 H72        17.4868  -32.7454  -41.5030 H         1 UNK         0.1412 
     73 H73        16.9277  -28.9278  -43.3344 H         1 UNK         0.1426 
     74 H74        17.5335  -30.6076  -40.1663 H         1 UNK         0.0716 
     75 H75        17.3581  -29.0729  -40.9842 H         1 UNK         0.0716 
     76 H76        20.1065  -28.6596  -39.1890 H         1 UNK         0.0695 
     77 H77        19.0469  -27.7573  -40.2359 H         1 UNK         0.0695 
     78 H78        22.0293  -28.2180  -40.6263 H         1 UNK         0.0983 
     79 H79        20.1492  -27.3901  -42.6329 H         1 UNK         0.3095 
     80 H80        22.3484  -25.8226  -44.7642 H         1 UNK         0.0454 
     81 H81        22.6715  -27.7326  -46.3503 H         1 UNK         0.0851 
     82 H82        22.4780  -28.8696  -45.0165 H         1 UNK         0.0851 
     83 H83        23.8350  -27.7603  -45.0377 H         1 UNK         0.0851 
     84 H84        20.1904  -27.8057  -45.1274 H         1 UNK         0.2976 
     85 H85        20.9448  -25.1375  -41.5042 H         1 UNK         0.3116 
     86 H86        21.3689  -23.7979  -38.9621 H         1 UNK         0.0646 
     87 H87        21.3627  -22.7360  -41.8420 H         1 UNK         0.0847 
     88 H88        21.3400  -21.7491  -40.3875 H         1 UNK         0.0847 
     89 H89        19.9731  -22.7863  -40.7563 H         1 UNK         0.0847 
     90 H90        23.4828  -25.0876  -41.4410 H         1 UNK         0.3040 
     91 H91        25.8322  -23.5414  -40.3982 H         1 UNK         0.1015 
     92 H92        25.3641  -24.8088  -43.1514 H         1 UNK         0.0786 
     93 H93        26.8312  -23.9877  -42.6339 H         1 UNK         0.0786 
     94 H94        25.3327  -23.0847  -42.7856 H         1 UNK         0.0786 
     95 H95        24.6813  -26.7730  -41.4738 H         1 UNK         0.3172 
     96 H96        26.6294  -28.1240  -39.7238 H         1 UNK         0.0595 
     97 H97        26.5372  -28.5307  -42.7730 H         1 UNK         0.0839 
     98 H98        27.3845  -29.5856  -41.6381 H         1 UNK         0.0839 
     99 H99        27.8940  -27.9214  -41.8372 H         1 UNK         0.0839 
    100 H100       25.1871  -30.0244  -42.2068 H         1 UNK         0.2998 
    101 H101       22.5764  -30.3350  -41.0073 H         1 UNK         0.0822 
    102 H102       22.8283  -32.7635  -40.5310 H         1 UNK         0.0787 
    103 H103       24.5496  -32.6840  -40.8959 H         1 UNK         0.0787 
    104 H104       23.8967  -31.8327  -39.4976 H         1 UNK         0.0787 
    105 H105       21.1835  -30.8570  -42.6376 H         1 UNK         0.3055 
    106 H106       22.2127  -31.3017  -45.3469 H         1 UNK         0.1106 
    107 H107       19.8176  -31.1405  -45.9704 H         1 UNK         0.0828 
    108 H108       19.3426  -31.1973  -44.2816 H         1 UNK         0.0828 
    109 H109       20.2388  -29.8143  -44.8975 H         1 UNK         0.0828 
    110 H110       20.6713  -33.1870  -42.7961 H         1 UNK         0.2931 
    111 H111       20.8079  -35.6802  -44.4283 H         1 UNK         0.0412 
    112 H112       22.9421  -34.3035  -42.5221 H         1 UNK         0.3472 
    113 H113       23.3855  -35.6594  -41.5137 H         1 UNK         0.3472 
    114 H114       18.8670  -34.9333  -42.1909 H         1 UNK         0.0970 
    115 H115       19.0017  -36.5401  -42.8563 H         1 UNK         0.0970 
    116 H116       16.5006  -34.7235  -42.5800 H         1 UNK         0.0612 
    117 H117       15.6820  -34.5525  -44.1067 H         1 UNK         0.0612 
@<TRIPOS>BOND
     1    1    2 1    
     2    1   62 1    
     3    1   63 1    
     4    1   64 1    
     5    2    3 2    
     6    2    4 am   BACKBONE|DICT|INTERRES
     7    4    5 1    
     8    4   65 1    
     9    5    6 1    
    10    5   25 1    
    11    5   66 1    
    12    6    7 1    
    13    6   67 1    
    14    6   68 1    
    15    7    8 1    
    16    8    9 1    
    17    8   69 1    
    18    8   70 1    
    19    9   10 ar   
    20    9   14 ar   
    21   10   11 ar   
    22   10   71 1    
    23   11   12 ar   
    24   11   61 1    
    25   12   13 ar   
    26   12   72 1    
    27   13   14 ar   
    28   13   15 1    
    29   14   73 1    
    30   15   16 1    
    31   15   74 1    
    32   15   75 1    
    33   16   17 1    
    34   17   18 1    
    35   17   76 1    
    36   17   77 1    
    37   18   19 1    
    38   18   27 1    
    39   18   78 1    
    40   19   20 am   BACKBONE|DICT|INTERRES
    41   19   79 1    
    42   20   21 2    
    43   20   22 1    
    44   22   23 1    
    45   22   24 1    
    46   22   80 1    
    47   23   81 1    
    48   23   82 1    
    49   23   83 1    
    50   24   25 am   BACKBONE|DICT|INTERRES
    51   24   84 1    
    52   25   26 2    
    53   27   28 2    
    54   27   29 am   BACKBONE|DICT|INTERRES
    55   29   30 1    
    56   29   85 1    
    57   30   31 1    
    58   30   32 1    
    59   30   86 1    
    60   31   87 1    
    61   31   88 1    
    62   31   89 1    
    63   32   33 2    
    64   32   34 am   BACKBONE|DICT|INTERRES
    65   34   35 1    
    66   34   90 1    
    67   35   36 1    
    68   35   37 1    
    69   35   91 1    
    70   36   92 1    
    71   36   93 1    
    72   36   94 1    
    73   37   38 2    
    74   37   39 am   BACKBONE|DICT|INTERRES
    75   39   40 1    
    76   39   95 1    
    77   40   41 1    
    78   40   42 1    
    79   40   96 1    
    80   41   97 1    
    81   41   98 1    
    82   41   99 1    
    83   42   43 2    
    84   42   44 am   BACKBONE|DICT|INTERRES
    85   44   45 1    
    86   44  100 1    
    87   45   46 1    
    88   45   47 1    
    89   45  101 1    
    90   46  102 1    
    91   46  103 1    
    92   46  104 1    
    93   47   48 2    
    94   47   49 am   BACKBONE|DICT|INTERRES
    95   49   50 1    
    96   49  105 1    
    97   50   51 1    
    98   50   52 1    
    99   50  106 1    
   100   51  107 1    
   101   51  108 1    
   102   51  109 1    
   103   52   53 2    
   104   52   54 am   BACKBONE|DICT|INTERRES
   105   54   55 1    
   106   54  110 1    
   107   55   56 1    
   108   55   59 1    
   109   55  111 1    
   110   56   57 am   BACKBONE|DICT|INTERRES
   111   56   58 2    
   112   57  112 1    
   113   57  113 1    
   114   59   60 1    
   115   59  114 1    
   116   59  115 1    
   117   60   61 1    
   118   61  116 1    
   119   61  117 1    
@<TRIPOS>SUBSTRUCTURE
     1 UNK         1 GROUP             0       ****    0 ROOT    
