@<TRIPOS>MOLECULE
3R8
117   119    1
SMALL
USER_CHARGES


@<TRIPOS>ATOM
      1 CA         16.1411  -26.6312  -48.8811 C.3       0 UNK        -0.2013 
      2 C          16.4186  -26.3746  -47.4073 C.2       0 UNK         0.4866 
      3 O          16.3009  -25.2342  -46.9589 O.2       0 UNK        -0.5176 
      4 N          16.7810  -27.4301  -46.6639 N.am      1 UNK        -0.4884 
      5 CA         17.1089  -27.4373  -45.2315 C.3       1 UNK         0.0853 
      6 C6         15.8935  -27.1427  -44.3056 C.3       10 UNK        -0.0849 
      7 S7         14.7146  -28.5382  -44.2882 S.3       10 UNK        -0.2776 
      8 C8         14.9575  -29.2403  -42.6133 C.3       10 UNK         0.0316 
      9 C9         16.4139  -29.5704  -42.2920 C.ar      10 UNK        -0.0863 
     10 C10        17.1878  -30.3185  -43.1844 C.ar      10 UNK        -0.1009 
     11 C11        18.5410  -30.5526  -42.9306 C.ar      10 UNK        -0.0712 
     12 C12        19.1096  -30.0804  -41.7454 C.ar      10 UNK        -0.0894 
     13 C13        18.3383  -29.3764  -40.8147 C.ar      10 UNK        -0.0745 
     14 C14        16.9905  -29.1226  -41.0973 C.ar      10 UNK        -0.0972 
     15 C15        18.9699  -28.9341  -39.4958 C.3       10 UNK         0.0209 
     16 S16        18.6549  -27.1934  -39.0304 S.3       10 UNK        -0.2568 
     17 C17        18.9945  -26.2407  -40.5495 C.3       10 UNK        -0.0983 
     18 CA         20.3970  -26.4547  -41.1759 C.3       3 UNK         0.0876 
     19 N          20.3281  -26.2588  -42.6264 N.am      3 UNK        -0.4424 
     20 C          21.2487  -26.5996  -43.5344 C.2       2 UNK         0.4918 
     21 O          22.3672  -27.0211  -43.2378 O.2       2 UNK        -0.4875 
     22 CA         20.8371  -26.4276  -45.0172 C.3       2 UNK         0.0481 
     23 CB         21.8863  -27.0146  -45.9859 C.3       2 UNK        -0.1831 
     24 N          19.5238  -27.0203  -45.3184 N.am      2 UNK        -0.4498 
     25 C          18.3307  -26.5513  -44.9156 C.2       1 UNK         0.5027 
     26 O          18.1934  -25.4971  -44.2890 O.2       1 UNK        -0.4969 
     27 C          21.4895  -25.6030  -40.4931 C.2       3 UNK         0.5005 
     28 O          21.9419  -25.9515  -39.4017 O.2       3 UNK        -0.5279 
     29 N          21.9499  -24.5375  -41.1680 N.am      4 UNK        -0.4463 
     30 CA         23.1135  -23.7310  -40.7827 C.3       4 UNK         0.0283 
     31 CB         23.2195  -22.5167  -41.7196 C.3       4 UNK        -0.1875 
     32 C          24.4377  -24.5230  -40.7759 C.2       4 UNK         0.4949 
     33 O          25.3606  -24.1387  -40.0577 O.2       4 UNK        -0.5039 
     34 N          24.4994  -25.6225  -41.5418 N.am      5 UNK        -0.4663 
     35 CA         25.6066  -26.5817  -41.5574 C.3       5 UNK         0.0242 
     36 CB         25.8688  -27.0027  -43.0164 C.3       5 UNK        -0.1982 
     37 C          25.3269  -27.8007  -40.6520 C.2       5 UNK         0.5017 
     38 O          26.0037  -28.8198  -40.7975 O.2       5 UNK        -0.5012 
     39 N          24.3421  -27.6845  -39.7456 N.am      6 UNK        -0.4439 
     40 CA         23.7919  -28.7322  -38.8794 C.3       6 UNK         0.0297 
     41 CB         24.8588  -29.2878  -37.9079 C.3       6 UNK        -0.2006 
     42 C          23.0614  -29.8051  -39.7083 C.2       6 UNK         0.4892 
     43 O          22.4797  -29.4784  -40.7455 O.2       6 UNK        -0.5089 
     44 N          23.0845  -31.0645  -39.2531 N.am      7 UNK        -0.4243 
     45 CA         22.4705  -32.2188  -39.9181 C.3       7 UNK         0.0196 
     46 CB         22.2442  -33.3313  -38.8772 C.3       7 UNK        -0.2007 
     47 C          23.2907  -32.7007  -41.1337 C.2       7 UNK         0.5020 
     48 O          23.6370  -33.8799  -41.2205 O.2       7 UNK        -0.5147 
     49 N          23.5868  -31.7801  -42.0609 N.am      8 UNK        -0.4734 
     50 CA         24.3879  -32.0032  -43.2713 C.3       8 UNK         0.0238 
     51 CB         24.6336  -30.6514  -43.9615 C.3       8 UNK        -0.1912 
     52 C          23.7695  -33.0125  -44.2554 C.2       8 UNK         0.5038 
     53 O          24.5028  -33.6423  -45.0189 O.2       8 UNK        -0.5046 
     54 N          22.4409  -33.1550  -44.2010 N.am      9 UNK        -0.4200 
     55 CA         21.6567  -34.1745  -44.9071 C.3       9 UNK         0.0839 
     56 C          21.6893  -35.5881  -44.2510 C.2       9 UNK         0.5513 
     57 N          22.3063  -35.7836  -43.0904 N.am      9 UNK        -0.7519 
     58 O          21.1554  -36.5366  -44.8205 O.2       9 UNK        -0.4960 
     59 C59        20.2119  -33.6784  -45.1844 C.3       10 UNK        -0.0876 
     60 S60        19.3218  -33.0914  -43.6969 S.3       10 UNK        -0.2414 
     61 C61        19.3883  -31.2921  -43.9526 C.3       10 UNK         0.0169 
     62 H62        16.7965  -26.0166  -49.4989 H         1 UNK         0.0903 
     63 H63        16.3002  -27.6752  -49.1528 H         1 UNK         0.0903 
     64 H64        15.1086  -26.3731  -49.1175 H         1 UNK         0.0903 
     65 H65        16.8471  -28.3322  -47.1158 H         1 UNK         0.3096 
     66 H66        17.4410  -28.4520  -45.0180 H         1 UNK         0.1121 
     67 H67        15.3717  -26.2376  -44.6202 H         1 UNK         0.0849 
     68 H68        16.2170  -26.9533  -43.2802 H         1 UNK         0.0849 
     69 H69        14.5537  -28.5365  -41.8837 H         1 UNK         0.0865 
     70 H70        14.3626  -30.1500  -42.5222 H         1 UNK         0.0865 
     71 H71        16.7441  -30.6871  -44.0994 H         1 UNK         0.1346 
     72 H72        20.1544  -30.2710  -41.5458 H         1 UNK         0.1412 
     73 H73        16.3941  -28.5684  -40.3852 H         1 UNK         0.1426 
     74 H74        20.0480  -29.0981  -39.5077 H         1 UNK         0.0716 
     75 H75        18.5840  -29.5744  -38.7013 H         1 UNK         0.0716 
     76 H76        18.8167  -25.1832  -40.3437 H         1 UNK         0.0695 
     77 H77        18.2172  -26.5230  -41.2616 H         1 UNK         0.0695 
     78 H78        20.6980  -27.4942  -41.0387 H         1 UNK         0.0983 
     79 H79        19.4535  -25.8869  -42.9898 H         1 UNK         0.3095 
     80 H80        20.7755  -25.3516  -45.2076 H         1 UNK         0.0454 
     81 H81        21.6083  -26.8450  -47.0275 H         1 UNK         0.0851 
     82 H82        22.0145  -28.0910  -45.8400 H         1 UNK         0.0851 
     83 H83        22.8621  -26.5479  -45.8377 H         1 UNK         0.0851 
     84 H84        19.5437  -27.8934  -45.8263 H         1 UNK         0.2976 
     85 H85        21.5173  -24.3180  -42.0539 H         1 UNK         0.3116 
     86 H86        22.9448  -23.3675  -39.7666 H         1 UNK         0.0646 
     87 H87        23.3717  -22.8180  -42.7570 H         1 UNK         0.0847 
     88 H88        24.0609  -21.8807  -41.4392 H         1 UNK         0.0847 
     89 H89        22.3222  -21.8990  -41.6754 H         1 UNK         0.0847 
     90 H90        23.6861  -25.8901  -42.0881 H         1 UNK         0.3040 
     91 H91        26.5156  -26.1095  -41.1765 H         1 UNK         0.1015 
     92 H92        25.0103  -27.5206  -43.4467 H         1 UNK         0.0786 
     93 H93        26.7257  -27.6741  -43.0868 H         1 UNK         0.0786 
     94 H94        26.0865  -26.1385  -43.6450 H         1 UNK         0.0786 
     95 H95        23.8028  -26.8254  -39.7456 H         1 UNK         0.3172 
     96 H96        23.0234  -28.2458  -38.2775 H         1 UNK         0.0595 
     97 H97        25.5993  -29.9049  -38.4180 H         1 UNK         0.0839 
     98 H98        24.4046  -29.8951  -37.1242 H         1 UNK         0.0839 
     99 H99        25.3920  -28.4790  -37.4081 H         1 UNK         0.0839 
    100 H100       23.6101  -31.2588  -38.4130 H         1 UNK         0.2998 
    101 H101       21.4902  -31.9210  -40.2957 H         1 UNK         0.0822 
    102 H102       21.7376  -34.1879  -39.3244 H         1 UNK         0.0787 
    103 H103       23.1853  -33.6906  -38.4587 H         1 UNK         0.0787 
    104 H104       21.6201  -32.9838  -38.0534 H         1 UNK         0.0787 
    105 H105       23.2674  -30.8303  -41.8853 H         1 UNK         0.3055 
    106 H106       25.3516  -32.4120  -42.9593 H         1 UNK         0.1106 
    107 H107       25.1851  -29.9751  -43.3086 H         1 UNK         0.0828 
    108 H108       25.2243  -30.7746  -44.8706 H         1 UNK         0.0828 
    109 H109       23.6992  -30.1613  -44.2400 H         1 UNK         0.0828 
    110 H110       21.9335  -32.6112  -43.5196 H         1 UNK         0.2931 
    111 H111       22.1231  -34.3135  -45.8847 H         1 UNK         0.0412 
    112 H112       22.7648  -35.0259  -42.5961 H         1 UNK         0.3472 
    113 H113       22.3165  -36.7105  -42.6952 H         1 UNK         0.3472 
    114 H114       19.6169  -34.4636  -45.6546 H         1 UNK         0.0970 
    115 H115       20.2474  -32.8755  -45.9223 H         1 UNK         0.0970 
    116 H116       19.0354  -31.0539  -44.9574 H         1 UNK         0.0612 
    117 H117       20.4239  -30.9524  -43.9009 H         1 UNK         0.0612 
@<TRIPOS>BOND
     1    1    2 1    
     2    1   62 1    
     3    1   63 1    
     4    1   64 1    
     5    2    3 2    
     6    2    4 am   BACKBONE|DICT|INTERRES
     7    4    5 1    
     8    4   65 1    
     9    5    6 1    
    10    5   25 1    
    11    5   66 1    
    12    6    7 1    
    13    6   67 1    
    14    6   68 1    
    15    7    8 1    
    16    8    9 1    
    17    8   69 1    
    18    8   70 1    
    19    9   10 ar   
    20    9   14 ar   
    21   10   11 ar   
    22   10   71 1    
    23   11   12 ar   
    24   11   61 1    
    25   12   13 ar   
    26   12   72 1    
    27   13   14 ar   
    28   13   15 1    
    29   14   73 1    
    30   15   16 1    
    31   15   74 1    
    32   15   75 1    
    33   16   17 1    
    34   17   18 1    
    35   17   76 1    
    36   17   77 1    
    37   18   19 1    
    38   18   27 1    
    39   18   78 1    
    40   19   20 am   BACKBONE|DICT|INTERRES
    41   19   79 1    
    42   20   21 2    
    43   20   22 1    
    44   22   23 1    
    45   22   24 1    
    46   22   80 1    
    47   23   81 1    
    48   23   82 1    
    49   23   83 1    
    50   24   25 am   BACKBONE|DICT|INTERRES
    51   24   84 1    
    52   25   26 2    
    53   27   28 2    
    54   27   29 am   BACKBONE|DICT|INTERRES
    55   29   30 1    
    56   29   85 1    
    57   30   31 1    
    58   30   32 1    
    59   30   86 1    
    60   31   87 1    
    61   31   88 1    
    62   31   89 1    
    63   32   33 2    
    64   32   34 am   BACKBONE|DICT|INTERRES
    65   34   35 1    
    66   34   90 1    
    67   35   36 1    
    68   35   37 1    
    69   35   91 1    
    70   36   92 1    
    71   36   93 1    
    72   36   94 1    
    73   37   38 2    
    74   37   39 am   BACKBONE|DICT|INTERRES
    75   39   40 1    
    76   39   95 1    
    77   40   41 1    
    78   40   42 1    
    79   40   96 1    
    80   41   97 1    
    81   41   98 1    
    82   41   99 1    
    83   42   43 2    
    84   42   44 am   BACKBONE|DICT|INTERRES
    85   44   45 1    
    86   44  100 1    
    87   45   46 1    
    88   45   47 1    
    89   45  101 1    
    90   46  102 1    
    91   46  103 1    
    92   46  104 1    
    93   47   48 2    
    94   47   49 am   BACKBONE|DICT|INTERRES
    95   49   50 1    
    96   49  105 1    
    97   50   51 1    
    98   50   52 1    
    99   50  106 1    
   100   51  107 1    
   101   51  108 1    
   102   51  109 1    
   103   52   53 2    
   104   52   54 am   BACKBONE|DICT|INTERRES
   105   54   55 1    
   106   54  110 1    
   107   55   56 1    
   108   55   59 1    
   109   55  111 1    
   110   56   57 am   BACKBONE|DICT|INTERRES
   111   56   58 2    
   112   57  112 1    
   113   57  113 1    
   114   59   60 1    
   115   59  114 1    
   116   59  115 1    
   117   60   61 1    
   118   61  116 1    
   119   61  117 1    
@<TRIPOS>SUBSTRUCTURE
     1 UNK         1 GROUP             0       ****    0 ROOT    
