@<TRIPOS>MOLECULE
3R8
117   119    1
SMALL
USER_CHARGES


@<TRIPOS>ATOM
      1 CA         14.3929  -27.7773  -48.7812 C.3       0 UNK        -0.2013 
      2 C          15.4888  -28.4498  -47.9681 C.2       0 UNK         0.4866 
      3 O          16.1884  -29.3207  -48.4857 O.2       0 UNK        -0.5176 
      4 N          15.6427  -28.0543  -46.6977 N.am      1 UNK        -0.4884 
      5 CA         16.6376  -28.6018  -45.7655 C.3       1 UNK         0.0853 
      6 C6         16.3595  -28.1680  -44.3089 C.3       10 UNK        -0.0849 
      7 S7         14.7896  -28.8017  -43.6343 S.3       10 UNK        -0.2776 
      8 C8         14.7277  -27.9429  -42.0200 C.3       10 UNK         0.0316 
      9 C9         16.0717  -27.9548  -41.2987 C.ar      10 UNK        -0.0863 
     10 C10        16.6605  -29.1672  -40.9306 C.ar      10 UNK        -0.1009 
     11 C11        17.9352  -29.1951  -40.3573 C.ar      10 UNK        -0.0712 
     12 C12        18.5987  -27.9915  -40.1000 C.ar      10 UNK        -0.0894 
     13 C13        18.0077  -26.7678  -40.4338 C.ar      10 UNK        -0.0745 
     14 C14        16.7483  -26.7577  -41.0424 C.ar      10 UNK        -0.0972 
     15 C15        18.7036  -25.4525  -40.1005 C.3       10 UNK         0.0209 
     16 S16        20.3840  -25.3218  -40.7930 S.3       10 UNK        -0.2568 
     17 C17        20.0663  -25.1882  -42.5859 C.3       10 UNK        -0.0983 
     18 CA         20.8941  -26.2250  -43.3936 C.3       3 UNK         0.0876 
     19 N          20.2933  -26.5457  -44.6934 N.am      3 UNK        -0.4424 
     20 C          20.1535  -25.7245  -45.7443 C.2       2 UNK         0.4918 
     21 O          20.4884  -24.5401  -45.7434 O.2       2 UNK        -0.4875 
     22 CA         19.5085  -26.3105  -47.0159 C.3       2 UNK         0.0481 
     23 CB         20.5206  -27.1477  -47.8233 C.3       2 UNK        -0.1831 
     24 N          18.2576  -27.0392  -46.7580 N.am      2 UNK        -0.4498 
     25 C          18.0855  -28.2018  -46.1105 C.2       1 UNK         0.5027 
     26 O          19.0116  -28.9084  -45.7114 O.2       1 UNK        -0.4969 
     27 C          22.3874  -25.8564  -43.5610 C.2       3 UNK         0.5005 
     28 O          22.8270  -24.7791  -43.1523 O.2       3 UNK        -0.5279 
     29 N          23.1352  -26.7575  -44.2124 N.am      4 UNK        -0.4463 
     30 CA         24.5658  -26.6077  -44.4931 C.3       4 UNK         0.0283 
     31 CB         24.9594  -27.5703  -45.6248 C.3       4 UNK        -0.1875 
     32 C          25.4475  -26.8404  -43.2532 C.2       4 UNK         0.4949 
     33 O          26.5619  -26.3202  -43.1964 O.2       4 UNK        -0.5039 
     34 N          24.9358  -27.6122  -42.2903 N.am      5 UNK        -0.4663 
     35 CA         25.5561  -27.9553  -41.0162 C.3       5 UNK         0.0242 
     36 CB         26.6246  -29.0469  -41.2317 C.3       5 UNK        -0.1982 
     37 C          24.4494  -28.4439  -40.0723 C.2       5 UNK         0.5017 
     38 O          23.3043  -28.6023  -40.5027 O.2       5 UNK        -0.5012 
     39 N          24.8071  -28.7027  -38.8085 N.am      6 UNK        -0.4439 
     40 CA         23.9328  -29.3883  -37.8521 C.3       6 UNK         0.0297 
     41 CB         24.4438  -29.1597  -36.4202 C.3       6 UNK        -0.2006 
     42 C          23.8269  -30.8926  -38.1619 C.2       6 UNK         0.4892 
     43 O          22.7331  -31.4543  -38.0928 O.2       6 UNK        -0.5089 
     44 N          24.9651  -31.5098  -38.5124 N.am      7 UNK        -0.4243 
     45 CA         25.0750  -32.9165  -38.8951 C.3       7 UNK         0.0196 
     46 CB         26.5574  -33.3244  -38.9151 C.3       7 UNK        -0.2007 
     47 C          24.4225  -33.1592  -40.2633 C.2       7 UNK         0.5020 
     48 O          24.8384  -32.5460  -41.2489 O.2       7 UNK        -0.5147 
     49 N          23.3972  -34.0238  -40.2874 N.am      8 UNK        -0.4734 
     50 CA         22.6020  -34.4331  -41.4587 C.3       8 UNK         0.0238 
     51 CB         23.4583  -35.3069  -42.4004 C.3       8 UNK        -0.1912 
     52 C          21.9194  -33.2690  -42.2116 C.2       8 UNK         0.5038 
     53 O          21.5718  -33.4263  -43.3835 O.2       8 UNK        -0.5046 
     54 N          21.7568  -32.1257  -41.5315 N.am      9 UNK        -0.4200 
     55 CA         21.2991  -30.8398  -42.0815 C.3       9 UNK         0.0839 
     56 C          22.2761  -30.2201  -43.1307 C.2       9 UNK         0.5513 
     57 N          23.5401  -30.6282  -43.1818 N.am      9 UNK        -0.7519 
     58 O          21.9001  -29.3346  -43.8947 O.2       9 UNK        -0.4960 
     59 C59        19.8181  -30.8517  -42.5629 C.3       10 UNK        -0.0876 
     60 S60        18.6590  -31.6791  -41.4135 S.3       10 UNK        -0.2414 
     61 C61        18.5887  -30.5239  -40.0033 C.3       10 UNK         0.0169 
     62 H62        13.8527  -27.0303  -48.1998 H         1 UNK         0.0903 
     63 H63        14.8216  -27.2836  -49.6529 H         1 UNK         0.0903 
     64 H64        13.6750  -28.5198  -49.1289 H         1 UNK         0.0903 
     65 H65        15.0178  -27.3596  -46.3124 H         1 UNK         0.3096 
     66 H66        16.5891  -29.6921  -45.8184 H         1 UNK         0.1121 
     67 H67        16.3672  -27.0795  -44.2193 H         1 UNK         0.0849 
     68 H68        17.1594  -28.5331  -43.6607 H         1 UNK         0.0849 
     69 H69        14.3871  -26.9191  -42.1826 H         1 UNK         0.0865 
     70 H70        13.9751  -28.4190  -41.3901 H         1 UNK         0.0865 
     71 H71        16.1430  -30.0952  -41.1330 H         1 UNK         0.1346 
     72 H72        19.5762  -28.0025  -39.6367 H         1 UNK         0.1412 
     73 H73        16.2934  -25.8156  -41.3169 H         1 UNK         0.1426 
     74 H74        18.7687  -25.3622  -39.0155 H         1 UNK         0.0716 
     75 H75        18.1158  -24.5990  -40.4422 H         1 UNK         0.0716 
     76 H76        20.2642  -24.1673  -42.9170 H         1 UNK         0.0695 
     77 H77        19.0022  -25.3543  -42.7601 H         1 UNK         0.0695 
     78 H78        20.8725  -27.1607  -42.8324 H         1 UNK         0.0983 
     79 H79        20.0129  -27.5140  -44.8270 H         1 UNK         0.3095 
     80 H80        19.2224  -25.4636  -47.6417 H         1 UNK         0.0454 
     81 H81        20.0739  -27.5342  -48.7391 H         1 UNK         0.0851 
     82 H82        20.9061  -27.9945  -47.2549 H         1 UNK         0.0851 
     83 H83        21.3793  -26.5405  -48.1124 H         1 UNK         0.0851 
     84 H84        17.4159  -26.5434  -47.0173 H         1 UNK         0.2976 
     85 H85        22.7028  -27.6454  -44.4560 H         1 UNK         0.3116 
     86 H86        24.7449  -25.5871  -44.8382 H         1 UNK         0.0646 
     87 H87        24.3941  -27.3654  -46.5341 H         1 UNK         0.0847 
     88 H88        26.0170  -27.4693  -45.8724 H         1 UNK         0.0847 
     89 H89        24.7870  -28.6112  -45.3501 H         1 UNK         0.0847 
     90 H90        23.9918  -27.9687  -42.3863 H         1 UNK         0.3040 
     91 H91        26.0112  -27.0604  -40.5863 H         1 UNK         0.1015 
     92 H92        26.1839  -29.9670  -41.6191 H         1 UNK         0.0786 
     93 H93        27.1347  -29.2959  -40.3010 H         1 UNK         0.0786 
     94 H94        27.3912  -28.7236  -41.9360 H         1 UNK         0.0786 
     95 H95        25.7549  -28.5124  -38.5155 H         1 UNK         0.3172 
     96 H96        22.9304  -28.9595  -37.9232 H         1 UNK         0.0595 
     97 H97        25.4503  -29.5546  -36.2766 H         1 UNK         0.0839 
     98 H98        23.7952  -29.6514  -35.6937 H         1 UNK         0.0839 
     99 H99        24.4604  -28.0987  -36.1702 H         1 UNK         0.0839 
    100 H100       25.8079  -30.9604  -38.5801 H         1 UNK         0.2998 
    101 H101       24.5661  -33.5177  -38.1384 H         1 UNK         0.0822 
    102 H102       26.6681  -34.3750  -39.1872 H         1 UNK         0.0787 
    103 H103       27.1288  -32.7395  -39.6374 H         1 UNK         0.0787 
    104 H104       27.0191  -33.1935  -37.9361 H         1 UNK         0.0787 
    105 H105       23.1134  -34.4406  -39.4103 H         1 UNK         0.3055 
    106 H106       21.7889  -35.0538  -41.0786 H         1 UNK         0.1106 
    107 H107       23.9159  -36.1385  -41.8647 H         1 UNK         0.0828 
    108 H108       22.8530  -35.7353  -43.2003 H         1 UNK         0.0828 
    109 H109       24.2560  -34.7304  -42.8702 H         1 UNK         0.0828 
    110 H110       22.0830  -32.0963  -40.5760 H         1 UNK         0.2931 
    111 H111       21.3391  -30.1532  -41.2372 H         1 UNK         0.0412 
    112 H112       24.1610  -30.2411  -43.8710 H         1 UNK         0.3472 
    113 H113       23.8832  -31.3310  -42.5350 H         1 UNK         0.3472 
    114 H114       19.7439  -31.3578  -43.5270 H         1 UNK         0.0970 
    115 H115       19.4683  -29.8326  -42.7385 H         1 UNK         0.0970 
    116 H116       19.5958  -30.3764  -39.6105 H         1 UNK         0.0612 
    117 H117       18.0141  -30.9903  -39.2023 H         1 UNK         0.0612 
@<TRIPOS>BOND
     1    1    2 1    
     2    1   62 1    
     3    1   63 1    
     4    1   64 1    
     5    2    3 2    
     6    2    4 am   BACKBONE|DICT|INTERRES
     7    4    5 1    
     8    4   65 1    
     9    5    6 1    
    10    5   25 1    
    11    5   66 1    
    12    6    7 1    
    13    6   67 1    
    14    6   68 1    
    15    7    8 1    
    16    8    9 1    
    17    8   69 1    
    18    8   70 1    
    19    9   10 ar   
    20    9   14 ar   
    21   10   11 ar   
    22   10   71 1    
    23   11   12 ar   
    24   11   61 1    
    25   12   13 ar   
    26   12   72 1    
    27   13   14 ar   
    28   13   15 1    
    29   14   73 1    
    30   15   16 1    
    31   15   74 1    
    32   15   75 1    
    33   16   17 1    
    34   17   18 1    
    35   17   76 1    
    36   17   77 1    
    37   18   19 1    
    38   18   27 1    
    39   18   78 1    
    40   19   20 am   BACKBONE|DICT|INTERRES
    41   19   79 1    
    42   20   21 2    
    43   20   22 1    
    44   22   23 1    
    45   22   24 1    
    46   22   80 1    
    47   23   81 1    
    48   23   82 1    
    49   23   83 1    
    50   24   25 am   BACKBONE|DICT|INTERRES
    51   24   84 1    
    52   25   26 2    
    53   27   28 2    
    54   27   29 am   BACKBONE|DICT|INTERRES
    55   29   30 1    
    56   29   85 1    
    57   30   31 1    
    58   30   32 1    
    59   30   86 1    
    60   31   87 1    
    61   31   88 1    
    62   31   89 1    
    63   32   33 2    
    64   32   34 am   BACKBONE|DICT|INTERRES
    65   34   35 1    
    66   34   90 1    
    67   35   36 1    
    68   35   37 1    
    69   35   91 1    
    70   36   92 1    
    71   36   93 1    
    72   36   94 1    
    73   37   38 2    
    74   37   39 am   BACKBONE|DICT|INTERRES
    75   39   40 1    
    76   39   95 1    
    77   40   41 1    
    78   40   42 1    
    79   40   96 1    
    80   41   97 1    
    81   41   98 1    
    82   41   99 1    
    83   42   43 2    
    84   42   44 am   BACKBONE|DICT|INTERRES
    85   44   45 1    
    86   44  100 1    
    87   45   46 1    
    88   45   47 1    
    89   45  101 1    
    90   46  102 1    
    91   46  103 1    
    92   46  104 1    
    93   47   48 2    
    94   47   49 am   BACKBONE|DICT|INTERRES
    95   49   50 1    
    96   49  105 1    
    97   50   51 1    
    98   50   52 1    
    99   50  106 1    
   100   51  107 1    
   101   51  108 1    
   102   51  109 1    
   103   52   53 2    
   104   52   54 am   BACKBONE|DICT|INTERRES
   105   54   55 1    
   106   54  110 1    
   107   55   56 1    
   108   55   59 1    
   109   55  111 1    
   110   56   57 am   BACKBONE|DICT|INTERRES
   111   56   58 2    
   112   57  112 1    
   113   57  113 1    
   114   59   60 1    
   115   59  114 1    
   116   59  115 1    
   117   60   61 1    
   118   61  116 1    
   119   61  117 1    
@<TRIPOS>SUBSTRUCTURE
     1 UNK         1 GROUP             0       ****    0 ROOT    
