@<TRIPOS>MOLECULE
3R8
117   119    1
SMALL
USER_CHARGES


@<TRIPOS>ATOM
      1 CA         16.1824  -23.1647  -45.2972 C.3       0 UNK        -0.2013 
      2 C          16.6337  -24.6124  -45.4148 C.2       0 UNK         0.4866 
      3 O          17.8283  -24.8931  -45.3146 O.2       0 UNK        -0.5176 
      4 N          15.6894  -25.5409  -45.6163 N.am      1 UNK        -0.4884 
      5 CA         15.9254  -26.9845  -45.7409 C.3       1 UNK         0.0853 
      6 C6         14.8063  -27.6412  -46.5924 C.3       10 UNK        -0.0849 
      7 S7         15.0510  -29.3995  -47.0292 S.3       10 UNK        -0.2776 
      8 C8         16.6124  -29.3893  -47.9731 C.3       10 UNK         0.0316 
      9 C9         17.8533  -29.5166  -47.0923 C.ar      10 UNK        -0.0863 
     10 C10        17.9359  -30.5146  -46.1127 C.ar      10 UNK        -0.1009 
     11 C11        19.0973  -30.6712  -45.3510 C.ar      10 UNK        -0.0712 
     12 C12        20.1862  -29.8325  -45.5896 C.ar      10 UNK        -0.0894 
     13 C13        20.1151  -28.8158  -46.5429 C.ar      10 UNK        -0.0745 
     14 C14        18.9448  -28.6633  -47.2931 C.ar      10 UNK        -0.0972 
     15 C15        21.3154  -27.9114  -46.7876 C.3       10 UNK         0.0209 
     16 S16        21.4067  -26.5420  -45.5887 S.3       10 UNK        -0.2568 
     17 C17        22.2116  -27.3291  -44.1495 C.3       10 UNK        -0.0983 
     18 CA         21.4350  -27.1131  -42.8253 C.3       3 UNK         0.0876 
     19 N          20.0325  -27.5439  -42.9019 N.am      3 UNK        -0.4424 
     20 C          19.0517  -27.0826  -42.1140 C.2       2 UNK         0.4918 
     21 O          19.2269  -26.2162  -41.2538 O.2       2 UNK        -0.4875 
     22 CA         17.6476  -27.6484  -42.3560 C.3       2 UNK         0.0481 
     23 CB         16.6446  -27.2085  -41.2661 C.3       2 UNK        -0.1831 
     24 N          17.2174  -27.2144  -43.6807 N.am      2 UNK        -0.4498 
     25 C          16.1330  -27.6235  -44.3474 C.2       1 UNK         0.5027 
     26 O          15.3097  -28.4197  -43.8921 O.2       1 UNK        -0.4969 
     27 C          22.1377  -27.7697  -41.6150 C.2       3 UNK         0.5005 
     28 O          23.0427  -28.5956  -41.7825 O.2       3 UNK        -0.5279 
     29 N          21.6934  -27.3941  -40.4082 N.am      4 UNK        -0.4463 
     30 CA         22.0637  -27.9245  -39.0911 C.3       4 UNK         0.0283 
     31 CB         21.0244  -27.4404  -38.0632 C.3       4 UNK        -0.1875 
     32 C          23.5120  -27.6253  -38.6398 C.2       4 UNK         0.4949 
     33 O          23.7502  -27.3713  -37.4585 O.2       4 UNK        -0.5039 
     34 N          24.4568  -27.6848  -39.5797 N.am      5 UNK        -0.4663 
     35 CA         25.8959  -27.5584  -39.3698 C.3       5 UNK         0.0242 
     36 CB         26.3080  -26.0794  -39.2457 C.3       5 UNK        -0.1982 
     37 C          26.6416  -28.2616  -40.5081 C.2       5 UNK         0.5017 
     38 O          27.4948  -29.1066  -40.2388 O.2       5 UNK        -0.5012 
     39 N          26.2907  -27.9157  -41.7567 N.am      6 UNK        -0.4439 
     40 CA         26.8686  -28.5005  -42.9700 C.3       6 UNK         0.0297 
     41 CB         26.5340  -27.6201  -44.1853 C.3       6 UNK        -0.2006 
     42 C          26.4114  -29.9494  -43.2040 C.2       6 UNK         0.4892 
     43 O          27.2482  -30.8064  -43.4902 O.2       6 UNK        -0.5089 
     44 N          25.1010  -30.1922  -43.0689 N.am      7 UNK        -0.4243 
     45 CA         24.4920  -31.5213  -43.1609 C.3       7 UNK         0.0196 
     46 CB         23.1696  -31.4137  -43.9324 C.3       7 UNK        -0.2007 
     47 C          24.2324  -32.1183  -41.7709 C.2       7 UNK         0.5020 
     48 O          24.2221  -33.3414  -41.6375 O.2       7 UNK        -0.5147 
     49 N          24.0052  -31.2459  -40.7760 N.am      8 UNK        -0.4734 
     50 CA         23.6685  -31.5504  -39.3774 C.3       8 UNK         0.0238 
     51 CB         24.7806  -32.3746  -38.6936 C.3       8 UNK        -0.1912 
     52 C          22.2660  -32.1705  -39.2003 C.2       8 UNK         0.5038 
     53 O          21.9963  -32.7684  -38.1572 O.2       8 UNK        -0.5046 
     54 N          21.3977  -32.0099  -40.2078 N.am      9 UNK        -0.4200 
     55 CA         19.9936  -32.4375  -40.1922 C.3       9 UNK         0.0839 
     56 C          19.0943  -31.5446  -39.2913 C.2       9 UNK         0.5513 
     57 N          17.9452  -32.0552  -38.8695 N.am      9 UNK        -0.7519 
     58 O          19.4112  -30.3962  -38.9895 O.2       9 UNK        -0.4960 
     59 C59        19.4314  -32.5939  -41.6308 C.3       10 UNK        -0.0876 
     60 S60        19.4884  -31.0709  -42.6352 S.3       10 UNK        -0.2414 
     61 C61        19.1961  -31.7623  -44.2939 C.3       10 UNK         0.0169 
     62 H62        16.6627  -22.5593  -46.0655 H         1 UNK         0.0903 
     63 H63        15.1033  -23.0624  -45.4102 H         1 UNK         0.0903 
     64 H64        16.4614  -22.7634  -44.3233 H         1 UNK         0.0903 
     65 H65        14.7208  -25.2542  -45.6542 H         1 UNK         0.3096 
     66 H66        16.8626  -27.1097  -46.2833 H         1 UNK         0.1121 
     67 H67        14.6891  -27.0906  -47.5276 H         1 UNK         0.0849 
     68 H68        13.8463  -27.5561  -46.0794 H         1 UNK         0.0849 
     69 H69        16.6013  -30.2330  -48.6646 H         1 UNK         0.0865 
     70 H70        16.6549  -28.4913  -48.5919 H         1 UNK         0.0865 
     71 H71        17.0970  -31.1781  -45.9521 H         1 UNK         0.1346 
     72 H72        21.0913  -29.9789  -45.0259 H         1 UNK         0.1412 
     73 H73        18.8936  -27.8905  -48.0483 H         1 UNK         0.1426 
     74 H74        21.2589  -27.4858  -47.7906 H         1 UNK         0.0716 
     75 H75        22.2393  -28.4914  -46.7615 H         1 UNK         0.0716 
     76 H76        23.2059  -26.8891  -44.0633 H         1 UNK         0.0695 
     77 H77        22.3785  -28.3872  -44.3415 H         1 UNK         0.0695 
     78 H78        21.4424  -26.0365  -42.6388 H         1 UNK         0.0983 
     79 H79        19.8170  -28.2521  -43.5895 H         1 UNK         0.3095 
     80 H80        17.7159  -28.7368  -42.3486 H         1 UNK         0.0454 
     81 H81        16.4811  -26.1303  -41.2810 H         1 UNK         0.0851 
     82 H82        17.0112  -27.4708  -40.2727 H         1 UNK         0.0851 
     83 H83        15.6771  -27.6954  -41.3830 H         1 UNK         0.0851 
     84 H84        17.7979  -26.5073  -44.1264 H         1 UNK         0.2976 
     85 H85        20.9220  -26.7328  -40.4093 H         1 UNK         0.3116 
     86 H86        21.9708  -29.0090  -39.1524 H         1 UNK         0.0646 
     87 H87        20.0112  -27.7018  -38.3699 H         1 UNK         0.0847 
     88 H88        21.0665  -26.3592  -37.9269 H         1 UNK         0.0847 
     89 H89        21.1887  -27.9016  -37.0884 H         1 UNK         0.0847 
     90 H90        24.1486  -27.9555  -40.5103 H         1 UNK         0.3040 
     91 H91        26.1599  -28.0723  -38.4423 H         1 UNK         0.1015 
     92 H92        26.0134  -25.4990  -40.1205 H         1 UNK         0.0786 
     93 H93        27.3892  -25.9835  -39.1364 H         1 UNK         0.0786 
     94 H94        25.8537  -25.6147  -38.3705 H         1 UNK         0.0786 
     95 H95        25.6076  -27.1839  -41.8850 H         1 UNK         0.3172 
     96 H96        27.9549  -28.5092  -42.8545 H         1 UNK         0.0595 
     97 H97        25.4609  -27.5629  -44.3662 H         1 UNK         0.0839 
     98 H98        26.9929  -28.0196  -45.0909 H         1 UNK         0.0839 
     99 H99        26.9089  -26.6045  -44.0567 H         1 UNK         0.0839 
    100 H100       24.4816  -29.4309  -42.8112 H         1 UNK         0.2998 
    101 H101       25.1495  -32.2043  -43.7034 H         1 UNK         0.0822 
    102 H102       23.3256  -31.0038  -44.9304 H         1 UNK         0.0787 
    103 H103       22.7037  -32.3930  -44.0513 H         1 UNK         0.0787 
    104 H104       22.4580  -30.7761  -43.4081 H         1 UNK         0.0787 
    105 H105       23.9602  -30.2667  -41.0321 H         1 UNK         0.3055 
    106 H106       23.6334  -30.5936  -38.8588 H         1 UNK         0.1106 
    107 H107       24.8258  -33.3951  -39.0742 H         1 UNK         0.0828 
    108 H108       24.6124  -32.4405  -37.6180 H         1 UNK         0.0828 
    109 H109       25.7592  -31.9168  -38.8388 H         1 UNK         0.0828 
    110 H110       21.6844  -31.4746  -41.0129 H         1 UNK         0.2931 
    111 H111       19.9796  -33.4330  -39.7435 H         1 UNK         0.0412 
    112 H112       17.3435  -31.4895  -38.2915 H         1 UNK         0.3472 
    113 H113       17.6703  -32.9954  -39.1080 H         1 UNK         0.3472 
    114 H114       18.4012  -32.9536  -41.6034 H         1 UNK         0.0970 
    115 H115       19.9977  -33.3689  -42.1500 H         1 UNK         0.0970 
    116 H116       20.0115  -32.4392  -44.5526 H         1 UNK         0.0612 
    117 H117       18.2842  -32.3611  -44.2726 H         1 UNK         0.0612 
@<TRIPOS>BOND
     1    1    2 1    
     2    1   62 1    
     3    1   63 1    
     4    1   64 1    
     5    2    3 2    
     6    2    4 am   BACKBONE|DICT|INTERRES
     7    4    5 1    
     8    4   65 1    
     9    5    6 1    
    10    5   25 1    
    11    5   66 1    
    12    6    7 1    
    13    6   67 1    
    14    6   68 1    
    15    7    8 1    
    16    8    9 1    
    17    8   69 1    
    18    8   70 1    
    19    9   10 ar   
    20    9   14 ar   
    21   10   11 ar   
    22   10   71 1    
    23   11   12 ar   
    24   11   61 1    
    25   12   13 ar   
    26   12   72 1    
    27   13   14 ar   
    28   13   15 1    
    29   14   73 1    
    30   15   16 1    
    31   15   74 1    
    32   15   75 1    
    33   16   17 1    
    34   17   18 1    
    35   17   76 1    
    36   17   77 1    
    37   18   19 1    
    38   18   27 1    
    39   18   78 1    
    40   19   20 am   BACKBONE|DICT|INTERRES
    41   19   79 1    
    42   20   21 2    
    43   20   22 1    
    44   22   23 1    
    45   22   24 1    
    46   22   80 1    
    47   23   81 1    
    48   23   82 1    
    49   23   83 1    
    50   24   25 am   BACKBONE|DICT|INTERRES
    51   24   84 1    
    52   25   26 2    
    53   27   28 2    
    54   27   29 am   BACKBONE|DICT|INTERRES
    55   29   30 1    
    56   29   85 1    
    57   30   31 1    
    58   30   32 1    
    59   30   86 1    
    60   31   87 1    
    61   31   88 1    
    62   31   89 1    
    63   32   33 2    
    64   32   34 am   BACKBONE|DICT|INTERRES
    65   34   35 1    
    66   34   90 1    
    67   35   36 1    
    68   35   37 1    
    69   35   91 1    
    70   36   92 1    
    71   36   93 1    
    72   36   94 1    
    73   37   38 2    
    74   37   39 am   BACKBONE|DICT|INTERRES
    75   39   40 1    
    76   39   95 1    
    77   40   41 1    
    78   40   42 1    
    79   40   96 1    
    80   41   97 1    
    81   41   98 1    
    82   41   99 1    
    83   42   43 2    
    84   42   44 am   BACKBONE|DICT|INTERRES
    85   44   45 1    
    86   44  100 1    
    87   45   46 1    
    88   45   47 1    
    89   45  101 1    
    90   46  102 1    
    91   46  103 1    
    92   46  104 1    
    93   47   48 2    
    94   47   49 am   BACKBONE|DICT|INTERRES
    95   49   50 1    
    96   49  105 1    
    97   50   51 1    
    98   50   52 1    
    99   50  106 1    
   100   51  107 1    
   101   51  108 1    
   102   51  109 1    
   103   52   53 2    
   104   52   54 am   BACKBONE|DICT|INTERRES
   105   54   55 1    
   106   54  110 1    
   107   55   56 1    
   108   55   59 1    
   109   55  111 1    
   110   56   57 am   BACKBONE|DICT|INTERRES
   111   56   58 2    
   112   57  112 1    
   113   57  113 1    
   114   59   60 1    
   115   59  114 1    
   116   59  115 1    
   117   60   61 1    
   118   61  116 1    
   119   61  117 1    
@<TRIPOS>SUBSTRUCTURE
     1 UNK         1 GROUP             0       ****    0 ROOT    
