@<TRIPOS>MOLECULE
3R8
117   119    1
SMALL
USER_CHARGES


@<TRIPOS>ATOM
      1 CA         20.5927  -28.6710  -45.8471 C.3       0 UNK        -0.2013 
      2 C          20.0413  -27.8290  -46.9945 C.2       0 UNK         0.4866 
      3 O          20.6410  -27.8057  -48.0667 O.2       0 UNK        -0.5176 
      4 N          18.9204  -27.1128  -46.8260 N.am      1 UNK        -0.4884 
      5 CA         18.0903  -27.0287  -45.6137 C.3       1 UNK         0.0853 
      6 C6         16.5779  -26.9515  -45.9388 C.3       10 UNK        -0.0849 
      7 S7         15.9814  -28.4666  -46.7578 S.3       10 UNK        -0.2776 
      8 C8         15.3587  -29.4283  -45.3362 C.3       10 UNK         0.0316 
      9 C9         16.4778  -29.9671  -44.4501 C.ar      10 UNK        -0.0863 
     10 C10        17.4041  -30.8752  -44.9730 C.ar      10 UNK        -0.1009 
     11 C11        18.4074  -31.4129  -44.1632 C.ar      10 UNK        -0.0712 
     12 C12        18.4759  -31.0456  -42.8169 C.ar      10 UNK        -0.0894 
     13 C13        17.5539  -30.1452  -42.2748 C.ar      10 UNK        -0.0745 
     14 C14        16.5634  -29.5987  -43.1008 C.ar      10 UNK        -0.0972 
     15 C15        17.5793  -29.8393  -40.7798 C.3       10 UNK         0.0209 
     16 S16        19.1758  -29.1709  -40.2010 S.3       10 UNK        -0.2568 
     17 C17        18.9762  -27.3948  -40.5505 C.3       10 UNK        -0.0983 
     18 CA         20.3088  -26.7058  -40.9551 C.3       3 UNK         0.0876 
     19 N          20.0616  -25.7291  -42.0214 N.am      3 UNK        -0.4424 
     20 C          20.9613  -25.0860  -42.7724 C.2       2 UNK         0.4918 
     21 O          22.1692  -25.0845  -42.5359 O.2       2 UNK        -0.4875 
     22 CA         20.4026  -24.3594  -44.0148 C.3       2 UNK         0.0481 
     23 CB         21.5028  -23.6258  -44.8032 C.3       2 UNK        -0.1831 
     24 N          19.7115  -25.2937  -44.9134 N.am      2 UNK        -0.4498 
     25 C          18.5290  -25.8842  -44.6764 C.2       1 UNK         0.5027 
     26 O          17.8188  -25.5888  -43.7131 O.2       1 UNK        -0.4969 
     27 C          21.0758  -26.1457  -39.7329 C.2       3 UNK         0.5005 
     28 O          21.5850  -26.9225  -38.9247 O.2       3 UNK        -0.5279 
     29 N          21.1642  -24.8127  -39.6182 N.am      4 UNK        -0.4463 
     30 CA         22.0041  -24.1155  -38.6419 C.3       4 UNK         0.0283 
     31 CB         21.5582  -22.6471  -38.5508 C.3       4 UNK        -0.1875 
     32 C          23.5086  -24.1978  -38.9697 C.2       4 UNK         0.4949 
     33 O          24.3219  -24.0784  -38.0529 O.2       4 UNK        -0.5039 
     34 N          23.8519  -24.3803  -40.2529 N.am      5 UNK        -0.4663 
     35 CA         25.2269  -24.4656  -40.7515 C.3       5 UNK         0.0242 
     36 CB         25.4481  -23.3671  -41.8052 C.3       5 UNK        -0.1982 
     37 C          25.5318  -25.8478  -41.3477 C.2       5 UNK         0.5017 
     38 O          26.6194  -26.3764  -41.1131 O.2       5 UNK        -0.5012 
     39 N          24.5837  -26.4026  -42.1143 N.am      6 UNK        -0.4439 
     40 CA         24.6741  -27.7189  -42.7460 C.3       6 UNK         0.0297 
     41 CB         23.5771  -27.8314  -43.8184 C.3       6 UNK        -0.2006 
     42 C          24.5330  -28.8594  -41.7250 C.2       6 UNK         0.4892 
     43 O          23.8719  -28.6924  -40.6979 O.2       6 UNK        -0.5089 
     44 N          25.1273  -30.0128  -42.0529 N.am      7 UNK        -0.4243 
     45 CA         24.9807  -31.2590  -41.2994 C.3       7 UNK         0.0196 
     46 CB         26.0805  -32.2407  -41.7372 C.3       7 UNK        -0.2007 
     47 C          23.5902  -31.8817  -41.5119 C.2       7 UNK         0.5020 
     48 O          22.9794  -31.6829  -42.5656 O.2       7 UNK        -0.5147 
     49 N          23.1300  -32.6532  -40.5196 N.am      8 UNK        -0.4734 
     50 CA         21.8731  -33.4005  -40.5791 C.3       8 UNK         0.0238 
     51 CB         21.5134  -33.9128  -39.1747 C.3       8 UNK        -0.1912 
     52 C          21.9709  -34.5647  -41.5796 C.2       8 UNK         0.5038 
     53 O          22.9052  -35.3649  -41.4905 O.2       8 UNK        -0.5046 
     54 N          21.0048  -34.6324  -42.4994 N.am      9 UNK        -0.4200 
     55 CA         20.8887  -35.6583  -43.5472 C.3       9 UNK         0.0839 
     56 C          20.1349  -36.9472  -43.1059 C.2       9 UNK         0.5513 
     57 N          19.5965  -37.0253  -41.8944 N.am      9 UNK        -0.7519 
     58 O          20.0545  -37.9040  -43.8722 O.2       9 UNK        -0.4960 
     59 C59        20.3223  -35.0551  -44.8631 C.3       10 UNK        -0.0876 
     60 S60        18.7782  -34.1044  -44.6279 S.3       10 UNK        -0.2414 
     61 C61        19.4099  -32.4012  -44.7348 C.3       10 UNK         0.0169 
     62 H62        20.6335  -28.1110  -44.9142 H         1 UNK         0.0903 
     63 H63        19.9750  -29.5546  -45.6987 H         1 UNK         0.0903 
     64 H64        21.6043  -29.0075  -46.0729 H         1 UNK         0.0903 
     65 H65        18.5804  -26.5725  -47.6096 H         1 UNK         0.3096 
     66 H66        18.2324  -27.9335  -45.0223 H         1 UNK         0.1121 
     67 H67        15.9817  -26.7960  -45.0374 H         1 UNK         0.0849 
     68 H68        16.3685  -26.0988  -46.5870 H         1 UNK         0.0849 
     69 H69        14.6596  -28.8186  -44.7616 H         1 UNK         0.0865 
     70 H70        14.7798  -30.2718  -45.7149 H         1 UNK         0.0865 
     71 H71        17.3381  -31.1699  -46.0119 H         1 UNK         0.1346 
     72 H72        19.2381  -31.4740  -42.1814 H         1 UNK         0.1412 
     73 H73        15.8376  -28.9130  -42.6847 H         1 UNK         0.1426 
     74 H74        17.3816  -30.7662  -40.2397 H         1 UNK         0.0716 
     75 H75        16.7770  -29.1532  -40.5033 H         1 UNK         0.0716 
     76 H76        18.2476  -27.3132  -41.3595 H         1 UNK         0.0695 
     77 H77        18.5102  -26.9078  -39.6914 H         1 UNK         0.0695 
     78 H78        20.9688  -27.4561  -41.3971 H         1 UNK         0.0983 
     79 H79        19.0956  -25.6539  -42.3298 H         1 UNK         0.3095 
     80 H80        19.6855  -23.6140  -43.6652 H         1 UNK         0.0454 
     81 H81        21.0880  -23.0794  -45.6503 H         1 UNK         0.0851 
     82 H82        22.2569  -24.3156  -45.1843 H         1 UNK         0.0851 
     83 H83        22.0170  -22.8992  -44.1725 H         1 UNK         0.0851 
     84 H84        20.2222  -25.5871  -45.7339 H         1 UNK         0.2976 
     85 H85        20.6995  -24.2460  -40.3128 H         1 UNK         0.3116 
     86 H86        21.8528  -24.5783  -37.6642 H         1 UNK         0.0646 
     87 H87        22.1458  -22.1074  -37.8067 H         1 UNK         0.0847 
     88 H88        20.5122  -22.5663  -38.2543 H         1 UNK         0.0847 
     89 H89        21.6810  -22.1263  -39.5013 H         1 UNK         0.0847 
     90 H90        23.1157  -24.5039  -40.9402 H         1 UNK         0.3040 
     91 H91        25.9391  -24.3018  -39.9396 H         1 UNK         0.1015 
     92 H92        25.3104  -22.3750  -41.3749 H         1 UNK         0.0786 
     93 H93        24.7587  -23.4655  -42.6450 H         1 UNK         0.0786 
     94 H94        26.4617  -23.4084  -42.2066 H         1 UNK         0.0786 
     95 H95        23.7092  -25.9009  -42.2520 H         1 UNK         0.3172 
     96 H96        25.6489  -27.7981  -43.2322 H         1 UNK         0.0595 
     97 H97        23.6536  -27.0314  -44.5552 H         1 UNK         0.0839 
     98 H98        22.5814  -27.7874  -43.3764 H         1 UNK         0.0839 
     99 H99        23.6503  -28.7775  -44.3563 H         1 UNK         0.0839 
    100 H100       25.6109  -30.0764  -42.9370 H         1 UNK         0.2998 
    101 H101       25.1085  -31.0382  -40.2372 H         1 UNK         0.0822 
    102 H102       27.0744  -31.8266  -41.5659 H         1 UNK         0.0787 
    103 H103       26.0187  -33.1741  -41.1759 H         1 UNK         0.0787 
    104 H104       25.9983  -32.4928  -42.7955 H         1 UNK         0.0787 
    105 H105       23.7090  -32.8036  -39.7057 H         1 UNK         0.3055 
    106 H106       21.0883  -32.7124  -40.9021 H         1 UNK         0.1106 
    107 H107       20.5650  -34.4513  -39.1865 H         1 UNK         0.0828 
    108 H108       22.2703  -34.5956  -38.7860 H         1 UNK         0.0828 
    109 H109       21.4074  -33.0902  -38.4669 H         1 UNK         0.0828 
    110 H110       20.2608  -33.9509  -42.4921 H         1 UNK         0.2931 
    111 H111       21.8983  -36.0003  -43.7836 H         1 UNK         0.0412 
    112 H112       19.6594  -36.2506  -41.2546 H         1 UNK         0.3472 
    113 H113       19.1181  -37.8695  -41.6205 H         1 UNK         0.3472 
    114 H114       21.0749  -34.4061  -45.3137 H         1 UNK         0.0970 
    115 H115       20.1426  -35.8346  -45.6061 H         1 UNK         0.0970 
    116 H116       19.6264  -32.1624  -45.7772 H         1 UNK         0.0612 
    117 H117       20.3561  -32.3183  -44.1968 H         1 UNK         0.0612 
@<TRIPOS>BOND
     1    1    2 1    
     2    1   62 1    
     3    1   63 1    
     4    1   64 1    
     5    2    3 2    
     6    2    4 am   BACKBONE|DICT|INTERRES
     7    4    5 1    
     8    4   65 1    
     9    5    6 1    
    10    5   25 1    
    11    5   66 1    
    12    6    7 1    
    13    6   67 1    
    14    6   68 1    
    15    7    8 1    
    16    8    9 1    
    17    8   69 1    
    18    8   70 1    
    19    9   10 ar   
    20    9   14 ar   
    21   10   11 ar   
    22   10   71 1    
    23   11   12 ar   
    24   11   61 1    
    25   12   13 ar   
    26   12   72 1    
    27   13   14 ar   
    28   13   15 1    
    29   14   73 1    
    30   15   16 1    
    31   15   74 1    
    32   15   75 1    
    33   16   17 1    
    34   17   18 1    
    35   17   76 1    
    36   17   77 1    
    37   18   19 1    
    38   18   27 1    
    39   18   78 1    
    40   19   20 am   BACKBONE|DICT|INTERRES
    41   19   79 1    
    42   20   21 2    
    43   20   22 1    
    44   22   23 1    
    45   22   24 1    
    46   22   80 1    
    47   23   81 1    
    48   23   82 1    
    49   23   83 1    
    50   24   25 am   BACKBONE|DICT|INTERRES
    51   24   84 1    
    52   25   26 2    
    53   27   28 2    
    54   27   29 am   BACKBONE|DICT|INTERRES
    55   29   30 1    
    56   29   85 1    
    57   30   31 1    
    58   30   32 1    
    59   30   86 1    
    60   31   87 1    
    61   31   88 1    
    62   31   89 1    
    63   32   33 2    
    64   32   34 am   BACKBONE|DICT|INTERRES
    65   34   35 1    
    66   34   90 1    
    67   35   36 1    
    68   35   37 1    
    69   35   91 1    
    70   36   92 1    
    71   36   93 1    
    72   36   94 1    
    73   37   38 2    
    74   37   39 am   BACKBONE|DICT|INTERRES
    75   39   40 1    
    76   39   95 1    
    77   40   41 1    
    78   40   42 1    
    79   40   96 1    
    80   41   97 1    
    81   41   98 1    
    82   41   99 1    
    83   42   43 2    
    84   42   44 am   BACKBONE|DICT|INTERRES
    85   44   45 1    
    86   44  100 1    
    87   45   46 1    
    88   45   47 1    
    89   45  101 1    
    90   46  102 1    
    91   46  103 1    
    92   46  104 1    
    93   47   48 2    
    94   47   49 am   BACKBONE|DICT|INTERRES
    95   49   50 1    
    96   49  105 1    
    97   50   51 1    
    98   50   52 1    
    99   50  106 1    
   100   51  107 1    
   101   51  108 1    
   102   51  109 1    
   103   52   53 2    
   104   52   54 am   BACKBONE|DICT|INTERRES
   105   54   55 1    
   106   54  110 1    
   107   55   56 1    
   108   55   59 1    
   109   55  111 1    
   110   56   57 am   BACKBONE|DICT|INTERRES
   111   56   58 2    
   112   57  112 1    
   113   57  113 1    
   114   59   60 1    
   115   59  114 1    
   116   59  115 1    
   117   60   61 1    
   118   61  116 1    
   119   61  117 1    
@<TRIPOS>SUBSTRUCTURE
     1 UNK         1 GROUP             0       ****    0 ROOT    
