@<TRIPOS>MOLECULE
3R8
117   119    1
SMALL
USER_CHARGES


@<TRIPOS>ATOM
      1 CA         18.8522  -24.8559  -39.8829 C.3       0 UNK        -0.2013 
      2 C          20.1032  -25.4869  -40.4856 C.2       0 UNK         0.4866 
      3 O          21.0952  -25.6487  -39.7780 O.2       0 UNK        -0.5176 
      4 N          20.1110  -25.8617  -41.7689 N.am      1 UNK        -0.4884 
      5 CA         19.0427  -25.7166  -42.7638 C.3       1 UNK         0.0853 
      6 C6         18.4494  -27.0960  -43.1576 C.3       10 UNK        -0.0849 
      7 S7         17.6204  -27.9404  -41.7700 S.3       10 UNK        -0.2776 
      8 C8         16.7187  -29.2714  -42.6314 C.3       10 UNK         0.0316 
      9 C9         17.6271  -30.0948  -43.5348 C.ar      10 UNK        -0.0863 
     10 C10        18.6340  -30.8916  -42.9828 C.ar      10 UNK        -0.1009 
     11 C11        19.4931  -31.6243  -43.8063 C.ar      10 UNK        -0.0712 
     12 C12        19.3322  -31.5655  -45.1936 C.ar      10 UNK        -0.0894 
     13 C13        18.3281  -30.7723  -45.7587 C.ar      10 UNK        -0.0745 
     14 C14        17.4742  -30.0449  -44.9241 C.ar      10 UNK        -0.0972 
     15 C15        18.1798  -30.6864  -47.2725 C.3       10 UNK         0.0209 
     16 S16        18.6174  -29.0394  -47.9222 S.3       10 UNK        -0.2568 
     17 C17        20.3553  -28.8827  -47.3880 C.3       10 UNK        -0.0983 
     18 CA         20.9179  -27.4497  -47.5597 C.3       3 UNK         0.0876 
     19 N          20.0707  -26.4383  -46.9179 N.am      3 UNK        -0.4424 
     20 C          20.1638  -25.1151  -47.1129 C.2       2 UNK         0.4918 
     21 O          20.9706  -24.5888  -47.8796 O.2       2 UNK        -0.4875 
     22 CA         19.1876  -24.2227  -46.3201 C.3       2 UNK         0.0481 
     23 CB         17.9339  -23.9278  -47.1588 C.3       2 UNK        -0.1831 
     24 N          18.7860  -24.7948  -45.0290 N.am      2 UNK        -0.4498 
     25 C          19.6212  -24.9918  -43.9979 C.2       1 UNK         0.5027 
     26 O          20.8029  -24.6377  -44.0175 O.2       1 UNK        -0.4969 
     27 C          22.3682  -27.3913  -47.0383 C.2       3 UNK         0.5005 
     28 O          23.3081  -27.4605  -47.8320 O.2       3 UNK        -0.5279 
     29 N          22.5137  -27.2644  -45.7140 N.am      4 UNK        -0.4463 
     30 CA         23.7669  -27.1860  -44.9732 C.3       4 UNK         0.0283 
     31 CB         24.4722  -28.5558  -44.9444 C.3       4 UNK        -0.1875 
     32 C          23.4281  -26.7348  -43.5509 C.2       4 UNK         0.4949 
     33 O          22.3690  -27.1031  -43.0343 O.2       4 UNK        -0.5039 
     34 N          24.3385  -25.9835  -42.9215 N.am      5 UNK        -0.4663 
     35 CA         24.1985  -25.4360  -41.5661 C.3       5 UNK         0.0242 
     36 CB         25.1321  -24.2188  -41.4254 C.3       5 UNK        -0.1982 
     37 C          24.4285  -26.4931  -40.4635 C.2       5 UNK         0.5017 
     38 O          25.2362  -26.2788  -39.5573 O.2       5 UNK        -0.5012 
     39 N          23.7273  -27.6240  -40.5736 N.am      6 UNK        -0.4439 
     40 CA         23.7609  -28.7572  -39.6606 C.3       6 UNK         0.0297 
     41 CB         24.9941  -29.6383  -39.9464 C.3       6 UNK        -0.2006 
     42 C          22.4425  -29.5160  -39.8295 C.2       6 UNK         0.4892 
     43 O          22.3990  -30.5098  -40.5545 O.2       6 UNK        -0.5089 
     44 N          21.3844  -29.0209  -39.1728 N.am      7 UNK        -0.4243 
     45 CA         20.0101  -29.5389  -39.2464 C.3       7 UNK         0.0196 
     46 CB         19.0944  -28.6636  -38.3755 C.3       7 UNK        -0.2007 
     47 C          19.8379  -31.0222  -38.8630 C.2       7 UNK         0.5020 
     48 O          18.8719  -31.6478  -39.2981 O.2       7 UNK        -0.5147 
     49 N          20.7706  -31.5615  -38.0665 N.am      8 UNK        -0.4734 
     50 CA         20.8410  -32.9796  -37.7020 C.3       8 UNK         0.0238 
     51 CB         21.7201  -33.1245  -36.4481 C.3       8 UNK        -0.1912 
     52 C          21.3632  -33.8880  -38.8343 C.2       8 UNK         0.5038 
     53 O          21.2428  -35.1078  -38.7133 O.2       8 UNK        -0.5046 
     54 N          21.9452  -33.2963  -39.8882 N.am      9 UNK        -0.4200 
     55 CA         22.5432  -33.9686  -41.0548 C.3       9 UNK         0.0839 
     56 C          23.8476  -34.7650  -40.7474 C.2       9 UNK         0.5513 
     57 N          24.5112  -34.5380  -39.6198 N.am      9 UNK        -0.7519 
     58 O          24.2863  -35.5803  -41.5550 O.2       9 UNK        -0.4960 
     59 C59        21.5220  -34.7952  -41.8951 C.3       10 UNK        -0.0876 
     60 S60        19.9792  -33.9206  -42.3397 S.3       10 UNK        -0.2414 
     61 C61        20.6157  -32.4473  -43.1950 C.3       10 UNK         0.0169 
     62 H62        17.9802  -25.4913  -40.0334 H         1 UNK         0.0903 
     63 H63        18.9756  -24.7159  -38.8092 H         1 UNK         0.0903 
     64 H64        18.6613  -23.8794  -40.3269 H         1 UNK         0.0903 
     65 H65        20.9711  -26.2373  -42.1634 H         1 UNK         0.3096 
     66 H66        18.2400  -25.0801  -42.3900 H         1 UNK         0.1121 
     67 H67        19.2361  -27.7519  -43.5372 H         1 UNK         0.0849 
     68 H68        17.7148  -26.9990  -43.9584 H         1 UNK         0.0849 
     69 H69        16.2603  -29.9264  -41.8892 H         1 UNK         0.0865 
     70 H70        15.8978  -28.8331  -43.2010 H         1 UNK         0.0865 
     71 H71        18.7587  -30.9329  -41.9098 H         1 UNK         0.1346 
     72 H72        20.0001  -32.1244  -45.8347 H         1 UNK         0.1412 
     73 H73        16.7036  -29.4252  -45.3624 H         1 UNK         0.1426 
     74 H74        17.1476  -30.9108  -47.5447 H         1 UNK         0.0716 
     75 H75        18.7970  -31.4379  -47.7674 H         1 UNK         0.0716 
     76 H76        20.9514  -29.5983  -47.9578 H         1 UNK         0.0695 
     77 H77        20.4279  -29.1858  -46.3424 H         1 UNK         0.0695 
     78 H78        20.9466  -27.2243  -48.6282 H         1 UNK         0.0983 
     79 H79        19.3451  -26.7875  -46.3114 H         1 UNK         0.3095 
     80 H80        19.6939  -23.2751  -46.1240 H         1 UNK         0.0454 
     81 H81        18.2022  -23.4745  -48.1142 H         1 UNK         0.0851 
     82 H82        17.2685  -23.2309  -46.6490 H         1 UNK         0.0851 
     83 H83        17.3691  -24.8351  -47.3775 H         1 UNK         0.0851 
     84 H84        17.8189  -25.0738  -44.9424 H         1 UNK         0.2976 
     85 H85        21.6934  -27.1790  -45.1268 H         1 UNK         0.3116 
     86 H86        24.4118  -26.4420  -45.4451 H         1 UNK         0.0646 
     87 H87        25.3888  -28.5119  -44.3549 H         1 UNK         0.0847 
     88 H88        23.8370  -29.3247  -44.5021 H         1 UNK         0.0847 
     89 H89        24.7504  -28.8867  -45.9449 H         1 UNK         0.0847 
     90 H90        25.2008  -25.7669  -43.4014 H         1 UNK         0.3040 
     91 H91        23.1742  -25.0761  -41.4461 H         1 UNK         0.1015 
     92 H92        25.0128  -23.7449  -40.4500 H         1 UNK         0.0786 
     93 H93        24.9124  -23.4611  -42.1778 H         1 UNK         0.0786 
     94 H94        26.1811  -24.5002  -41.5263 H         1 UNK         0.0786 
     95 H95        23.0748  -27.6951  -41.3516 H         1 UNK         0.3172 
     96 H96        23.8174  -28.3958  -38.6316 H         1 UNK         0.0595 
     97 H97        25.0151  -29.9798  -40.9821 H         1 UNK         0.0839 
     98 H98        24.9968  -30.5239  -39.3099 H         1 UNK         0.0839 
     99 H99        25.9215  -29.0987  -39.7545 H         1 UNK         0.0839 
    100 H100       21.5115  -28.1700  -38.6419 H         1 UNK         0.2998 
    101 H101       19.6943  -29.4404  -40.2859 H         1 UNK         0.0822 
    102 H102       18.0572  -28.9948  -38.4455 H         1 UNK         0.0787 
    103 H103       19.3805  -28.7012  -37.3237 H         1 UNK         0.0787 
    104 H104       19.1171  -27.6225  -38.6937 H         1 UNK         0.0787 
    105 H105       21.5199  -30.9673  -37.7429 H         1 UNK         0.3055 
    106 H106       19.8336  -33.3242  -37.4568 H         1 UNK         0.1106 
    107 H107       21.3195  -32.5487  -35.6136 H         1 UNK         0.0828 
    108 H108       21.7710  -34.1651  -36.1240 H         1 UNK         0.0828 
    109 H109       22.7423  -32.7899  -36.6286 H         1 UNK         0.0828 
    110 H110       21.9978  -32.2822  -39.9150 H         1 UNK         0.2931 
    111 H111       22.8916  -33.1542  -41.6895 H         1 UNK         0.0412 
    112 H112       25.3594  -35.0500  -39.4338 H         1 UNK         0.3472 
    113 H113       24.1710  -33.8631  -38.9545 H         1 UNK         0.3472 
    114 H114       21.9856  -35.1317  -42.8242 H         1 UNK         0.0970 
    115 H115       21.2449  -35.7039  -41.3584 H         1 UNK         0.0970 
    116 H116       21.3322  -32.7536  -43.9587 H         1 UNK         0.0612 
    117 H117       21.1590  -31.8213  -42.4877 H         1 UNK         0.0612 
@<TRIPOS>BOND
     1    1    2 1    
     2    1   62 1    
     3    1   63 1    
     4    1   64 1    
     5    2    3 2    
     6    2    4 am   BACKBONE|DICT|INTERRES
     7    4    5 1    
     8    4   65 1    
     9    5    6 1    
    10    5   25 1    
    11    5   66 1    
    12    6    7 1    
    13    6   67 1    
    14    6   68 1    
    15    7    8 1    
    16    8    9 1    
    17    8   69 1    
    18    8   70 1    
    19    9   10 ar   
    20    9   14 ar   
    21   10   11 ar   
    22   10   71 1    
    23   11   12 ar   
    24   11   61 1    
    25   12   13 ar   
    26   12   72 1    
    27   13   14 ar   
    28   13   15 1    
    29   14   73 1    
    30   15   16 1    
    31   15   74 1    
    32   15   75 1    
    33   16   17 1    
    34   17   18 1    
    35   17   76 1    
    36   17   77 1    
    37   18   19 1    
    38   18   27 1    
    39   18   78 1    
    40   19   20 am   BACKBONE|DICT|INTERRES
    41   19   79 1    
    42   20   21 2    
    43   20   22 1    
    44   22   23 1    
    45   22   24 1    
    46   22   80 1    
    47   23   81 1    
    48   23   82 1    
    49   23   83 1    
    50   24   25 am   BACKBONE|DICT|INTERRES
    51   24   84 1    
    52   25   26 2    
    53   27   28 2    
    54   27   29 am   BACKBONE|DICT|INTERRES
    55   29   30 1    
    56   29   85 1    
    57   30   31 1    
    58   30   32 1    
    59   30   86 1    
    60   31   87 1    
    61   31   88 1    
    62   31   89 1    
    63   32   33 2    
    64   32   34 am   BACKBONE|DICT|INTERRES
    65   34   35 1    
    66   34   90 1    
    67   35   36 1    
    68   35   37 1    
    69   35   91 1    
    70   36   92 1    
    71   36   93 1    
    72   36   94 1    
    73   37   38 2    
    74   37   39 am   BACKBONE|DICT|INTERRES
    75   39   40 1    
    76   39   95 1    
    77   40   41 1    
    78   40   42 1    
    79   40   96 1    
    80   41   97 1    
    81   41   98 1    
    82   41   99 1    
    83   42   43 2    
    84   42   44 am   BACKBONE|DICT|INTERRES
    85   44   45 1    
    86   44  100 1    
    87   45   46 1    
    88   45   47 1    
    89   45  101 1    
    90   46  102 1    
    91   46  103 1    
    92   46  104 1    
    93   47   48 2    
    94   47   49 am   BACKBONE|DICT|INTERRES
    95   49   50 1    
    96   49  105 1    
    97   50   51 1    
    98   50   52 1    
    99   50  106 1    
   100   51  107 1    
   101   51  108 1    
   102   51  109 1    
   103   52   53 2    
   104   52   54 am   BACKBONE|DICT|INTERRES
   105   54   55 1    
   106   54  110 1    
   107   55   56 1    
   108   55   59 1    
   109   55  111 1    
   110   56   57 am   BACKBONE|DICT|INTERRES
   111   56   58 2    
   112   57  112 1    
   113   57  113 1    
   114   59   60 1    
   115   59  114 1    
   116   59  115 1    
   117   60   61 1    
   118   61  116 1    
   119   61  117 1    
@<TRIPOS>SUBSTRUCTURE
     1 UNK         1 GROUP             0       ****    0 ROOT    
