@<TRIPOS>MOLECULE
3R8
117   119    1
SMALL
USER_CHARGES


@<TRIPOS>ATOM
      1 CA         14.9928  -24.1594  -41.8128 C.3       0 UNK        -0.2013 
      2 C          15.9911  -24.2286  -42.9589 C.2       0 UNK         0.4866 
      3 O          16.4667  -23.1903  -43.4202 O.2       0 UNK        -0.5176 
      4 N          16.3045  -25.4424  -43.4280 N.am      1 UNK        -0.4884 
      5 CA         17.2856  -25.7009  -44.4864 C.3       1 UNK         0.0853 
      6 C6         17.1782  -27.1473  -45.0197 C.3       10 UNK        -0.0849 
      7 S7         15.6686  -27.4235  -46.0097 S.3       10 UNK        -0.2776 
      8 C8         15.1957  -29.1378  -45.5744 C.3       10 UNK         0.0316 
      9 C9         16.3772  -30.0980  -45.4512 C.ar      10 UNK        -0.0863 
     10 C10        16.4678  -30.9414  -44.3392 C.ar      10 UNK        -0.1009 
     11 C11        17.5761  -31.7746  -44.1644 C.ar      10 UNK        -0.0712 
     12 C12        18.5997  -31.7648  -45.1159 C.ar      10 UNK        -0.0894 
     13 C13        18.5246  -30.9231  -46.2305 C.ar      10 UNK        -0.0745 
     14 C14        17.3968  -30.1183  -46.4101 C.ar      10 UNK        -0.0972 
     15 C15        19.6911  -30.8338  -47.2056 C.3       10 UNK         0.0209 
     16 S16        20.6880  -29.3267  -46.9329 S.3       10 UNK        -0.2568 
     17 C17        21.1665  -29.5359  -45.1856 C.3       10 UNK        -0.0983 
     18 CA         22.0137  -28.3779  -44.6042 C.3       3 UNK         0.0876 
     19 N          21.3935  -27.0649  -44.8247 N.am      3 UNK        -0.4424 
     20 C          21.8518  -25.8864  -44.3749 C.2       2 UNK         0.4918 
     21 O          22.8937  -25.7569  -43.7327 O.2       2 UNK        -0.4875 
     22 CA         20.9919  -24.6406  -44.6569 C.3       2 UNK         0.0481 
     23 CB         21.5627  -23.8602  -45.8512 C.3       2 UNK        -0.1831 
     24 N          19.5732  -24.9297  -44.8989 N.am      2 UNK        -0.4498 
     25 C          18.7229  -25.4380  -43.9940 C.2       1 UNK         0.5027 
     26 O          19.0489  -25.7549  -42.8469 O.2       1 UNK        -0.4969 
     27 C          22.2676  -28.6595  -43.1102 C.2       3 UNK         0.5005 
     28 O          23.3513  -29.1220  -42.7535 O.2       3 UNK        -0.5279 
     29 N          21.2701  -28.3329  -42.2732 N.am      4 UNK        -0.4463 
     30 CA         21.2661  -28.5458  -40.8249 C.3       4 UNK         0.0283 
     31 CB         19.8604  -28.2515  -40.2784 C.3       4 UNK        -0.1875 
     32 C          22.3228  -27.7268  -40.0627 C.2       4 UNK         0.4949 
     33 O          22.6980  -28.1120  -38.9554 O.2       4 UNK        -0.5039 
     34 N          22.7842  -26.6162  -40.6549 N.am      5 UNK        -0.4663 
     35 CA         23.8708  -25.7959  -40.1176 C.3       5 UNK         0.0242 
     36 CB         23.7273  -24.3576  -40.6418 C.3       5 UNK        -0.1982 
     37 C          25.2583  -26.3633  -40.4652 C.2       5 UNK         0.5017 
     38 O          26.2229  -26.0370  -39.7725 O.2       5 UNK        -0.5012 
     39 N          25.3428  -27.1811  -41.5241 N.am      6 UNK        -0.4439 
     40 CA         26.5754  -27.8132  -41.9886 C.3       6 UNK         0.0297 
     41 CB         26.5567  -27.9196  -43.5235 C.3       6 UNK        -0.2006 
     42 C          26.7698  -29.1901  -41.3388 C.2       6 UNK         0.4892 
     43 O          27.8233  -29.4320  -40.7484 O.2       6 UNK        -0.5089 
     44 N          25.7597  -30.0603  -41.4589 N.am      7 UNK        -0.4243 
     45 CA         25.7487  -31.4364  -40.9642 C.3       7 UNK         0.0196 
     46 CB         26.7600  -32.3131  -41.7442 C.3       7 UNK        -0.2007 
     47 C          24.2992  -31.9410  -41.0315 C.2       7 UNK         0.5020 
     48 O          23.4174  -31.2862  -40.4768 O.2       7 UNK        -0.5147 
     49 N          24.0705  -33.0713  -41.7176 N.am      8 UNK        -0.4734 
     50 CA         22.7693  -33.6736  -42.0341 C.3       8 UNK         0.0238 
     51 CB         22.0894  -32.8650  -43.1658 C.3       8 UNK        -0.1912 
     52 C          21.8864  -33.8752  -40.7842 C.2       8 UNK         0.5038 
     53 O          22.3010  -34.5759  -39.8591 O.2       8 UNK        -0.5046 
     54 N          20.7005  -33.2594  -40.7856 N.am      9 UNK        -0.4200 
     55 CA         19.7345  -33.2153  -39.6818 C.3       9 UNK         0.0839 
     56 C          20.0754  -32.1978  -38.5513 C.2       9 UNK         0.5513 
     57 N          21.1751  -31.4573  -38.6122 N.am      9 UNK        -0.7519 
     58 O          19.3305  -32.0928  -37.5800 O.2       9 UNK        -0.4960 
     59 C59        18.2845  -33.0530  -40.2195 C.3       10 UNK        -0.0876 
     60 S60        18.0936  -31.7090  -41.4477 S.3       10 UNK        -0.2414 
     61 C61        17.6723  -32.6679  -42.9373 C.3       10 UNK         0.0169 
     62 H62        14.1253  -23.5685  -42.1057 H         1 UNK         0.0903 
     63 H63        14.6443  -25.1481  -41.5147 H         1 UNK         0.0903 
     64 H64        15.4509  -23.6857  -40.9450 H         1 UNK         0.0903 
     65 H65        15.8932  -26.2615  -43.0045 H         1 UNK         0.3096 
     66 H66        17.0796  -25.0095  -45.3071 H         1 UNK         0.1121 
     67 H67        17.2213  -27.8558  -44.1899 H         1 UNK         0.0849 
     68 H68        18.0234  -27.3896  -45.6675 H         1 UNK         0.0849 
     69 H69        14.6348  -29.1042  -44.6390 H         1 UNK         0.0865 
     70 H70        14.5073  -29.5181  -46.3301 H         1 UNK         0.0865 
     71 H71        15.6879  -30.9349  -43.5897 H         1 UNK         0.1346 
     72 H72        19.4713  -32.3880  -44.9743 H         1 UNK         0.1412 
     73 H73        17.3435  -29.4600  -47.2666 H         1 UNK         0.1426 
     74 H74        20.3351  -31.7104  -47.1181 H         1 UNK         0.0716 
     75 H75        19.3137  -30.8312  -48.2291 H         1 UNK         0.0716 
     76 H76        20.2515  -29.6431  -44.6010 H         1 UNK         0.0695 
     77 H77        21.7043  -30.4818  -45.0961 H         1 UNK         0.0695 
     78 H78        22.9826  -28.3667  -45.1077 H         1 UNK         0.0983 
     79 H79        20.5512  -27.0688  -45.3794 H         1 UNK         0.3095 
     80 H80        21.0521  -24.0009  -43.7739 H         1 UNK         0.0454 
     81 H81        21.5117  -24.4380  -46.7748 H         1 UNK         0.0851 
     82 H82        21.0263  -22.9243  -46.0085 H         1 UNK         0.0851 
     83 H83        22.6105  -23.6048  -45.6852 H         1 UNK         0.0851 
     84 H84        19.2254  -24.7082  -45.8214 H         1 UNK         0.2976 
     85 H85        20.4435  -27.8987  -42.6611 H         1 UNK         0.3116 
     86 H86        21.4797  -29.6004  -40.6539 H         1 UNK         0.0646 
     87 H87        19.5794  -27.2081  -40.4271 H         1 UNK         0.0847 
     88 H88        19.1072  -28.8747  -40.7600 H         1 UNK         0.0847 
     89 H89        19.8091  -28.4562  -39.2081 H         1 UNK         0.0847 
     90 H90        22.4387  -26.3708  -41.5741 H         1 UNK         0.3040 
     91 H91        23.7916  -25.7674  -39.0283 H         1 UNK         0.1015 
     92 H92        23.8446  -24.3056  -41.7245 H         1 UNK         0.0786 
     93 H93        24.4854  -23.7074  -40.2031 H         1 UNK         0.0786 
     94 H94        22.7542  -23.9368  -40.3881 H         1 UNK         0.0786 
     95 H95        24.4888  -27.4484  -41.9991 H         1 UNK         0.3172 
     96 H96        27.4296  -27.1894  -41.7161 H         1 UNK         0.0595 
     97 H97        27.4764  -28.3758  -43.8923 H         1 UNK         0.0839 
     98 H98        26.4754  -26.9357  -43.9858 H         1 UNK         0.0839 
     99 H99        25.7259  -28.5258  -43.8854 H         1 UNK         0.0839 
    100 H100       24.8937  -29.7588  -41.9064 H         1 UNK         0.2998 
    101 H101       26.0315  -31.4257  -39.9098 H         1 UNK         0.0822 
    102 H102       26.7560  -33.3426  -41.3838 H         1 UNK         0.0787 
    103 H103       26.5458  -32.3262  -42.8137 H         1 UNK         0.0787 
    104 H104       27.7806  -31.9515  -41.6215 H         1 UNK         0.0787 
    105 H105       24.8743  -33.5528  -42.0958 H         1 UNK         0.3055 
    106 H106       22.9724  -34.6744  -42.4188 H         1 UNK         0.1106 
    107 H107       22.7342  -32.8047  -44.0426 H         1 UNK         0.0828 
    108 H108       21.1623  -33.3389  -43.4900 H         1 UNK         0.0828 
    109 H109       21.8607  -31.8427  -42.8606 H         1 UNK         0.0828 
    110 H110       20.4663  -32.6726  -41.5720 H         1 UNK         0.2931 
    111 H111       19.7713  -34.1891  -39.1897 H         1 UNK         0.0412 
    112 H112       21.3708  -30.8107  -37.8653 H         1 UNK         0.3472 
    113 H113       21.8317  -31.5348  -39.3835 H         1 UNK         0.3472 
    114 H114       17.9704  -33.9945  -40.6724 H         1 UNK         0.0970 
    115 H115       17.5764  -32.8856  -39.4058 H         1 UNK         0.0970 
    116 H116       18.4216  -33.4462  -43.0907 H         1 UNK         0.0612 
    117 H117       16.7207  -33.1781  -42.7813 H         1 UNK         0.0612 
@<TRIPOS>BOND
     1    1    2 1    
     2    1   62 1    
     3    1   63 1    
     4    1   64 1    
     5    2    3 2    
     6    2    4 am   BACKBONE|DICT|INTERRES
     7    4    5 1    
     8    4   65 1    
     9    5    6 1    
    10    5   25 1    
    11    5   66 1    
    12    6    7 1    
    13    6   67 1    
    14    6   68 1    
    15    7    8 1    
    16    8    9 1    
    17    8   69 1    
    18    8   70 1    
    19    9   10 ar   
    20    9   14 ar   
    21   10   11 ar   
    22   10   71 1    
    23   11   12 ar   
    24   11   61 1    
    25   12   13 ar   
    26   12   72 1    
    27   13   14 ar   
    28   13   15 1    
    29   14   73 1    
    30   15   16 1    
    31   15   74 1    
    32   15   75 1    
    33   16   17 1    
    34   17   18 1    
    35   17   76 1    
    36   17   77 1    
    37   18   19 1    
    38   18   27 1    
    39   18   78 1    
    40   19   20 am   BACKBONE|DICT|INTERRES
    41   19   79 1    
    42   20   21 2    
    43   20   22 1    
    44   22   23 1    
    45   22   24 1    
    46   22   80 1    
    47   23   81 1    
    48   23   82 1    
    49   23   83 1    
    50   24   25 am   BACKBONE|DICT|INTERRES
    51   24   84 1    
    52   25   26 2    
    53   27   28 2    
    54   27   29 am   BACKBONE|DICT|INTERRES
    55   29   30 1    
    56   29   85 1    
    57   30   31 1    
    58   30   32 1    
    59   30   86 1    
    60   31   87 1    
    61   31   88 1    
    62   31   89 1    
    63   32   33 2    
    64   32   34 am   BACKBONE|DICT|INTERRES
    65   34   35 1    
    66   34   90 1    
    67   35   36 1    
    68   35   37 1    
    69   35   91 1    
    70   36   92 1    
    71   36   93 1    
    72   36   94 1    
    73   37   38 2    
    74   37   39 am   BACKBONE|DICT|INTERRES
    75   39   40 1    
    76   39   95 1    
    77   40   41 1    
    78   40   42 1    
    79   40   96 1    
    80   41   97 1    
    81   41   98 1    
    82   41   99 1    
    83   42   43 2    
    84   42   44 am   BACKBONE|DICT|INTERRES
    85   44   45 1    
    86   44  100 1    
    87   45   46 1    
    88   45   47 1    
    89   45  101 1    
    90   46  102 1    
    91   46  103 1    
    92   46  104 1    
    93   47   48 2    
    94   47   49 am   BACKBONE|DICT|INTERRES
    95   49   50 1    
    96   49  105 1    
    97   50   51 1    
    98   50   52 1    
    99   50  106 1    
   100   51  107 1    
   101   51  108 1    
   102   51  109 1    
   103   52   53 2    
   104   52   54 am   BACKBONE|DICT|INTERRES
   105   54   55 1    
   106   54  110 1    
   107   55   56 1    
   108   55   59 1    
   109   55  111 1    
   110   56   57 am   BACKBONE|DICT|INTERRES
   111   56   58 2    
   112   57  112 1    
   113   57  113 1    
   114   59   60 1    
   115   59  114 1    
   116   59  115 1    
   117   60   61 1    
   118   61  116 1    
   119   61  117 1    
@<TRIPOS>SUBSTRUCTURE
     1 UNK         1 GROUP             0       ****    0 ROOT    
