@<TRIPOS>MOLECULE
3R8
117   119    1
SMALL
USER_CHARGES


@<TRIPOS>ATOM
      1 CA         20.4599  -25.8392  -50.2666 C.3       0 UNK        -0.2013 
      2 C          20.8822  -26.1018  -48.8286 C.2       0 UNK         0.4866 
      3 O          21.8950  -25.5638  -48.3794 O.2       0 UNK        -0.5176 
      4 N          20.1200  -26.9317  -48.1067 N.am      1 UNK        -0.4884 
      5 CA         20.3262  -27.2382  -46.6880 C.3       1 UNK         0.0853 
      6 C6         19.6473  -28.5771  -46.2924 C.3       10 UNK        -0.0849 
      7 S7         17.8422  -28.6219  -46.5801 S.3       10 UNK        -0.2776 
      8 C8         17.4005  -30.2429  -45.8777 C.3       10 UNK         0.0316 
      9 C9         17.5288  -30.2711  -44.3604 C.ar      10 UNK        -0.0863 
     10 C10        18.5674  -30.9807  -43.7525 C.ar      10 UNK        -0.1009 
     11 C11        18.6732  -31.0360  -42.3598 C.ar      10 UNK        -0.0712 
     12 C12        17.7292  -30.3722  -41.5692 C.ar      10 UNK        -0.0894 
     13 C13        16.6839  -29.6591  -42.1659 C.ar      10 UNK        -0.0745 
     14 C14        16.5896  -29.6137  -43.5609 C.ar      10 UNK        -0.0972 
     15 C15        15.6298  -28.9641  -41.3160 C.3       10 UNK         0.0209 
     16 S16        15.8236  -27.1540  -41.3434 S.3       10 UNK        -0.2568 
     17 C17        16.9640  -26.8571  -39.9495 C.3       10 UNK        -0.0983 
     18 CA         18.4619  -26.8656  -40.3443 C.3       3 UNK         0.0876 
     19 N          18.7415  -26.0243  -41.5152 N.am      3 UNK        -0.4424 
     20 C          19.8941  -26.0239  -42.1932 C.2       2 UNK         0.4918 
     21 O          20.8977  -26.6552  -41.8531 O.2       2 UNK        -0.4875 
     22 CA         19.9444  -25.1803  -43.4661 C.3       2 UNK         0.0481 
     23 CB         20.9275  -24.0068  -43.3205 C.3       2 UNK        -0.1831 
     24 N          20.3738  -26.0662  -44.5411 N.am      2 UNK        -0.4498 
     25 C          19.8729  -26.0717  -45.7809 C.2       1 UNK         0.5027 
     26 O          19.0673  -25.2334  -46.1973 O.2       1 UNK        -0.4969 
     27 C          19.3333  -26.5095  -39.1215 C.2       3 UNK         0.5005 
     28 O          19.6189  -27.3877  -38.3075 O.2       3 UNK        -0.5279 
     29 N          19.7437  -25.2359  -39.0185 N.am      4 UNK        -0.4463 
     30 CA         20.6452  -24.7317  -37.9795 C.3       4 UNK         0.0283 
     31 CB         20.6046  -23.1951  -37.9683 C.3       4 UNK        -0.1875 
     32 C          22.0912  -25.2299  -38.1487 C.2       4 UNK         0.4949 
     33 O          22.7795  -25.4263  -37.1471 O.2       4 UNK        -0.5039 
     34 N          22.5239  -25.4243  -39.4027 N.am      5 UNK        -0.4663 
     35 CA         23.8275  -25.9974  -39.7412 C.3       5 UNK         0.0242 
     36 CB         24.2587  -25.5197  -41.1385 C.3       5 UNK        -0.1982 
     37 C          23.7842  -27.5302  -39.6772 C.2       5 UNK         0.5017 
     38 O          24.6826  -28.1382  -39.0961 O.2       5 UNK        -0.5012 
     39 N          22.7373  -28.1132  -40.2829 N.am      6 UNK        -0.4439 
     40 CA         22.4133  -29.5433  -40.3561 C.3       6 UNK         0.0297 
     41 CB         22.1027  -30.1083  -38.9543 C.3       6 UNK        -0.2006 
     42 C          23.4450  -30.4067  -41.1117 C.2       6 UNK         0.4892 
     43 O          23.3862  -31.6322  -41.0159 O.2       6 UNK        -0.5089 
     44 N          24.3462  -29.7734  -41.8770 N.am      7 UNK        -0.4243 
     45 CA         25.4609  -30.4101  -42.5899 C.3       7 UNK         0.0196 
     46 CB         26.3568  -29.3152  -43.1918 C.3       7 UNK        -0.2007 
     47 C          25.0401  -31.4181  -43.6751 C.2       7 UNK         0.5020 
     48 O          25.8236  -32.3063  -44.0102 O.2       7 UNK        -0.5147 
     49 N          23.8183  -31.2680  -44.2020 N.am      8 UNK        -0.4734 
     50 CA         23.2139  -32.1818  -45.1735 C.3       8 UNK         0.0238 
     51 CB         22.0911  -31.4398  -45.9167 C.3       8 UNK        -0.1912 
     52 C          22.6865  -33.4887  -44.5481 C.2       8 UNK         0.5038 
     53 O          22.4650  -34.4479  -45.2888 O.2       8 UNK        -0.5046 
     54 N          22.4815  -33.5094  -43.2245 N.am      9 UNK        -0.4200 
     55 CA         22.0288  -34.6827  -42.4649 C.3       9 UNK         0.0839 
     56 C          23.2286  -35.5434  -41.9886 C.2       9 UNK         0.5513 
     57 N          23.0098  -36.8325  -41.7673 N.am      9 UNK        -0.7519 
     58 O          24.3411  -35.0604  -41.7889 O.2       9 UNK        -0.4960 
     59 C59        21.1215  -34.2730  -41.2744 C.3       10 UNK        -0.0876 
     60 S60        19.5163  -33.6105  -41.8350 S.3       10 UNK        -0.2414 
     61 C61        19.8081  -31.8206  -41.7220 C.3       10 UNK         0.0169 
     62 H62        21.2536  -26.1365  -50.9515 H         1 UNK         0.0903 
     63 H63        19.5578  -26.3895  -50.5337 H         1 UNK         0.0903 
     64 H64        20.2642  -24.7770  -50.4115 H         1 UNK         0.0903 
     65 H65        19.2752  -27.3156  -48.5071 H         1 UNK         0.3096 
     66 H66        21.4014  -27.3586  -46.5334 H         1 UNK         0.1121 
     67 H67        20.0965  -29.3912  -46.8630 H         1 UNK         0.0849 
     68 H68        19.8452  -28.8072  -45.2441 H         1 UNK         0.0849 
     69 H69        16.3709  -30.4762  -46.1530 H         1 UNK         0.0865 
     70 H70        18.0181  -31.0168  -46.3367 H         1 UNK         0.0865 
     71 H71        19.2849  -31.5118  -44.3610 H         1 UNK         0.1346 
     72 H72        17.8025  -30.4192  -40.4912 H         1 UNK         0.1412 
     73 H73        15.7805  -29.0664  -44.0258 H         1 UNK         0.1426 
     74 H74        15.6446  -29.3320  -40.2891 H         1 UNK         0.0716 
     75 H75        14.6422  -29.2115  -41.7081 H         1 UNK         0.0716 
     76 H76        16.6938  -25.8900  -39.5205 H         1 UNK         0.0695 
     77 H77        16.7711  -27.5932  -39.1667 H         1 UNK         0.0695 
     78 H78        18.7280  -27.8871  -40.6229 H         1 UNK         0.0983 
     79 H79        17.9570  -25.4994  -41.8750 H         1 UNK         0.3095 
     80 H80        18.9460  -24.7872  -43.6705 H         1 UNK         0.0454 
     81 H81        21.9431  -24.3494  -43.1198 H         1 UNK         0.0851 
     82 H82        20.9544  -23.4024  -44.2271 H         1 UNK         0.0851 
     83 H83        20.6347  -23.3491  -42.5013 H         1 UNK         0.0851 
     84 H84        21.0050  -26.8011  -44.2498 H         1 UNK         0.2976 
     85 H85        19.4369  -24.5780  -39.7204 H         1 UNK         0.3116 
     86 H86        20.2830  -25.0885  -37.0127 H         1 UNK         0.0646 
     87 H87        21.2497  -22.7948  -37.1848 H         1 UNK         0.0847 
     88 H88        19.5975  -22.8250  -37.7751 H         1 UNK         0.0847 
     89 H89        20.9435  -22.7724  -38.9150 H         1 UNK         0.0847 
     90 H90        21.8793  -25.2716  -40.1650 H         1 UNK         0.3040 
     91 H91        24.5716  -25.6506  -39.0200 H         1 UNK         0.1015 
     92 H92        24.3260  -24.4324  -41.1806 H         1 UNK         0.0786 
     93 H93        23.5648  -25.8415  -41.9156 H         1 UNK         0.0786 
     94 H94        25.2426  -25.9137  -41.3972 H         1 UNK         0.0786 
     95 H95        22.0791  -27.5067  -40.7706 H         1 UNK         0.3172 
     96 H96        21.4952  -29.5945  -40.9415 H         1 UNK         0.0595 
     97 H97        21.3372  -29.5188  -38.4502 H         1 UNK         0.0839 
     98 H98        22.9883  -30.1213  -38.3185 H         1 UNK         0.0839 
     99 H99        21.7333  -31.1327  -39.0121 H         1 UNK         0.0839 
    100 H100       24.3103  -28.7654  -41.9031 H         1 UNK         0.2998 
    101 H101       26.0449  -30.9633  -41.8513 H         1 UNK         0.0822 
    102 H102       26.7458  -28.6509  -42.4197 H         1 UNK         0.0787 
    103 H103       27.2161  -29.7509  -43.7037 H         1 UNK         0.0787 
    104 H104       25.8178  -28.7073  -43.9196 H         1 UNK         0.0787 
    105 H105       23.2516  -30.4993  -43.8758 H         1 UNK         0.3055 
    106 H106       23.9743  -32.4661  -45.9049 H         1 UNK         0.1106 
    107 H107       21.5858  -32.0964  -46.6266 H         1 UNK         0.0828 
    108 H108       21.3385  -31.0588  -45.2282 H         1 UNK         0.0828 
    109 H109       22.4844  -30.5958  -46.4836 H         1 UNK         0.0828 
    110 H110       22.7869  -32.7220  -42.6642 H         1 UNK         0.2931 
    111 H111       21.4312  -35.3133  -43.1270 H         1 UNK         0.0412 
    112 H112       22.1015  -37.2424  -41.9232 H         1 UNK         0.3472 
    113 H113       23.7711  -37.4109  -41.4465 H         1 UNK         0.3472 
    114 H114       20.9022  -35.1388  -40.6466 H         1 UNK         0.0970 
    115 H115       21.6221  -33.5545  -40.6235 H         1 UNK         0.0970 
    116 H116       20.7411  -31.5708  -42.2269 H         1 UNK         0.0612 
    117 H117       19.9299  -31.5437  -40.6743 H         1 UNK         0.0612 
@<TRIPOS>BOND
     1    1    2 1    
     2    1   62 1    
     3    1   63 1    
     4    1   64 1    
     5    2    3 2    
     6    2    4 am   BACKBONE|DICT|INTERRES
     7    4    5 1    
     8    4   65 1    
     9    5    6 1    
    10    5   25 1    
    11    5   66 1    
    12    6    7 1    
    13    6   67 1    
    14    6   68 1    
    15    7    8 1    
    16    8    9 1    
    17    8   69 1    
    18    8   70 1    
    19    9   10 ar   
    20    9   14 ar   
    21   10   11 ar   
    22   10   71 1    
    23   11   12 ar   
    24   11   61 1    
    25   12   13 ar   
    26   12   72 1    
    27   13   14 ar   
    28   13   15 1    
    29   14   73 1    
    30   15   16 1    
    31   15   74 1    
    32   15   75 1    
    33   16   17 1    
    34   17   18 1    
    35   17   76 1    
    36   17   77 1    
    37   18   19 1    
    38   18   27 1    
    39   18   78 1    
    40   19   20 am   BACKBONE|DICT|INTERRES
    41   19   79 1    
    42   20   21 2    
    43   20   22 1    
    44   22   23 1    
    45   22   24 1    
    46   22   80 1    
    47   23   81 1    
    48   23   82 1    
    49   23   83 1    
    50   24   25 am   BACKBONE|DICT|INTERRES
    51   24   84 1    
    52   25   26 2    
    53   27   28 2    
    54   27   29 am   BACKBONE|DICT|INTERRES
    55   29   30 1    
    56   29   85 1    
    57   30   31 1    
    58   30   32 1    
    59   30   86 1    
    60   31   87 1    
    61   31   88 1    
    62   31   89 1    
    63   32   33 2    
    64   32   34 am   BACKBONE|DICT|INTERRES
    65   34   35 1    
    66   34   90 1    
    67   35   36 1    
    68   35   37 1    
    69   35   91 1    
    70   36   92 1    
    71   36   93 1    
    72   36   94 1    
    73   37   38 2    
    74   37   39 am   BACKBONE|DICT|INTERRES
    75   39   40 1    
    76   39   95 1    
    77   40   41 1    
    78   40   42 1    
    79   40   96 1    
    80   41   97 1    
    81   41   98 1    
    82   41   99 1    
    83   42   43 2    
    84   42   44 am   BACKBONE|DICT|INTERRES
    85   44   45 1    
    86   44  100 1    
    87   45   46 1    
    88   45   47 1    
    89   45  101 1    
    90   46  102 1    
    91   46  103 1    
    92   46  104 1    
    93   47   48 2    
    94   47   49 am   BACKBONE|DICT|INTERRES
    95   49   50 1    
    96   49  105 1    
    97   50   51 1    
    98   50   52 1    
    99   50  106 1    
   100   51  107 1    
   101   51  108 1    
   102   51  109 1    
   103   52   53 2    
   104   52   54 am   BACKBONE|DICT|INTERRES
   105   54   55 1    
   106   54  110 1    
   107   55   56 1    
   108   55   59 1    
   109   55  111 1    
   110   56   57 am   BACKBONE|DICT|INTERRES
   111   56   58 2    
   112   57  112 1    
   113   57  113 1    
   114   59   60 1    
   115   59  114 1    
   116   59  115 1    
   117   60   61 1    
   118   61  116 1    
   119   61  117 1    
@<TRIPOS>SUBSTRUCTURE
     1 UNK         1 GROUP             0       ****    0 ROOT    
