@<TRIPOS>MOLECULE
3R8
117   119    1
SMALL
USER_CHARGES


@<TRIPOS>ATOM
      1 CA         11.9990  -24.4450  -42.9726 C.3       0 UNK        -0.2013 
      2 C          13.0596  -25.1684  -43.7891 C.2       0 UNK         0.4866 
      3 O          13.1565  -24.9524  -44.9974 O.2       0 UNK        -0.5176 
      4 N          13.8559  -26.0239  -43.1413 N.am      1 UNK        -0.4884 
      5 CA         14.9347  -26.7954  -43.7528 C.3       1 UNK         0.0853 
      6 C6         14.3938  -28.0631  -44.4867 C.3       10 UNK        -0.0849 
      7 S7         15.5336  -29.4853  -44.6413 S.3       10 UNK        -0.2776 
      8 C8         16.3515  -29.1676  -46.2396 C.3       10 UNK         0.0316 
      9 C9         17.8359  -29.5151  -46.1916 C.ar      10 UNK        -0.0863 
     10 C10        18.2620  -30.7577  -45.7087 C.ar      10 UNK        -0.1009 
     11 C11        19.6237  -31.0593  -45.6119 C.ar      10 UNK        -0.0712 
     12 C12        20.5636  -30.1275  -46.0599 C.ar      10 UNK        -0.0894 
     13 C13        20.1533  -28.8963  -46.5781 C.ar      10 UNK        -0.0745 
     14 C14        18.7895  -28.5916  -46.6326 C.ar      10 UNK        -0.0972 
     15 C15        21.1815  -27.9044  -47.1026 C.3       10 UNK         0.0209 
     16 S16        21.4263  -26.4991  -45.9744 S.3       10 UNK        -0.2568 
     17 C17        22.3705  -27.2597  -44.6138 C.3       10 UNK        -0.0983 
     18 CA         22.0630  -26.6189  -43.2332 C.3       3 UNK         0.0876 
     19 N          20.7875  -27.0481  -42.6603 N.am      3 UNK        -0.4424 
     20 C          19.6236  -26.4134  -42.8329 C.2       2 UNK         0.4918 
     21 O          19.4809  -25.4010  -43.5234 O.2       2 UNK        -0.4875 
     22 CA         18.4091  -26.9680  -42.0799 C.3       2 UNK         0.0481 
     23 CB         18.3078  -26.3086  -40.6889 C.3       2 UNK        -0.1831 
     24 N          17.2252  -26.7097  -42.8963 N.am      2 UNK        -0.4498 
     25 C          15.9626  -27.0701  -42.6400 C.2       1 UNK         0.5027 
     26 O          15.5854  -27.6010  -41.5922 O.2       1 UNK        -0.4969 
     27 C          23.1590  -26.9814  -42.2243 C.2       3 UNK         0.5005 
     28 O          23.3535  -28.1663  -41.9453 O.2       3 UNK        -0.5279 
     29 N          23.9045  -25.9771  -41.7416 N.am      4 UNK        -0.4463 
     30 CA         25.0367  -26.1466  -40.8199 C.3       4 UNK         0.0283 
     31 CB         25.5295  -24.7666  -40.3563 C.3       4 UNK        -0.1875 
     32 C          26.2034  -26.9644  -41.4070 C.2       4 UNK         0.4949 
     33 O          26.9436  -27.5877  -40.6476 O.2       4 UNK        -0.5039 
     34 N          26.3287  -26.9704  -42.7424 N.am      5 UNK        -0.4663 
     35 CA         27.2739  -27.8048  -43.4885 C.3       5 UNK         0.0242 
     36 CB         27.3568  -27.3016  -44.9387 C.3       5 UNK        -0.1982 
     37 C          26.9116  -29.3015  -43.4582 C.2       5 UNK         0.5017 
     38 O          27.8154  -30.1356  -43.5191 O.2       5 UNK        -0.5012 
     39 N          25.6105  -29.6137  -43.3614 N.am      6 UNK        -0.4439 
     40 CA         25.0997  -30.9741  -43.1832 C.3       6 UNK         0.0297 
     41 CB         23.6923  -31.0885  -43.7906 C.3       6 UNK        -0.2006 
     42 C          25.0841  -31.3673  -41.6991 C.2       6 UNK         0.4892 
     43 O          25.3729  -32.5209  -41.3802 O.2       6 UNK        -0.5089 
     44 N          24.7399  -30.4062  -40.8276 N.am      7 UNK        -0.4243 
     45 CA         24.6988  -30.4473  -39.3585 C.3       7 UNK         0.0196 
     46 CB         26.0783  -30.7852  -38.7614 C.3       7 UNK        -0.2007 
     47 C          23.5991  -31.3486  -38.7715 C.2       7 UNK         0.5020 
     48 O          22.9539  -30.9508  -37.8018 O.2       7 UNK        -0.5147 
     49 N          23.3828  -32.5277  -39.3679 N.am      8 UNK        -0.4734 
     50 CA         22.2887  -33.4479  -39.0440 C.3       8 UNK         0.0238 
     51 CB         22.5362  -34.7984  -39.7351 C.3       8 UNK        -0.1912 
     52 C          20.9129  -32.8818  -39.4356 C.2       8 UNK         0.5038 
     53 O          19.9328  -33.1338  -38.7336 O.2       8 UNK        -0.5046 
     54 N          20.8784  -32.1142  -40.5318 N.am      9 UNK        -0.4200 
     55 CA         19.7286  -31.3144  -40.9576 C.3       9 UNK         0.0839 
     56 C          19.7743  -29.9479  -40.2329 C.2       9 UNK         0.5513 
     57 N          18.9019  -29.7221  -39.2616 N.am      9 UNK        -0.7519 
     58 O          20.5767  -29.0816  -40.5730 O.2       9 UNK        -0.4960 
     59 C59        19.6904  -31.1378  -42.4963 C.3       10 UNK        -0.0876 
     60 S60        19.3864  -32.7143  -43.3637 S.3       10 UNK        -0.2414 
     61 C61        20.0873  -32.3844  -45.0165 C.3       10 UNK         0.0169 
     62 H62        12.0274  -24.7314  -41.9214 H         1 UNK         0.0903 
     63 H63        12.1480  -23.3673  -43.0346 H         1 UNK         0.0903 
     64 H64        11.0066  -24.6748  -43.3596 H         1 UNK         0.0903 
     65 H65        13.7619  -26.1612  -42.1421 H         1 UNK         0.3096 
     66 H66        15.4258  -26.1659  -44.4989 H         1 UNK         0.1121 
     67 H67        13.5253  -28.4450  -43.9470 H         1 UNK         0.0849 
     68 H68        14.0163  -27.7889  -45.4730 H         1 UNK         0.0849 
     69 H69        15.8658  -29.7589  -47.0169 H         1 UNK         0.0865 
     70 H70        16.2180  -28.1207  -46.5164 H         1 UNK         0.0865 
     71 H71        17.5323  -31.4804  -45.3695 H         1 UNK         0.1346 
     72 H72        21.6176  -30.3606  -46.0084 H         1 UNK         0.1412 
     73 H73        18.4762  -27.6323  -47.0218 H         1 UNK         0.1426 
     74 H74        22.1400  -28.3931  -47.2845 H         1 UNK         0.0716 
     75 H75        20.8481  -27.5225  -48.0686 H         1 UNK         0.0716 
     76 H76        22.1801  -28.3328  -44.5799 H         1 UNK         0.0695 
     77 H77        23.4257  -27.1480  -44.8712 H         1 UNK         0.0695 
     78 H78        22.0586  -25.5321  -43.3451 H         1 UNK         0.0983 
     79 H79        20.8440  -27.8298  -42.0088 H         1 UNK         0.3095 
     80 H80        18.5131  -28.0478  -41.9785 H         1 UNK         0.0454 
     81 H81        18.1067  -25.2395  -40.7649 H         1 UNK         0.0851 
     82 H82        17.5225  -26.7571  -40.0818 H         1 UNK         0.0851 
     83 H83        19.2392  -26.4272  -40.1335 H         1 UNK         0.0851 
     84 H84        17.4428  -26.2406  -43.7672 H         1 UNK         0.2976 
     85 H85        23.6900  -25.0296  -42.0203 H         1 UNK         0.3116 
     86 H86        24.6709  -26.6895  -39.9455 H         1 UNK         0.0646 
     87 H87        26.3536  -24.8649  -39.6481 H         1 UNK         0.0847 
     88 H88        24.7392  -24.2098  -39.8526 H         1 UNK         0.0847 
     89 H89        25.8889  -24.1631  -41.1907 H         1 UNK         0.0847 
     90 H90        25.6990  -26.3961  -43.2832 H         1 UNK         0.3040 
     91 H91        28.2596  -27.6975  -43.0295 H         1 UNK         0.1015 
     92 H92        27.6853  -26.2629  -44.9805 H         1 UNK         0.0786 
     93 H93        26.3949  -27.3719  -45.4484 H         1 UNK         0.0786 
     94 H94        28.0738  -27.8891  -45.5143 H         1 UNK         0.0786 
     95 H95        24.9416  -28.8631  -43.2508 H         1 UNK         0.3172 
     96 H96        25.7488  -31.6767  -43.7105 H         1 UNK         0.0595 
     97 H97        23.3013  -32.1002  -43.6744 H         1 UNK         0.0839 
     98 H98        23.7071  -30.8674  -44.8574 H         1 UNK         0.0839 
     99 H99        22.9846  -30.4091  -43.3160 H         1 UNK         0.0839 
    100 H100       24.4008  -29.5323  -41.2251 H         1 UNK         0.2998 
    101 H101       24.4548  -29.4277  -39.0547 H         1 UNK         0.0822 
    102 H102       26.8435  -30.0992  -39.1256 H         1 UNK         0.0787 
    103 H103       26.0606  -30.7044  -37.6739 H         1 UNK         0.0787 
    104 H104       26.3932  -31.8001  -39.0053 H         1 UNK         0.0787 
    105 H105       24.0055  -32.7804  -40.1323 H         1 UNK         0.3055 
    106 H106       22.2847  -33.6062  -37.9631 H         1 UNK         0.1106 
    107 H107       21.7437  -35.5093  -39.4966 H         1 UNK         0.0828 
    108 H108       22.5689  -34.6980  -40.8208 H         1 UNK         0.0828 
    109 H109       23.4772  -35.2431  -39.4109 H         1 UNK         0.0828 
    110 H110       21.7452  -31.9387  -41.0152 H         1 UNK         0.2931 
    111 H111       18.8093  -31.8279  -40.6666 H         1 UNK         0.0412 
    112 H112       18.9188  -28.8365  -38.7823 H         1 UNK         0.3472 
    113 H113       18.2501  -30.4361  -38.9750 H         1 UNK         0.3472 
    114 H114       20.6183  -30.6926  -42.8587 H         1 UNK         0.0970 
    115 H115       18.8918  -30.4492  -42.7800 H         1 UNK         0.0970 
    116 H116       19.8019  -33.1947  -45.6883 H         1 UNK         0.0612 
    117 H117       21.1748  -32.4149  -44.9414 H         1 UNK         0.0612 
@<TRIPOS>BOND
     1    1    2 1    
     2    1   62 1    
     3    1   63 1    
     4    1   64 1    
     5    2    3 2    
     6    2    4 am   BACKBONE|DICT|INTERRES
     7    4    5 1    
     8    4   65 1    
     9    5    6 1    
    10    5   25 1    
    11    5   66 1    
    12    6    7 1    
    13    6   67 1    
    14    6   68 1    
    15    7    8 1    
    16    8    9 1    
    17    8   69 1    
    18    8   70 1    
    19    9   10 ar   
    20    9   14 ar   
    21   10   11 ar   
    22   10   71 1    
    23   11   12 ar   
    24   11   61 1    
    25   12   13 ar   
    26   12   72 1    
    27   13   14 ar   
    28   13   15 1    
    29   14   73 1    
    30   15   16 1    
    31   15   74 1    
    32   15   75 1    
    33   16   17 1    
    34   17   18 1    
    35   17   76 1    
    36   17   77 1    
    37   18   19 1    
    38   18   27 1    
    39   18   78 1    
    40   19   20 am   BACKBONE|DICT|INTERRES
    41   19   79 1    
    42   20   21 2    
    43   20   22 1    
    44   22   23 1    
    45   22   24 1    
    46   22   80 1    
    47   23   81 1    
    48   23   82 1    
    49   23   83 1    
    50   24   25 am   BACKBONE|DICT|INTERRES
    51   24   84 1    
    52   25   26 2    
    53   27   28 2    
    54   27   29 am   BACKBONE|DICT|INTERRES
    55   29   30 1    
    56   29   85 1    
    57   30   31 1    
    58   30   32 1    
    59   30   86 1    
    60   31   87 1    
    61   31   88 1    
    62   31   89 1    
    63   32   33 2    
    64   32   34 am   BACKBONE|DICT|INTERRES
    65   34   35 1    
    66   34   90 1    
    67   35   36 1    
    68   35   37 1    
    69   35   91 1    
    70   36   92 1    
    71   36   93 1    
    72   36   94 1    
    73   37   38 2    
    74   37   39 am   BACKBONE|DICT|INTERRES
    75   39   40 1    
    76   39   95 1    
    77   40   41 1    
    78   40   42 1    
    79   40   96 1    
    80   41   97 1    
    81   41   98 1    
    82   41   99 1    
    83   42   43 2    
    84   42   44 am   BACKBONE|DICT|INTERRES
    85   44   45 1    
    86   44  100 1    
    87   45   46 1    
    88   45   47 1    
    89   45  101 1    
    90   46  102 1    
    91   46  103 1    
    92   46  104 1    
    93   47   48 2    
    94   47   49 am   BACKBONE|DICT|INTERRES
    95   49   50 1    
    96   49  105 1    
    97   50   51 1    
    98   50   52 1    
    99   50  106 1    
   100   51  107 1    
   101   51  108 1    
   102   51  109 1    
   103   52   53 2    
   104   52   54 am   BACKBONE|DICT|INTERRES
   105   54   55 1    
   106   54  110 1    
   107   55   56 1    
   108   55   59 1    
   109   55  111 1    
   110   56   57 am   BACKBONE|DICT|INTERRES
   111   56   58 2    
   112   57  112 1    
   113   57  113 1    
   114   59   60 1    
   115   59  114 1    
   116   59  115 1    
   117   60   61 1    
   118   61  116 1    
   119   61  117 1    
@<TRIPOS>SUBSTRUCTURE
     1 UNK         1 GROUP             0       ****    0 ROOT    
