@<TRIPOS>MOLECULE
3R8
117   119    1
SMALL
USER_CHARGES


@<TRIPOS>ATOM
      1 CA         19.6832  -24.0884  -39.5376 C.3       0 UNK        -0.2013 
      2 C          19.1291  -24.0907  -40.9548 C.2       0 UNK         0.4866 
      3 O          18.7888  -23.0308  -41.4817 O.2       0 UNK        -0.5176 
      4 N          19.0196  -25.2778  -41.5655 N.am      1 UNK        -0.4884 
      5 CA         18.5164  -25.4910  -42.9267 C.3       1 UNK         0.0853 
      6 C6         18.3340  -26.9937  -43.2457 C.3       10 UNK        -0.0849 
      7 S7         17.3265  -27.9124  -42.0263 S.3       10 UNK        -0.2776 
      8 C8         16.5138  -29.1855  -43.0575 C.3       10 UNK         0.0316 
      9 C9         17.5259  -30.1227  -43.7039 C.ar      10 UNK        -0.0863 
     10 C10        17.9017  -31.3204  -43.0858 C.ar      10 UNK        -0.1009 
     11 C11        18.8838  -32.1377  -43.6609 C.ar      10 UNK        -0.0712 
     12 C12        19.5091  -31.7333  -44.8465 C.ar      10 UNK        -0.0894 
     13 C13        19.1442  -30.5339  -45.4619 C.ar      10 UNK        -0.0745 
     14 C14        18.1168  -29.7667  -44.9169 C.ar      10 UNK        -0.0972 
     15 C15        19.9119  -29.9898  -46.6523 C.3       10 UNK         0.0209 
     16 S16        21.0408  -28.6953  -46.0552 S.3       10 UNK        -0.2568 
     17 C17        21.5442  -27.8506  -47.5886 C.3       10 UNK        -0.0983 
     18 CA         21.9151  -26.3630  -47.3515 C.3       3 UNK         0.0876 
     19 N          20.7679  -25.5971  -46.8441 N.am      3 UNK        -0.4424 
     20 C          20.6551  -24.2633  -46.8912 C.2       2 UNK         0.4918 
     21 O          21.4752  -23.5326  -47.4472 O.2       2 UNK        -0.4875 
     22 CA         19.4414  -23.6212  -46.1895 C.3       2 UNK         0.0481 
     23 CB         18.3649  -23.2600  -47.2258 C.3       2 UNK        -0.1831 
     24 N          18.8215  -24.4029  -45.1085 N.am      2 UNK        -0.4498 
     25 C          19.4275  -24.8379  -43.9926 C.2       1 UNK         0.5027 
     26 O          20.6466  -24.7818  -43.8079 O.2       1 UNK        -0.4969 
     27 C          23.1818  -26.2273  -46.4673 C.2       3 UNK         0.5005 
     28 O          24.2530  -26.6602  -46.8945 O.2       3 UNK        -0.5279 
     29 N          23.0350  -25.6601  -45.2573 N.am      4 UNK        -0.4463 
     30 CA         24.0466  -25.4689  -44.2108 C.3       4 UNK         0.0283 
     31 CB         25.2849  -24.7032  -44.7248 C.3       4 UNK        -0.1875 
     32 C          24.4126  -26.7549  -43.4444 C.2       4 UNK         0.4949 
     33 O          25.3839  -26.7440  -42.6874 O.2       4 UNK        -0.5039 
     34 N          23.6132  -27.8231  -43.5943 N.am      5 UNK        -0.4663 
     35 CA         23.7273  -29.0527  -42.7975 C.3       5 UNK         0.0242 
     36 CB         23.0008  -30.2036  -43.5125 C.3       5 UNK        -0.1982 
     37 C          23.1751  -28.8925  -41.3694 C.2       5 UNK         0.5017 
     38 O          23.4994  -29.7066  -40.5051 O.2       5 UNK        -0.5012 
     39 N          22.3261  -27.8726  -41.1563 N.am      6 UNK        -0.4439 
     40 CA         21.6874  -27.4869  -39.8886 C.3       6 UNK         0.0297 
     41 CB         22.7392  -26.9212  -38.9119 C.3       6 UNK        -0.2006 
     42 C          20.8263  -28.5956  -39.2451 C.2       6 UNK         0.4892 
     43 O          20.6352  -28.5879  -38.0286 O.2       6 UNK        -0.5089 
     44 N          20.3480  -29.5357  -40.0746 N.am      7 UNK        -0.4243 
     45 CA         19.6413  -30.7727  -39.7225 C.3       7 UNK         0.0196 
     46 CB         18.2756  -30.4734  -39.0701 C.3       7 UNK        -0.2007 
     47 C          20.4784  -31.7749  -38.8994 C.2       7 UNK         0.5020 
     48 O          19.9184  -32.7465  -38.3897 O.2       7 UNK        -0.5147 
     49 N          21.8043  -31.5855  -38.8198 N.am      8 UNK        -0.4734 
     50 CA         22.7487  -32.4840  -38.1450 C.3       8 UNK         0.0238 
     51 CB         23.9382  -31.6564  -37.6233 C.3       8 UNK        -0.1912 
     52 C          23.1829  -33.6273  -39.0833 C.2       8 UNK         0.5038 
     53 O          24.3778  -33.8793  -39.2503 O.2       8 UNK        -0.5046 
     54 N          22.1918  -34.2679  -39.7098 N.am      9 UNK        -0.4200 
     55 CA         22.3492  -35.2524  -40.7887 C.3       9 UNK         0.0839 
     56 C          22.5396  -36.7160  -40.2980 C.2       9 UNK         0.5513 
     57 N          22.4857  -36.9980  -39.0017 N.am      9 UNK        -0.7519 
     58 O          22.7504  -37.6131  -41.1100 O.2       9 UNK        -0.4960 
     59 C59        21.1908  -35.1385  -41.8154 C.3       10 UNK        -0.0876 
     60 S60        21.0252  -33.4483  -42.4896 S.3       10 UNK        -0.2414 
     61 C61        19.2803  -33.4519  -43.0022 C.3       10 UNK         0.0169 
     62 H62        19.1871  -23.3250  -38.9386 H         1 UNK         0.0903 
     63 H63        19.5323  -25.0476  -39.0429 H         1 UNK         0.0903 
     64 H64        20.7507  -23.8698  -39.5515 H         1 UNK         0.0903 
     65 H65        19.2728  -26.1188  -41.0709 H         1 UNK         0.3096 
     66 H66        17.5381  -25.0076  -42.9792 H         1 UNK         0.1121 
     67 H67        17.8461  -27.0730  -44.2161 H         1 UNK         0.0849 
     68 H68        19.2989  -27.4982  -43.3352 H         1 UNK         0.0849 
     69 H69        15.8236  -29.7560  -42.4342 H         1 UNK         0.0865 
     70 H70        15.9026  -28.7023  -43.8214 H         1 UNK         0.0865 
     71 H71        17.4367  -31.6088  -42.1529 H         1 UNK         0.1346 
     72 H72        20.3028  -32.3357  -45.2670 H         1 UNK         0.1412 
     73 H73        17.8311  -28.8520  -45.4141 H         1 UNK         0.1426 
     74 H74        19.2174  -29.5782  -47.3863 H         1 UNK         0.0716 
     75 H75        20.4803  -30.7759  -47.1514 H         1 UNK         0.0716 
     76 H76        20.7322  -27.9117  -48.3147 H         1 UNK         0.0695 
     77 H77        22.3810  -28.3953  -48.0301 H         1 UNK         0.0695 
     78 H78        22.1843  -25.9407  -48.3223 H         1 UNK         0.0983 
     79 H79        20.0510  -26.1305  -46.3754 H         1 UNK         0.3095 
     80 H80        19.7973  -22.6923  -45.7394 H         1 UNK         0.0454 
     81 H81        18.7820  -22.6500  -48.0286 H         1 UNK         0.0851 
     82 H82        17.5554  -22.6846  -46.7765 H         1 UNK         0.0851 
     83 H83        17.9322  -24.1495  -47.6853 H         1 UNK         0.0851 
     84 H84        17.8215  -24.5256  -45.1835 H         1 UNK         0.2976 
     85 H85        22.1037  -25.3503  -44.9906 H         1 UNK         0.3116 
     86 H86        23.5647  -24.8260  -43.4726 H         1 UNK         0.0646 
     87 H87        25.8985  -25.3153  -45.3859 H         1 UNK         0.0847 
     88 H88        24.9991  -23.8020  -45.2671 H         1 UNK         0.0847 
     89 H89        25.9217  -24.3921  -43.8960 H         1 UNK         0.0847 
     90 H90        22.8582  -27.7753  -44.2649 H         1 UNK         0.3040 
     91 H91        24.7841  -29.3163  -42.7124 H         1 UNK         0.1015 
     92 H92        23.1617  -31.1475  -42.9896 H         1 UNK         0.0786 
     93 H93        23.3634  -30.3345  -44.5321 H         1 UNK         0.0786 
     94 H94        21.9229  -30.0419  -43.5554 H         1 UNK         0.0786 
     95 H95        22.1263  -27.2774  -41.9478 H         1 UNK         0.3172 
     96 H96        21.0018  -26.6782  -40.1335 H         1 UNK         0.0595 
     97 H97        23.4299  -27.6940  -38.5723 H         1 UNK         0.0839 
     98 H98        22.2663  -26.4955  -38.0260 H         1 UNK         0.0839 
     99 H99        23.3258  -26.1278  -39.3753 H         1 UNK         0.0839 
    100 H100       20.5702  -29.4367  -41.0548 H         1 UNK         0.2998 
    101 H101       19.4468  -31.2750  -40.6700 H         1 UNK         0.0822 
    102 H102       17.6891  -31.3853  -38.9527 H         1 UNK         0.0787 
    103 H103       17.6858  -29.7898  -39.6797 H         1 UNK         0.0787 
    104 H104       18.3868  -30.0306  -38.0801 H         1 UNK         0.0787 
    105 H105       22.2187  -30.8096  -39.3274 H         1 UNK         0.3055 
    106 H106       22.2597  -32.9428  -37.2827 H         1 UNK         0.1106 
    107 H107       23.6053  -30.8586  -36.9593 H         1 UNK         0.0828 
    108 H108       24.6313  -32.2804  -37.0576 H         1 UNK         0.0828 
    109 H109       24.5007  -31.1999  -38.4387 H         1 UNK         0.0828 
    110 H110       21.2423  -33.9985  -39.4838 H         1 UNK         0.2931 
    111 H111       23.2684  -35.0086  -41.3252 H         1 UNK         0.0412 
    112 H112       22.6156  -37.9499  -38.6956 H         1 UNK         0.3472 
    113 H113       22.3198  -36.2678  -38.3276 H         1 UNK         0.3472 
    114 H114       21.3503  -35.8197  -42.6534 H         1 UNK         0.0970 
    115 H115       20.2479  -35.4363  -41.3528 H         1 UNK         0.0970 
    116 H116       19.1127  -34.2690  -43.7053 H         1 UNK         0.0612 
    117 H117       18.6538  -33.6520  -42.1315 H         1 UNK         0.0612 
@<TRIPOS>BOND
     1    1    2 1    
     2    1   62 1    
     3    1   63 1    
     4    1   64 1    
     5    2    3 2    
     6    2    4 am   BACKBONE|DICT|INTERRES
     7    4    5 1    
     8    4   65 1    
     9    5    6 1    
    10    5   25 1    
    11    5   66 1    
    12    6    7 1    
    13    6   67 1    
    14    6   68 1    
    15    7    8 1    
    16    8    9 1    
    17    8   69 1    
    18    8   70 1    
    19    9   10 ar   
    20    9   14 ar   
    21   10   11 ar   
    22   10   71 1    
    23   11   12 ar   
    24   11   61 1    
    25   12   13 ar   
    26   12   72 1    
    27   13   14 ar   
    28   13   15 1    
    29   14   73 1    
    30   15   16 1    
    31   15   74 1    
    32   15   75 1    
    33   16   17 1    
    34   17   18 1    
    35   17   76 1    
    36   17   77 1    
    37   18   19 1    
    38   18   27 1    
    39   18   78 1    
    40   19   20 am   BACKBONE|DICT|INTERRES
    41   19   79 1    
    42   20   21 2    
    43   20   22 1    
    44   22   23 1    
    45   22   24 1    
    46   22   80 1    
    47   23   81 1    
    48   23   82 1    
    49   23   83 1    
    50   24   25 am   BACKBONE|DICT|INTERRES
    51   24   84 1    
    52   25   26 2    
    53   27   28 2    
    54   27   29 am   BACKBONE|DICT|INTERRES
    55   29   30 1    
    56   29   85 1    
    57   30   31 1    
    58   30   32 1    
    59   30   86 1    
    60   31   87 1    
    61   31   88 1    
    62   31   89 1    
    63   32   33 2    
    64   32   34 am   BACKBONE|DICT|INTERRES
    65   34   35 1    
    66   34   90 1    
    67   35   36 1    
    68   35   37 1    
    69   35   91 1    
    70   36   92 1    
    71   36   93 1    
    72   36   94 1    
    73   37   38 2    
    74   37   39 am   BACKBONE|DICT|INTERRES
    75   39   40 1    
    76   39   95 1    
    77   40   41 1    
    78   40   42 1    
    79   40   96 1    
    80   41   97 1    
    81   41   98 1    
    82   41   99 1    
    83   42   43 2    
    84   42   44 am   BACKBONE|DICT|INTERRES
    85   44   45 1    
    86   44  100 1    
    87   45   46 1    
    88   45   47 1    
    89   45  101 1    
    90   46  102 1    
    91   46  103 1    
    92   46  104 1    
    93   47   48 2    
    94   47   49 am   BACKBONE|DICT|INTERRES
    95   49   50 1    
    96   49  105 1    
    97   50   51 1    
    98   50   52 1    
    99   50  106 1    
   100   51  107 1    
   101   51  108 1    
   102   51  109 1    
   103   52   53 2    
   104   52   54 am   BACKBONE|DICT|INTERRES
   105   54   55 1    
   106   54  110 1    
   107   55   56 1    
   108   55   59 1    
   109   55  111 1    
   110   56   57 am   BACKBONE|DICT|INTERRES
   111   56   58 2    
   112   57  112 1    
   113   57  113 1    
   114   59   60 1    
   115   59  114 1    
   116   59  115 1    
   117   60   61 1    
   118   61  116 1    
   119   61  117 1    
@<TRIPOS>SUBSTRUCTURE
     1 UNK         1 GROUP             0       ****    0 ROOT    
