@<TRIPOS>MOLECULE
3R8
117   119    1
SMALL
USER_CHARGES


@<TRIPOS>ATOM
      1 CA         17.1477  -29.3452  -40.2217 C.3       0 UNK        -0.2013 
      2 C          16.4983  -28.3373  -41.1590 C.2       0 UNK         0.4866 
      3 O          15.8326  -27.4114  -40.6960 O.2       0 UNK        -0.5176 
      4 N          16.6919  -28.5028  -42.4744 N.am      1 UNK        -0.4884 
      5 CA         16.1632  -27.6146  -43.5193 C.3       1 UNK         0.0853 
      6 C6         16.0945  -28.3154  -44.8995 C.3       10 UNK        -0.0849 
      7 S7         15.1528  -29.8891  -44.9182 S.3       10 UNK        -0.2776 
      8 C8         16.3587  -31.2391  -44.6103 C.3       10 UNK         0.0316 
      9 C9         17.8060  -30.8706  -44.9071 C.ar      10 UNK        -0.0863 
     10 C10        18.7137  -30.6996  -43.8599 C.ar      10 UNK        -0.1009 
     11 C11        20.0151  -30.2613  -44.1124 C.ar      10 UNK        -0.0712 
     12 C12        20.4239  -30.0391  -45.4298 C.ar      10 UNK        -0.0894 
     13 C13        19.5320  -30.2314  -46.4923 C.ar      10 UNK        -0.0745 
     14 C14        18.2287  -30.6617  -46.2229 C.ar      10 UNK        -0.0972 
     15 C15        19.9496  -29.9845  -47.9387 C.3       10 UNK         0.0209 
     16 S16        21.0171  -28.5243  -48.1750 S.3       10 UNK        -0.2568 
     17 C17        19.9736  -27.1405  -47.5692 C.3       10 UNK        -0.0983 
     18 CA         20.6017  -26.1105  -46.5664 C.3       3 UNK         0.0876 
     19 N          19.8869  -26.0813  -45.2810 N.am      3 UNK        -0.4424 
     20 C          19.8396  -25.0127  -44.4684 C.2       2 UNK         0.4918 
     21 O          20.3168  -23.9163  -44.7649 O.2       2 UNK        -0.4875 
     22 CA         19.1827  -25.2040  -43.0862 C.3       2 UNK         0.0481 
     23 CB         18.6270  -23.8911  -42.4942 C.3       2 UNK        -0.1831 
     24 N          18.1823  -26.2772  -43.0524 N.am      2 UNK        -0.4498 
     25 C          16.9803  -26.3083  -43.6509 C.2       1 UNK         0.5027 
     26 O          16.5210  -25.3792  -44.3159 O.2       1 UNK        -0.4969 
     27 C          22.1332  -26.2223  -46.3563 C.2       3 UNK         0.5005 
     28 O          22.8987  -25.7817  -47.2165 O.2       3 UNK        -0.5279 
     29 N          22.5466  -26.7969  -45.2198 N.am      4 UNK        -0.4463 
     30 CA         23.9309  -26.9953  -44.8029 C.3       4 UNK         0.0283 
     31 CB         24.3837  -28.4127  -45.2098 C.3       4 UNK        -0.1875 
     32 C          24.0291  -26.7518  -43.2887 C.2       4 UNK         0.4949 
     33 O          23.0811  -26.2427  -42.6878 O.2       4 UNK        -0.5039 
     34 N          25.1690  -27.1217  -42.6966 N.am      5 UNK        -0.4663 
     35 CA         25.4446  -27.0278  -41.2611 C.3       5 UNK         0.0242 
     36 CB         26.3399  -25.8033  -40.9897 C.3       5 UNK        -0.1982 
     37 C          26.0552  -28.3481  -40.7624 C.2       5 UNK         0.5017 
     38 O          27.0565  -28.3365  -40.0444 O.2       5 UNK        -0.5012 
     39 N          25.4554  -29.4669  -41.1826 N.am      6 UNK        -0.4439 
     40 CA         25.8354  -30.8297  -40.8273 C.3       6 UNK         0.0297 
     41 CB         26.8891  -31.3439  -41.8261 C.3       6 UNK        -0.2006 
     42 C          24.5809  -31.7129  -40.8334 C.2       6 UNK         0.4892 
     43 O          23.5299  -31.2813  -41.3176 O.2       6 UNK        -0.5089 
     44 N          24.7257  -32.9398  -40.3128 N.am      7 UNK        -0.4243 
     45 CA         23.6885  -33.9693  -40.1856 C.3       7 UNK         0.0196 
     46 CB         23.2503  -34.4851  -41.5773 C.3       7 UNK        -0.2007 
     47 C          22.5312  -33.4813  -39.2948 C.2       7 UNK         0.5020 
     48 O          22.7412  -33.2871  -38.0970 O.2       7 UNK        -0.5147 
     49 N          21.3436  -33.2853  -39.8813 N.am      8 UNK        -0.4734 
     50 CA         20.1565  -32.7582  -39.2022 C.3       8 UNK         0.0238 
     51 CB         18.9211  -33.0228  -40.0794 C.3       8 UNK        -0.1912 
     52 C          20.2541  -31.2600  -38.8605 C.2       8 UNK         0.5038 
     53 O          19.5346  -30.8048  -37.9707 O.2       8 UNK        -0.5046 
     54 N          21.1078  -30.5226  -39.5796 N.am      9 UNK        -0.4200 
     55 CA         21.3210  -29.0835  -39.4061 C.3       9 UNK         0.0839 
     56 C          22.3886  -28.8112  -38.3170 C.2       9 UNK         0.5513 
     57 N          22.1711  -27.8135  -37.4717 N.am      9 UNK        -0.7519 
     58 O          23.4301  -29.4604  -38.2619 O.2       9 UNK        -0.4960 
     59 C59        21.7171  -28.4108  -40.7417 C.3       10 UNK        -0.0876 
     60 S60        20.4197  -28.5416  -42.0139 S.3       10 UNK        -0.2414 
     61 C61        20.9603  -30.0021  -42.9530 C.3       10 UNK         0.0169 
     62 H62        17.7330  -28.8282  -39.4616 H         1 UNK         0.0903 
     63 H63        16.3847  -29.9375  -39.7177 H         1 UNK         0.0903 
     64 H64        17.8159  -30.0259  -40.7463 H         1 UNK         0.0903 
     65 H65        17.2361  -29.2825  -42.8132 H         1 UNK         0.3096 
     66 H66        15.1478  -27.3255  -43.2380 H         1 UNK         0.1121 
     67 H67        15.5879  -27.6567  -45.6079 H         1 UNK         0.0849 
     68 H68        17.0906  -28.4457  -45.3182 H         1 UNK         0.0849 
     69 H69        16.2543  -31.5605  -43.5728 H         1 UNK         0.0865 
     70 H70        16.0785  -32.1026  -45.2152 H         1 UNK         0.0865 
     71 H71        18.4063  -30.8807  -42.8406 H         1 UNK         0.1346 
     72 H72        21.4332  -29.7060  -45.6277 H         1 UNK         0.1412 
     73 H73        17.5259  -30.7994  -47.0337 H         1 UNK         0.1426 
     74 H74        20.4805  -30.8658  -48.3005 H         1 UNK         0.0716 
     75 H75        19.0717  -29.8693  -48.5766 H         1 UNK         0.0716 
     76 H76        19.6553  -26.5995  -48.4616 H         1 UNK         0.0695 
     77 H77        19.0476  -27.5511  -47.1638 H         1 UNK         0.0695 
     78 H78        20.4577  -25.1272  -47.0210 H         1 UNK         0.0983 
     79 H79        19.4739  -26.9476  -44.9691 H         1 UNK         0.3095 
     80 H80        19.9870  -25.5328  -42.4267 H         1 UNK         0.0454 
     81 H81        17.8805  -23.4342  -43.1441 H         1 UNK         0.0851 
     82 H82        18.1686  -24.0578  -41.5196 H         1 UNK         0.0851 
     83 H83        19.4231  -23.1589  -42.3542 H         1 UNK         0.0851 
     84 H84        18.4584  -27.1033  -42.5372 H         1 UNK         0.2976 
     85 H85        21.8595  -27.0216  -44.5129 H         1 UNK         0.3116 
     86 H86        24.5719  -26.2579  -45.2903 H         1 UNK         0.0646 
     87 H87        25.4506  -28.5580  -45.0394 H         1 UNK         0.0847 
     88 H88        24.2076  -28.5926  -46.2707 H         1 UNK         0.0847 
     89 H89        23.8535  -29.1845  -44.6518 H         1 UNK         0.0847 
     90 H90        25.8978  -27.5426  -43.2571 H         1 UNK         0.3040 
     91 H91        24.5146  -26.8956  -40.7033 H         1 UNK         0.1015 
     92 H92        25.8639  -24.8835  -41.3301 H         1 UNK         0.0786 
     93 H93        27.3032  -25.8890  -41.4937 H         1 UNK         0.0786 
     94 H94        26.5357  -25.6888  -39.9227 H         1 UNK         0.0786 
     95 H95        24.6042  -29.4084  -41.7258 H         1 UNK         0.3172 
     96 H96        26.2475  -30.8413  -39.8159 H         1 UNK         0.0595 
     97 H97        27.2111  -32.3562  -41.5796 H         1 UNK         0.0839 
     98 H98        27.7798  -30.7152  -41.8215 H         1 UNK         0.0839 
     99 H99        26.4999  -31.3639  -42.8449 H         1 UNK         0.0839 
    100 H100       25.6226  -33.1810  -39.9144 H         1 UNK         0.2998 
    101 H101       24.1449  -34.8071  -39.6558 H         1 UNK         0.0822 
    102 H102       24.1004  -34.8940  -42.1235 H         1 UNK         0.0787 
    103 H103       22.5168  -35.2875  -41.4867 H         1 UNK         0.0787 
    104 H104       22.8128  -33.7022  -42.1976 H         1 UNK         0.0787 
    105 H105       21.2663  -33.4630  -40.8724 H         1 UNK         0.3055 
    106 H106       20.0322  -33.2964  -38.2595 H         1 UNK         0.1106 
    107 H107       18.0135  -32.6543  -39.5987 H         1 UNK         0.0828 
    108 H108       19.0002  -32.5293  -41.0484 H         1 UNK         0.0828 
    109 H109       18.7804  -34.0894  -40.2557 H         1 UNK         0.0828 
    110 H110       21.7313  -30.9832  -40.2320 H         1 UNK         0.2931 
    111 H111       20.3807  -28.6318  -39.0820 H         1 UNK         0.0412 
    112 H112       22.8620  -27.6107  -36.7660 H         1 UNK         0.3472 
    113 H113       21.3240  -27.2681  -37.5136 H         1 UNK         0.3472 
    114 H114       22.6507  -28.8165  -41.1285 H         1 UNK         0.0970 
    115 H115       21.8964  -27.3464  -40.5798 H         1 UNK         0.0970 
    116 H116       21.9806  -29.8509  -43.3064 H         1 UNK         0.0612 
    117 H117       20.9787  -30.8775  -42.3040 H         1 UNK         0.0612 
@<TRIPOS>BOND
     1    1    2 1    
     2    1   62 1    
     3    1   63 1    
     4    1   64 1    
     5    2    3 2    
     6    2    4 am   BACKBONE|DICT|INTERRES
     7    4    5 1    
     8    4   65 1    
     9    5    6 1    
    10    5   25 1    
    11    5   66 1    
    12    6    7 1    
    13    6   67 1    
    14    6   68 1    
    15    7    8 1    
    16    8    9 1    
    17    8   69 1    
    18    8   70 1    
    19    9   10 ar   
    20    9   14 ar   
    21   10   11 ar   
    22   10   71 1    
    23   11   12 ar   
    24   11   61 1    
    25   12   13 ar   
    26   12   72 1    
    27   13   14 ar   
    28   13   15 1    
    29   14   73 1    
    30   15   16 1    
    31   15   74 1    
    32   15   75 1    
    33   16   17 1    
    34   17   18 1    
    35   17   76 1    
    36   17   77 1    
    37   18   19 1    
    38   18   27 1    
    39   18   78 1    
    40   19   20 am   BACKBONE|DICT|INTERRES
    41   19   79 1    
    42   20   21 2    
    43   20   22 1    
    44   22   23 1    
    45   22   24 1    
    46   22   80 1    
    47   23   81 1    
    48   23   82 1    
    49   23   83 1    
    50   24   25 am   BACKBONE|DICT|INTERRES
    51   24   84 1    
    52   25   26 2    
    53   27   28 2    
    54   27   29 am   BACKBONE|DICT|INTERRES
    55   29   30 1    
    56   29   85 1    
    57   30   31 1    
    58   30   32 1    
    59   30   86 1    
    60   31   87 1    
    61   31   88 1    
    62   31   89 1    
    63   32   33 2    
    64   32   34 am   BACKBONE|DICT|INTERRES
    65   34   35 1    
    66   34   90 1    
    67   35   36 1    
    68   35   37 1    
    69   35   91 1    
    70   36   92 1    
    71   36   93 1    
    72   36   94 1    
    73   37   38 2    
    74   37   39 am   BACKBONE|DICT|INTERRES
    75   39   40 1    
    76   39   95 1    
    77   40   41 1    
    78   40   42 1    
    79   40   96 1    
    80   41   97 1    
    81   41   98 1    
    82   41   99 1    
    83   42   43 2    
    84   42   44 am   BACKBONE|DICT|INTERRES
    85   44   45 1    
    86   44  100 1    
    87   45   46 1    
    88   45   47 1    
    89   45  101 1    
    90   46  102 1    
    91   46  103 1    
    92   46  104 1    
    93   47   48 2    
    94   47   49 am   BACKBONE|DICT|INTERRES
    95   49   50 1    
    96   49  105 1    
    97   50   51 1    
    98   50   52 1    
    99   50  106 1    
   100   51  107 1    
   101   51  108 1    
   102   51  109 1    
   103   52   53 2    
   104   52   54 am   BACKBONE|DICT|INTERRES
   105   54   55 1    
   106   54  110 1    
   107   55   56 1    
   108   55   59 1    
   109   55  111 1    
   110   56   57 am   BACKBONE|DICT|INTERRES
   111   56   58 2    
   112   57  112 1    
   113   57  113 1    
   114   59   60 1    
   115   59  114 1    
   116   59  115 1    
   117   60   61 1    
   118   61  116 1    
   119   61  117 1    
@<TRIPOS>SUBSTRUCTURE
     1 UNK         1 GROUP             0       ****    0 ROOT    
