@<TRIPOS>MOLECULE
3R8
117   119    1
SMALL
USER_CHARGES


@<TRIPOS>ATOM
      1 CA         15.2476  -22.6072  -45.7036 C.3       0 UNK        -0.2013 
      2 C          16.2994  -23.7060  -45.6725 C.2       0 UNK         0.4866 
      3 O          16.3313  -24.4920  -44.7244 O.2       0 UNK        -0.5176 
      4 N          17.1557  -23.7660  -46.7038 N.am      1 UNK        -0.4884 
      5 CA         18.2657  -24.7186  -46.8500 C.3       1 UNK         0.0853 
      6 C6         17.7573  -26.1890  -46.9444 C.3       10 UNK        -0.0849 
      7 S7         18.9072  -27.3106  -47.8104 S.3       10 UNK        -0.2776 
      8 C8         17.9544  -28.8625  -47.8074 C.3       10 UNK         0.0316 
      9 C9         17.8433  -29.4693  -46.4148 C.ar      10 UNK        -0.0863 
     10 C10        18.8803  -30.2585  -45.9062 C.ar      10 UNK        -0.1009 
     11 C11        18.7696  -30.8483  -44.6427 C.ar      10 UNK        -0.0712 
     12 C12        17.5994  -30.6620  -43.9011 C.ar      10 UNK        -0.0894 
     13 C13        16.5861  -29.8212  -44.3671 C.ar      10 UNK        -0.0745 
     14 C14        16.7031  -29.2454  -45.6356 C.ar      10 UNK        -0.0972 
     15 C15        15.3862  -29.5061  -43.4823 C.3       10 UNK         0.0209 
     16 S16        15.8756  -28.8194  -41.8593 S.3       10 UNK        -0.2568 
     17 C17        16.8438  -27.3431  -42.3287 C.3       10 UNK        -0.0983 
     18 CA         18.3735  -27.5709  -42.1983 C.3       3 UNK         0.0876 
     19 N          19.1264  -26.6423  -43.0413 N.am      3 UNK        -0.4424 
     20 C          20.4520  -26.6562  -43.2508 C.2       2 UNK         0.4918 
     21 O          21.2309  -27.4407  -42.7027 O.2       2 UNK        -0.4875 
     22 CA         20.9855  -25.6303  -44.2652 C.3       2 UNK         0.0481 
     23 CB         22.3905  -25.9851  -44.7830 C.3       2 UNK        -0.1831 
     24 N          20.0621  -25.5554  -45.3955 N.am      2 UNK        -0.4498 
     25 C          19.3469  -24.4880  -45.7630 C.2       1 UNK         0.5027 
     26 O          19.5046  -23.3642  -45.2780 O.2       1 UNK        -0.4969 
     27 C          18.8690  -27.5244  -40.7383 C.2       3 UNK         0.5005 
     28 O          18.6734  -26.5140  -40.0595 O.2       3 UNK        -0.5279 
     29 N          19.5562  -28.5991  -40.3228 N.am      4 UNK        -0.4463 
     30 CA         20.2578  -28.7914  -39.0470 C.3       4 UNK         0.0283 
     31 CB         19.2744  -28.7460  -37.8588 C.3       4 UNK        -0.1875 
     32 C          21.4763  -27.8647  -38.8387 C.2       4 UNK         0.4949 
     33 O          21.9940  -27.8025  -37.7226 O.2       4 UNK        -0.5039 
     34 N          21.9275  -27.1774  -39.8971 N.am      5 UNK        -0.4663 
     35 CA         23.1055  -26.3061  -39.8937 C.3       5 UNK         0.0242 
     36 CB         22.7565  -24.9727  -40.5751 C.3       5 UNK        -0.1982 
     37 C          24.2984  -26.9727  -40.5949 C.2       5 UNK         0.5017 
     38 O          25.4374  -26.7430  -40.1857 O.2       5 UNK        -0.5012 
     39 N          24.0266  -27.7824  -41.6289 N.am      6 UNK        -0.4439 
     40 CA         25.0193  -28.5973  -42.3335 C.3       6 UNK         0.0297 
     41 CB         24.4093  -29.0858  -43.6594 C.3       6 UNK        -0.2006 
     42 C          25.5098  -29.7853  -41.4838 C.2       6 UNK         0.4892 
     43 O          24.8439  -30.1786  -40.5234 O.2       6 UNK        -0.5089 
     44 N          26.6552  -30.3593  -41.8765 N.am      7 UNK        -0.4243 
     45 CA         27.2040  -31.5913  -41.3006 C.3       7 UNK         0.0196 
     46 CB         28.6274  -31.8123  -41.8367 C.3       7 UNK        -0.2007 
     47 C          26.3116  -32.8016  -41.6259 C.2       7 UNK         0.5020 
     48 O          25.7445  -32.8578  -42.7191 O.2       7 UNK        -0.5147 
     49 N          26.1818  -33.7305  -40.6674 N.am      8 UNK        -0.4734 
     50 CA         25.3423  -34.9467  -40.6655 C.3       8 UNK         0.0238 
     51 CB         25.7380  -35.9069  -41.8051 C.3       8 UNK        -0.1912 
     52 C          23.8184  -34.6942  -40.6596 C.2       8 UNK         0.5038 
     53 O          23.0804  -35.4964  -40.0864 O.2       8 UNK        -0.5046 
     54 N          23.3843  -33.5915  -41.2767 N.am      9 UNK        -0.4200 
     55 CA         22.0313  -33.0270  -41.2755 C.3       9 UNK         0.0839 
     56 C          21.5018  -32.7542  -39.8372 C.2       9 UNK         0.5513 
     57 N          20.2426  -33.0705  -39.5669 N.am      9 UNK        -0.7519 
     58 O          22.2110  -32.2331  -38.9795 O.2       9 UNK        -0.4960 
     59 C59        22.0368  -31.7508  -42.1552 C.3       10 UNK        -0.0876 
     60 S60        20.4081  -30.9894  -42.4288 S.3       10 UNK        -0.2414 
     61 C61        19.9257  -31.6486  -44.0572 C.3       10 UNK         0.0169 
     62 H62        15.3235  -21.9935  -46.6010 H         1 UNK         0.0903 
     63 H63        14.2494  -23.0432  -45.6743 H         1 UNK         0.0903 
     64 H64        15.3608  -21.9564  -44.8369 H         1 UNK         0.0903 
     65 H65        17.0935  -23.0672  -47.4319 H         1 UNK         0.3096 
     66 H66        18.7436  -24.4647  -47.7978 H         1 UNK         0.1121 
     67 H67        16.8169  -26.2147  -47.4977 H         1 UNK         0.0849 
     68 H68        17.5261  -26.5860  -45.9546 H         1 UNK         0.0849 
     69 H69        16.9641  -28.6853  -48.2302 H         1 UNK         0.0865 
     70 H70        18.4417  -29.5745  -48.4754 H         1 UNK         0.0865 
     71 H71        19.7765  -30.4054  -46.4936 H         1 UNK         0.1346 
     72 H72        17.5094  -31.1119  -42.9216 H         1 UNK         0.1412 
     73 H73        15.9130  -28.6102  -46.0125 H         1 UNK         0.1426 
     74 H74        14.8128  -30.4200  -43.3223 H         1 UNK         0.0716 
     75 H75        14.7142  -28.8005  -43.9734 H         1 UNK         0.0716 
     76 H76        16.5160  -26.4942  -41.7257 H         1 UNK         0.0695 
     77 H77        16.5868  -27.0843  -43.3575 H         1 UNK         0.0695 
     78 H78        18.5988  -28.5586  -42.5988 H         1 UNK         0.0983 
     79 H79        18.5801  -25.9333  -43.5085 H         1 UNK         0.3095 
     80 H80        21.0429  -24.6715  -43.7467 H         1 UNK         0.0454 
     81 H81        22.4020  -26.9595  -45.2725 H         1 UNK         0.0851 
     82 H82        23.1152  -26.0150  -43.9688 H         1 UNK         0.0851 
     83 H83        22.7447  -25.2460  -45.5014 H         1 UNK         0.0851 
     84 H84        19.8681  -26.4306  -45.8692 H         1 UNK         0.2976 
     85 H85        19.6949  -29.3486  -40.9915 H         1 UNK         0.3116 
     86 H86        20.6659  -29.8020  -39.0908 H         1 UNK         0.0646 
     87 H87        18.8803  -27.7427  -37.6961 H         1 UNK         0.0847 
     88 H88        18.4308  -29.4181  -38.0155 H         1 UNK         0.0847 
     89 H89        19.7636  -29.0543  -36.9341 H         1 UNK         0.0847 
     90 H90        21.4579  -27.3025  -40.7883 H         1 UNK         0.3040 
     91 H91        23.4098  -26.0878  -38.8675 H         1 UNK         0.1015 
     92 H92        23.6002  -24.2826  -40.5317 H         1 UNK         0.0786 
     93 H93        21.9136  -24.4860  -40.0839 H         1 UNK         0.0786 
     94 H94        22.5012  -25.1059  -41.6256 H         1 UNK         0.0786 
     95 H95        23.0600  -27.8993  -41.9105 H         1 UNK         0.3172 
     96 H96        25.8832  -27.9691  -42.5610 H         1 UNK         0.0595 
     97 H97        23.4483  -29.5778  -43.5107 H         1 UNK         0.0839 
     98 H98        25.0640  -29.7965  -44.1659 H         1 UNK         0.0839 
     99 H99        24.2529  -28.2557  -44.3466 H         1 UNK         0.0839 
    100 H100       27.1233  -29.9984  -42.6951 H         1 UNK         0.2998 
    101 H101       27.2522  -31.4659  -40.2166 H         1 UNK         0.0822 
    102 H102       29.0727  -32.7095  -41.4043 H         1 UNK         0.0787 
    103 H103       28.6358  -31.9352  -42.9208 H         1 UNK         0.0787 
    104 H104       29.2807  -30.9757  -41.5877 H         1 UNK         0.0787 
    105 H105       26.6753  -33.5660  -39.7997 H         1 UNK         0.3055 
    106 H106       25.5635  -35.4531  -39.7241 H         1 UNK         0.1106 
    107 H107       26.8017  -36.1426  -41.7745 H         1 UNK         0.0828 
    108 H108       25.1953  -36.8496  -41.7234 H         1 UNK         0.0828 
    109 H109       25.5138  -35.4919  -42.7880 H         1 UNK         0.0828 
    110 H110       24.0927  -33.0437  -41.7525 H         1 UNK         0.2931 
    111 H111       21.3837  -33.7668  -41.7498 H         1 UNK         0.0412 
    112 H112       19.8792  -32.8952  -38.6436 H         1 UNK         0.3472 
    113 H113       19.6485  -33.4801  -40.2707 H         1 UNK         0.3472 
    114 H114       22.6684  -30.9914  -41.6938 H         1 UNK         0.0970 
    115 H115       22.4912  -31.9637  -43.1242 H         1 UNK         0.0970 
    116 H116       20.7856  -31.6189  -44.7280 H         1 UNK         0.0612 
    117 H117       19.6353  -32.6950  -43.9555 H         1 UNK         0.0612 
@<TRIPOS>BOND
     1    1    2 1    
     2    1   62 1    
     3    1   63 1    
     4    1   64 1    
     5    2    3 2    
     6    2    4 am   BACKBONE|DICT|INTERRES
     7    4    5 1    
     8    4   65 1    
     9    5    6 1    
    10    5   25 1    
    11    5   66 1    
    12    6    7 1    
    13    6   67 1    
    14    6   68 1    
    15    7    8 1    
    16    8    9 1    
    17    8   69 1    
    18    8   70 1    
    19    9   10 ar   
    20    9   14 ar   
    21   10   11 ar   
    22   10   71 1    
    23   11   12 ar   
    24   11   61 1    
    25   12   13 ar   
    26   12   72 1    
    27   13   14 ar   
    28   13   15 1    
    29   14   73 1    
    30   15   16 1    
    31   15   74 1    
    32   15   75 1    
    33   16   17 1    
    34   17   18 1    
    35   17   76 1    
    36   17   77 1    
    37   18   19 1    
    38   18   27 1    
    39   18   78 1    
    40   19   20 am   BACKBONE|DICT|INTERRES
    41   19   79 1    
    42   20   21 2    
    43   20   22 1    
    44   22   23 1    
    45   22   24 1    
    46   22   80 1    
    47   23   81 1    
    48   23   82 1    
    49   23   83 1    
    50   24   25 am   BACKBONE|DICT|INTERRES
    51   24   84 1    
    52   25   26 2    
    53   27   28 2    
    54   27   29 am   BACKBONE|DICT|INTERRES
    55   29   30 1    
    56   29   85 1    
    57   30   31 1    
    58   30   32 1    
    59   30   86 1    
    60   31   87 1    
    61   31   88 1    
    62   31   89 1    
    63   32   33 2    
    64   32   34 am   BACKBONE|DICT|INTERRES
    65   34   35 1    
    66   34   90 1    
    67   35   36 1    
    68   35   37 1    
    69   35   91 1    
    70   36   92 1    
    71   36   93 1    
    72   36   94 1    
    73   37   38 2    
    74   37   39 am   BACKBONE|DICT|INTERRES
    75   39   40 1    
    76   39   95 1    
    77   40   41 1    
    78   40   42 1    
    79   40   96 1    
    80   41   97 1    
    81   41   98 1    
    82   41   99 1    
    83   42   43 2    
    84   42   44 am   BACKBONE|DICT|INTERRES
    85   44   45 1    
    86   44  100 1    
    87   45   46 1    
    88   45   47 1    
    89   45  101 1    
    90   46  102 1    
    91   46  103 1    
    92   46  104 1    
    93   47   48 2    
    94   47   49 am   BACKBONE|DICT|INTERRES
    95   49   50 1    
    96   49  105 1    
    97   50   51 1    
    98   50   52 1    
    99   50  106 1    
   100   51  107 1    
   101   51  108 1    
   102   51  109 1    
   103   52   53 2    
   104   52   54 am   BACKBONE|DICT|INTERRES
   105   54   55 1    
   106   54  110 1    
   107   55   56 1    
   108   55   59 1    
   109   55  111 1    
   110   56   57 am   BACKBONE|DICT|INTERRES
   111   56   58 2    
   112   57  112 1    
   113   57  113 1    
   114   59   60 1    
   115   59  114 1    
   116   59  115 1    
   117   60   61 1    
   118   61  116 1    
   119   61  117 1    
@<TRIPOS>SUBSTRUCTURE
     1 UNK         1 GROUP             0       ****    0 ROOT    
