@<TRIPOS>MOLECULE
3R8
117   119    1
SMALL
USER_CHARGES


@<TRIPOS>ATOM
      1 CA         17.8681  -20.7166  -44.8004 C.3       0 UNK        -0.2013 
      2 C          18.2693  -22.1245  -44.3876 C.2       0 UNK         0.4866 
      3 O          18.2597  -22.4419  -43.1972 O.2       0 UNK        -0.5176 
      4 N          18.6183  -22.9787  -45.3588 N.am      1 UNK        -0.4884 
      5 CA         19.0063  -24.3778  -45.1528 C.3       1 UNK         0.0853 
      6 C6         19.9255  -24.8782  -46.2969 C.3       10 UNK        -0.0849 
      7 S7         20.7768  -26.4365  -45.8640 S.3       10 UNK        -0.2776 
      8 C8         20.2433  -27.5589  -47.1996 C.3       10 UNK         0.0316 
      9 C9         19.9740  -28.9619  -46.6744 C.ar      10 UNK        -0.0863 
     10 C10        21.0161  -29.7373  -46.1573 C.ar      10 UNK        -0.1009 
     11 C11        20.7674  -31.0162  -45.6497 C.ar      10 UNK        -0.0712 
     12 C12        19.4657  -31.5263  -45.6751 C.ar      10 UNK        -0.0894 
     13 C13        18.4156  -30.7637  -46.1965 C.ar      10 UNK        -0.0745 
     14 C14        18.6784  -29.4863  -46.7030 C.ar      10 UNK        -0.0972 
     15 C15        16.9919  -31.3051  -46.1837 C.3       10 UNK         0.0209 
     16 S16        15.8686  -30.2674  -45.1896 S.3       10 UNK        -0.2568 
     17 C17        16.5938  -30.4041  -43.5181 C.3       10 UNK        -0.0983 
     18 CA         17.6492  -29.3026  -43.2138 C.3       3 UNK         0.0876 
     19 N          17.1685  -27.9407  -43.4774 N.am      3 UNK        -0.4424 
     20 C          16.2644  -27.2401  -42.7803 C.2       2 UNK         0.4918 
     21 O          15.7161  -27.6549  -41.7582 O.2       2 UNK        -0.4875 
     22 CA         15.9273  -25.8296  -43.3154 C.3       2 UNK         0.0481 
     23 CB         15.1738  -24.9725  -42.2814 C.3       2 UNK        -0.1831 
     24 N          17.1102  -25.0875  -43.7673 N.am      2 UNK        -0.4498 
     25 C          17.7568  -25.2588  -44.9276 C.2       1 UNK         0.5027 
     26 O          17.4003  -26.0726  -45.7814 O.2       1 UNK        -0.4969 
     27 C          18.2913  -29.4519  -41.8177 C.2       3 UNK         0.5005 
     28 O          18.0438  -30.4390  -41.1229 O.2       3 UNK        -0.5279 
     29 N          19.1157  -28.4679  -41.4352 N.am      4 UNK        -0.4463 
     30 CA         19.8122  -28.4076  -40.1497 C.3       4 UNK         0.0283 
     31 CB         18.8836  -27.8022  -39.0774 C.3       4 UNK        -0.1875 
     32 C          21.1394  -27.6477  -40.3007 C.2       4 UNK         0.4949 
     33 O          21.4559  -26.7882  -39.4766 O.2       4 UNK        -0.5039 
     34 N          21.8837  -27.9540  -41.3721 N.am      5 UNK        -0.4663 
     35 CA         23.1986  -27.3729  -41.6548 C.3       5 UNK         0.0242 
     36 CB         23.5249  -27.5773  -43.1444 C.3       5 UNK        -0.1982 
     37 C          24.3031  -27.9791  -40.7701 C.2       5 UNK         0.5017 
     38 O          24.0991  -29.0204  -40.1386 O.2       5 UNK        -0.5012 
     39 N          25.4831  -27.3415  -40.7985 N.am      6 UNK        -0.4439 
     40 CA         26.6992  -27.7147  -40.0592 C.3       6 UNK         0.0297 
     41 CB         27.7773  -26.6449  -40.3003 C.3       6 UNK        -0.2006 
     42 C          27.2591  -29.1196  -40.3672 C.2       6 UNK         0.4892 
     43 O          28.0823  -29.6185  -39.5995 O.2       6 UNK        -0.5089 
     44 N          26.7838  -29.7455  -41.4527 N.am      7 UNK        -0.4243 
     45 CA         27.0137  -31.1497  -41.8017 C.3       7 UNK         0.0196 
     46 CB         26.5871  -31.3643  -43.2643 C.3       7 UNK        -0.2007 
     47 C          26.2935  -32.1538  -40.8735 C.2       7 UNK         0.5020 
     48 O          26.5278  -33.3541  -41.0146 O.2       7 UNK        -0.5147 
     49 N          25.4389  -31.6612  -39.9609 N.am      8 UNK        -0.4734 
     50 CA         24.6057  -32.4078  -39.0094 C.3       8 UNK         0.0238 
     51 CB         25.4557  -33.2747  -38.0545 C.3       8 UNK        -0.1912 
     52 C          23.4947  -33.1884  -39.7305 C.2       8 UNK         0.5038 
     53 O          23.3302  -34.3911  -39.5150 O.2       8 UNK        -0.5046 
     54 N          22.7711  -32.4678  -40.5950 N.am      9 UNK        -0.4200 
     55 CA         21.6340  -32.9484  -41.3918 C.3       9 UNK         0.0839 
     56 C          20.4631  -33.4900  -40.5254 C.2       9 UNK         0.5513 
     57 N          19.7352  -34.4810  -41.0220 N.am      9 UNK        -0.7519 
     58 O          20.1890  -32.9983  -39.4324 O.2       9 UNK        -0.4960 
     59 C59        21.1274  -31.8408  -42.3491 C.3       10 UNK        -0.0876 
     60 S60        22.4399  -31.2180  -43.4525 S.3       10 UNK        -0.2414 
     61 C61        21.9108  -31.8409  -45.0775 C.3       10 UNK         0.0169 
     62 H62        17.9268  -20.5749  -45.8794 H         1 UNK         0.0903 
     63 H63        16.8451  -20.5113  -44.4862 H         1 UNK         0.0903 
     64 H64        18.5234  -19.9863  -44.3264 H         1 UNK         0.0903 
     65 H65        18.5778  -22.6734  -46.3216 H         1 UNK         0.3096 
     66 H66        19.5941  -24.4262  -44.2324 H         1 UNK         0.1121 
     67 H67        20.7051  -24.1392  -46.4893 H         1 UNK         0.0849 
     68 H68        19.3736  -24.9714  -47.2336 H         1 UNK         0.0849 
     69 H69        19.3487  -27.1694  -47.6870 H         1 UNK         0.0865 
     70 H70        21.0175  -27.5974  -47.9671 H         1 UNK         0.0865 
     71 H71        22.0204  -29.3363  -46.1309 H         1 UNK         0.1346 
     72 H72        19.2688  -32.5135  -45.2800 H         1 UNK         0.1412 
     73 H73        17.8637  -28.8910  -47.0937 H         1 UNK         0.1426 
     74 H74        16.9627  -32.3275  -45.8037 H         1 UNK         0.0716 
     75 H75        16.6196  -31.3467  -47.2081 H         1 UNK         0.0716 
     76 H76        17.0322  -31.3980  -43.4098 H         1 UNK         0.0695 
     77 H77        15.7773  -30.3522  -42.7957 H         1 UNK         0.0695 
     78 H78        18.4836  -29.4462  -43.8975 H         1 UNK         0.0983 
     79 H79        17.5029  -27.5185  -44.3366 H         1 UNK         0.3095 
     80 H80        15.2633  -25.9701  -44.1708 H         1 UNK         0.0454 
     81 H81        15.7678  -24.8140  -41.3805 H         1 UNK         0.0851 
     82 H82        14.2413  -25.4506  -41.9784 H         1 UNK         0.0851 
     83 H83        14.9143  -23.9952  -42.6886 H         1 UNK         0.0851 
     84 H84        17.4534  -24.3578  -43.1509 H         1 UNK         0.2976 
     85 H85        19.2742  -27.6906  -42.0623 H         1 UNK         0.3116 
     86 H86        20.0786  -29.4197  -39.8371 H         1 UNK         0.0646 
     87 H87        18.5927  -26.7817  -39.3289 H         1 UNK         0.0847 
     88 H88        19.3731  -27.7745  -38.1031 H         1 UNK         0.0847 
     89 H89        17.9728  -28.3901  -38.9624 H         1 UNK         0.0847 
     90 H90        21.5787  -28.6957  -41.9850 H         1 UNK         0.3040 
     91 H91        23.1508  -26.3002  -41.4527 H         1 UNK         0.1015 
     92 H92        22.7171  -27.2169  -43.7800 H         1 UNK         0.0786 
     93 H93        23.6959  -28.6258  -43.3853 H         1 UNK         0.0786 
     94 H94        24.4230  -27.0301  -43.4328 H         1 UNK         0.0786 
     95 H95        25.5551  -26.5075  -41.3645 H         1 UNK         0.3172 
     96 H96        26.4437  -27.7057  -38.9977 H         1 UNK         0.0595 
     97 H97        28.0573  -26.5838  -41.3528 H         1 UNK         0.0839 
     98 H98        28.6840  -26.8678  -39.7358 H         1 UNK         0.0839 
     99 H99        27.4388  -25.6583  -39.9830 H         1 UNK         0.0839 
    100 H100       26.1159  -29.2471  -42.0216 H         1 UNK         0.2998 
    101 H101       28.0843  -31.3491  -41.7216 H         1 UNK         0.0822 
    102 H102       27.1377  -30.7092  -43.9398 H         1 UNK         0.0787 
    103 H103       26.7799  -32.3896  -43.5833 H         1 UNK         0.0787 
    104 H104       25.5223  -31.1754  -43.4052 H         1 UNK         0.0787 
    105 H105       25.2700  -30.6596  -39.9748 H         1 UNK         0.3055 
    106 H106       24.0987  -31.6591  -38.3977 H         1 UNK         0.1106 
    107 H107       24.8337  -33.7106  -37.2718 H         1 UNK         0.0828 
    108 H108       25.9437  -34.1004  -38.5725 H         1 UNK         0.0828 
    109 H109       26.2278  -32.6829  -37.5629 H         1 UNK         0.0828 
    110 H110       23.0040  -31.4925  -40.7112 H         1 UNK         0.2931 
    111 H111       22.0083  -33.7756  -41.9985 H         1 UNK         0.0412 
    112 H112       18.9614  -34.8368  -40.4823 H         1 UNK         0.3472 
    113 H113       19.9501  -34.8907  -41.9178 H         1 UNK         0.3472 
    114 H114       20.2866  -32.2000  -42.9445 H         1 UNK         0.0970 
    115 H115       20.7485  -30.9979  -41.7718 H         1 UNK         0.0970 
    116 H116       21.6375  -32.8940  -44.9958 H         1 UNK         0.0612 
    117 H117       22.7600  -31.7973  -45.7610 H         1 UNK         0.0612 
@<TRIPOS>BOND
     1    1    2 1    
     2    1   62 1    
     3    1   63 1    
     4    1   64 1    
     5    2    3 2    
     6    2    4 am   BACKBONE|DICT|INTERRES
     7    4    5 1    
     8    4   65 1    
     9    5    6 1    
    10    5   25 1    
    11    5   66 1    
    12    6    7 1    
    13    6   67 1    
    14    6   68 1    
    15    7    8 1    
    16    8    9 1    
    17    8   69 1    
    18    8   70 1    
    19    9   10 ar   
    20    9   14 ar   
    21   10   11 ar   
    22   10   71 1    
    23   11   12 ar   
    24   11   61 1    
    25   12   13 ar   
    26   12   72 1    
    27   13   14 ar   
    28   13   15 1    
    29   14   73 1    
    30   15   16 1    
    31   15   74 1    
    32   15   75 1    
    33   16   17 1    
    34   17   18 1    
    35   17   76 1    
    36   17   77 1    
    37   18   19 1    
    38   18   27 1    
    39   18   78 1    
    40   19   20 am   BACKBONE|DICT|INTERRES
    41   19   79 1    
    42   20   21 2    
    43   20   22 1    
    44   22   23 1    
    45   22   24 1    
    46   22   80 1    
    47   23   81 1    
    48   23   82 1    
    49   23   83 1    
    50   24   25 am   BACKBONE|DICT|INTERRES
    51   24   84 1    
    52   25   26 2    
    53   27   28 2    
    54   27   29 am   BACKBONE|DICT|INTERRES
    55   29   30 1    
    56   29   85 1    
    57   30   31 1    
    58   30   32 1    
    59   30   86 1    
    60   31   87 1    
    61   31   88 1    
    62   31   89 1    
    63   32   33 2    
    64   32   34 am   BACKBONE|DICT|INTERRES
    65   34   35 1    
    66   34   90 1    
    67   35   36 1    
    68   35   37 1    
    69   35   91 1    
    70   36   92 1    
    71   36   93 1    
    72   36   94 1    
    73   37   38 2    
    74   37   39 am   BACKBONE|DICT|INTERRES
    75   39   40 1    
    76   39   95 1    
    77   40   41 1    
    78   40   42 1    
    79   40   96 1    
    80   41   97 1    
    81   41   98 1    
    82   41   99 1    
    83   42   43 2    
    84   42   44 am   BACKBONE|DICT|INTERRES
    85   44   45 1    
    86   44  100 1    
    87   45   46 1    
    88   45   47 1    
    89   45  101 1    
    90   46  102 1    
    91   46  103 1    
    92   46  104 1    
    93   47   48 2    
    94   47   49 am   BACKBONE|DICT|INTERRES
    95   49   50 1    
    96   49  105 1    
    97   50   51 1    
    98   50   52 1    
    99   50  106 1    
   100   51  107 1    
   101   51  108 1    
   102   51  109 1    
   103   52   53 2    
   104   52   54 am   BACKBONE|DICT|INTERRES
   105   54   55 1    
   106   54  110 1    
   107   55   56 1    
   108   55   59 1    
   109   55  111 1    
   110   56   57 am   BACKBONE|DICT|INTERRES
   111   56   58 2    
   112   57  112 1    
   113   57  113 1    
   114   59   60 1    
   115   59  114 1    
   116   59  115 1    
   117   60   61 1    
   118   61  116 1    
   119   61  117 1    
@<TRIPOS>SUBSTRUCTURE
     1 UNK         1 GROUP             0       ****    0 ROOT    
