@<TRIPOS>MOLECULE
3R8
117   119    1
SMALL
USER_CHARGES


@<TRIPOS>ATOM
      1 CA         22.2240  -29.2218  -47.9833 C.3       0 UNK        -0.2013 
      2 C          20.8901  -28.9425  -47.3067 C.2       0 UNK         0.4866 
      3 O          19.8516  -28.9725  -47.9666 O.2       0 UNK        -0.5176 
      4 N          20.9134  -28.6790  -45.9970 N.am      1 UNK        -0.4884 
      5 CA         19.7546  -28.4009  -45.1547 C.3       1 UNK         0.0853 
      6 C6         19.0331  -27.0800  -45.5432 C.3       10 UNK        -0.0849 
      7 S7         17.6051  -26.6264  -44.5000 S.3       10 UNK        -0.2776 
      8 C8         16.3983  -27.9334  -44.8994 C.3       10 UNK         0.0316 
      9 C9         16.4295  -29.0335  -43.8488 C.ar      10 UNK        -0.0863 
     10 C10        16.9235  -30.3069  -44.1464 C.ar      10 UNK        -0.1009 
     11 C11        17.0020  -31.2971  -43.1564 C.ar      10 UNK        -0.0712 
     12 C12        16.5267  -31.0022  -41.8711 C.ar      10 UNK        -0.0894 
     13 C13        15.9853  -29.7461  -41.5742 C.ar      10 UNK        -0.0745 
     14 C14        15.9457  -28.7678  -42.5677 C.ar      10 UNK        -0.0972 
     15 C15        15.3862  -29.4558  -40.2037 C.3       10 UNK         0.0209 
     16 S16        16.6219  -28.9292  -38.9748 S.3       10 UNK        -0.2568 
     17 C17        17.1164  -27.2663  -39.5573 C.3       10 UNK        -0.0983 
     18 CA         18.6514  -27.1703  -39.7326 C.3       3 UNK         0.0876 
     19 N          19.1490  -28.1538  -40.6962 N.am      3 UNK        -0.4424 
     20 C          20.3055  -28.8087  -40.5606 C.2       2 UNK         0.4918 
     21 O          21.0615  -28.6770  -39.5995 O.2       2 UNK        -0.4875 
     22 CA         20.6901  -29.7919  -41.6750 C.3       2 UNK         0.0481 
     23 CB         20.3735  -31.2247  -41.2221 C.3       2 UNK        -0.1831 
     24 N          20.0875  -29.5342  -42.9914 N.am      2 UNK        -0.4498 
     25 C          20.2715  -28.4151  -43.7085 C.2       1 UNK         0.5027 
     26 O          20.8635  -27.4257  -43.2782 O.2       1 UNK        -0.4969 
     27 C          19.1254  -25.7368  -40.0671 C.2       3 UNK         0.5005 
     28 O          18.8742  -24.8315  -39.2693 O.2       3 UNK        -0.5279 
     29 N          19.8084  -25.5454  -41.2071 N.am      4 UNK        -0.4463 
     30 CA         20.4322  -24.2840  -41.6166 C.3       4 UNK         0.0283 
     31 CB         19.9331  -23.8966  -43.0184 C.3       4 UNK        -0.1875 
     32 C          21.9645  -24.4038  -41.6012 C.2       4 UNK         0.4949 
     33 O          22.6371  -23.5180  -41.0727 O.2       4 UNK        -0.5039 
     34 N          22.4876  -25.4946  -42.1748 N.am      5 UNK        -0.4663 
     35 CA         23.9032  -25.8622  -42.1880 C.3       5 UNK         0.0242 
     36 CB         24.1415  -26.8003  -43.3874 C.3       5 UNK        -0.1982 
     37 C          24.3203  -26.5425  -40.8718 C.2       5 UNK         0.5017 
     38 O          23.4867  -26.7787  -39.9950 O.2       5 UNK        -0.5012 
     39 N          25.6088  -26.8910  -40.7649 N.am      6 UNK        -0.4439 
     40 CA         26.1909  -27.6337  -39.6425 C.3       6 UNK         0.0297 
     41 CB         27.7095  -27.3773  -39.6101 C.3       6 UNK        -0.2006 
     42 C          25.8455  -29.1364  -39.7119 C.2       6 UNK         0.4892 
     43 O          26.7370  -29.9627  -39.9111 O.2       6 UNK        -0.5089 
     44 N          24.5479  -29.4515  -39.5813 N.am      7 UNK        -0.4243 
     45 CA         23.9284  -30.7866  -39.5996 C.3       7 UNK         0.0196 
     46 CB         24.4610  -31.6611  -38.4449 C.3       7 UNK        -0.2007 
     47 C          23.9934  -31.5212  -40.9562 C.2       7 UNK         0.5020 
     48 O          23.6185  -32.6923  -41.0256 O.2       7 UNK        -0.5147 
     49 N          24.4379  -30.8371  -42.0164 N.am      8 UNK        -0.4734 
     50 CA         24.5635  -31.3781  -43.3669 C.3       8 UNK         0.0238 
     51 CB         25.7341  -30.6707  -44.0741 C.3       8 UNK        -0.1912 
     52 C          23.2487  -31.1982  -44.1391 C.2       8 UNK         0.5038 
     53 O          23.0225  -30.1197  -44.6909 O.2       8 UNK        -0.5046 
     54 N          22.4072  -32.2411  -44.1566 N.am      9 UNK        -0.4200 
     55 CA         21.2334  -32.3418  -45.0410 C.3       9 UNK         0.0839 
     56 C          21.6375  -32.6650  -46.5112 C.2       9 UNK         0.5513 
     57 N          20.7127  -32.5397  -47.4515 N.am      9 UNK        -0.7519 
     58 O          22.7679  -33.0473  -46.8079 O.2       9 UNK        -0.4960 
     59 C59        20.1722  -33.3373  -44.4863 C.3       10 UNK        -0.0876 
     60 S60        18.4682  -32.9098  -45.0036 S.3       10 UNK        -0.2414 
     61 C61        17.5374  -32.7069  -43.4371 C.3       10 UNK         0.0169 
     62 H62        22.4245  -28.4665  -48.7425 H         1 UNK         0.0903 
     63 H63        23.0507  -29.2171  -47.2728 H         1 UNK         0.0903 
     64 H64        22.2031  -30.1965  -48.4696 H         1 UNK         0.0903 
     65 H65        21.7904  -28.7774  -45.4887 H         1 UNK         0.3096 
     66 H66        19.0638  -29.2284  -45.2919 H         1 UNK         0.1121 
     67 H67        18.6790  -27.1289  -46.5731 H         1 UNK         0.0849 
     68 H68        19.7414  -26.2504  -45.5207 H         1 UNK         0.0849 
     69 H69        15.3998  -27.4946  -44.9266 H         1 UNK         0.0865 
     70 H70        16.5823  -28.3306  -45.8990 H         1 UNK         0.0865 
     71 H71        17.2403  -30.5191  -45.1568 H         1 UNK         0.1346 
     72 H72        16.5535  -31.7625  -41.1021 H         1 UNK         0.1412 
     73 H73        15.5274  -27.7941  -42.3515 H         1 UNK         0.1426 
     74 H74        14.8892  -30.3528  -39.8313 H         1 UNK         0.0716 
     75 H75        14.6086  -28.6939  -40.2791 H         1 UNK         0.0716 
     76 H76        16.7712  -26.5445  -38.8149 H         1 UNK         0.0695 
     77 H77        16.6038  -27.0122  -40.4843 H         1 UNK         0.0695 
     78 H78        19.0861  -27.3892  -38.7543 H         1 UNK         0.0983 
     79 H79        18.5601  -28.3523  -41.4923 H         1 UNK         0.3095 
     80 H80        21.7702  -29.7045  -41.8002 H         1 UNK         0.0454 
     81 H81        19.3036  -31.4258  -41.2299 H         1 UNK         0.0851 
     82 H82        20.7221  -31.4079  -40.2049 H         1 UNK         0.0851 
     83 H83        20.8721  -31.9561  -41.8514 H         1 UNK         0.0851 
     84 H84        19.5607  -30.2939  -43.3968 H         1 UNK         0.2976 
     85 H85        20.0039  -26.3493  -41.7936 H         1 UNK         0.3116 
     86 H86        20.1576  -23.4803  -40.9304 H         1 UNK         0.0646 
     87 H87        18.8499  -23.7761  -43.0332 H         1 UNK         0.0847 
     88 H88        20.1939  -24.6479  -43.7638 H         1 UNK         0.0847 
     89 H89        20.3706  -22.9510  -43.3408 H         1 UNK         0.0847 
     90 H90        21.8573  -26.1847  -42.5807 H         1 UNK         0.3040 
     91 H91        24.5040  -24.9587  -42.3135 H         1 UNK         0.1015 
     92 H92        25.2011  -27.0163  -43.5259 H         1 UNK         0.0786 
     93 H93        23.7847  -26.3541  -44.3161 H         1 UNK         0.0786 
     94 H94        23.6265  -27.7541  -43.2618 H         1 UNK         0.0786 
     95 H95        26.2317  -26.6820  -41.5322 H         1 UNK         0.3172 
     96 H96        25.7732  -27.2477  -38.7100 H         1 UNK         0.0595 
     97 H97        28.2002  -27.7242  -40.5204 H         1 UNK         0.0839 
     98 H98        28.1748  -27.8974  -38.7715 H         1 UNK         0.0839 
     99 H99        27.9310  -26.3163  -39.4923 H         1 UNK         0.0839 
    100 H100       23.8995  -28.6725  -39.4869 H         1 UNK         0.2998 
    101 H101       22.8694  -30.6179  -39.4074 H         1 UNK         0.0822 
    102 H102       24.3827  -31.1456  -37.4877 H         1 UNK         0.0787 
    103 H103       23.8901  -32.5866  -38.3588 H         1 UNK         0.0787 
    104 H104       25.5047  -31.9392  -38.5933 H         1 UNK         0.0787 
    105 H105       24.7066  -29.8738  -41.8844 H         1 UNK         0.3055 
    106 H106       24.8004  -32.4437  -43.3198 H         1 UNK         0.1106 
    107 H107       25.5852  -29.5919  -44.1342 H         1 UNK         0.0828 
    108 H108       25.8516  -31.0395  -45.0940 H         1 UNK         0.0828 
    109 H109       26.6757  -30.8489  -43.5544 H         1 UNK         0.0828 
    110 H110       22.6747  -33.0850  -43.6707 H         1 UNK         0.2931 
    111 H111       20.7777  -31.3517  -45.0595 H         1 UNK         0.0412 
    112 H112       20.9472  -32.7588  -48.4068 H         1 UNK         0.3472 
    113 H113       19.7706  -32.2695  -47.2131 H         1 UNK         0.3472 
    114 H114       20.3893  -34.3580  -44.8076 H         1 UNK         0.0970 
    115 H115       20.2090  -33.3752  -43.3999 H         1 UNK         0.0970 
    116 H116       18.1433  -33.0442  -42.5964 H         1 UNK         0.0612 
    117 H117       16.6827  -33.3834  -43.4758 H         1 UNK         0.0612 
@<TRIPOS>BOND
     1    1    2 1    
     2    1   62 1    
     3    1   63 1    
     4    1   64 1    
     5    2    3 2    
     6    2    4 am   BACKBONE|DICT|INTERRES
     7    4    5 1    
     8    4   65 1    
     9    5    6 1    
    10    5   25 1    
    11    5   66 1    
    12    6    7 1    
    13    6   67 1    
    14    6   68 1    
    15    7    8 1    
    16    8    9 1    
    17    8   69 1    
    18    8   70 1    
    19    9   10 ar   
    20    9   14 ar   
    21   10   11 ar   
    22   10   71 1    
    23   11   12 ar   
    24   11   61 1    
    25   12   13 ar   
    26   12   72 1    
    27   13   14 ar   
    28   13   15 1    
    29   14   73 1    
    30   15   16 1    
    31   15   74 1    
    32   15   75 1    
    33   16   17 1    
    34   17   18 1    
    35   17   76 1    
    36   17   77 1    
    37   18   19 1    
    38   18   27 1    
    39   18   78 1    
    40   19   20 am   BACKBONE|DICT|INTERRES
    41   19   79 1    
    42   20   21 2    
    43   20   22 1    
    44   22   23 1    
    45   22   24 1    
    46   22   80 1    
    47   23   81 1    
    48   23   82 1    
    49   23   83 1    
    50   24   25 am   BACKBONE|DICT|INTERRES
    51   24   84 1    
    52   25   26 2    
    53   27   28 2    
    54   27   29 am   BACKBONE|DICT|INTERRES
    55   29   30 1    
    56   29   85 1    
    57   30   31 1    
    58   30   32 1    
    59   30   86 1    
    60   31   87 1    
    61   31   88 1    
    62   31   89 1    
    63   32   33 2    
    64   32   34 am   BACKBONE|DICT|INTERRES
    65   34   35 1    
    66   34   90 1    
    67   35   36 1    
    68   35   37 1    
    69   35   91 1    
    70   36   92 1    
    71   36   93 1    
    72   36   94 1    
    73   37   38 2    
    74   37   39 am   BACKBONE|DICT|INTERRES
    75   39   40 1    
    76   39   95 1    
    77   40   41 1    
    78   40   42 1    
    79   40   96 1    
    80   41   97 1    
    81   41   98 1    
    82   41   99 1    
    83   42   43 2    
    84   42   44 am   BACKBONE|DICT|INTERRES
    85   44   45 1    
    86   44  100 1    
    87   45   46 1    
    88   45   47 1    
    89   45  101 1    
    90   46  102 1    
    91   46  103 1    
    92   46  104 1    
    93   47   48 2    
    94   47   49 am   BACKBONE|DICT|INTERRES
    95   49   50 1    
    96   49  105 1    
    97   50   51 1    
    98   50   52 1    
    99   50  106 1    
   100   51  107 1    
   101   51  108 1    
   102   51  109 1    
   103   52   53 2    
   104   52   54 am   BACKBONE|DICT|INTERRES
   105   54   55 1    
   106   54  110 1    
   107   55   56 1    
   108   55   59 1    
   109   55  111 1    
   110   56   57 am   BACKBONE|DICT|INTERRES
   111   56   58 2    
   112   57  112 1    
   113   57  113 1    
   114   59   60 1    
   115   59  114 1    
   116   59  115 1    
   117   60   61 1    
   118   61  116 1    
   119   61  117 1    
@<TRIPOS>SUBSTRUCTURE
     1 UNK         1 GROUP             0       ****    0 ROOT    
