@<TRIPOS>MOLECULE
3R8
117   119    1
SMALL
USER_CHARGES


@<TRIPOS>ATOM
      1 CA         23.7550  -23.5411  -48.9038 C.3       0 UNK        -0.2013 
      2 C          23.1490  -24.0857  -47.6189 C.2       0 UNK         0.4866 
      3 O          23.2871  -23.4637  -46.5650 O.2       0 UNK        -0.5176 
      4 N          22.4856  -25.2464  -47.6945 N.am      1 UNK        -0.4884 
      5 CA         21.7828  -25.8765  -46.5737 C.3       1 UNK         0.0853 
      6 C6         21.4991  -27.3694  -46.8699 C.3       10 UNK        -0.0849 
      7 S7         20.9098  -28.2827  -45.4052 S.3       10 UNK        -0.2776 
      8 C8         20.0696  -29.6831  -46.2003 C.3       10 UNK         0.0316 
      9 C9         19.2910  -30.4889  -45.1753 C.ar      10 UNK        -0.0863 
     10 C10        19.8672  -31.6053  -44.5614 C.ar      10 UNK        -0.1009 
     11 C11        19.1506  -32.3457  -43.6154 C.ar      10 UNK        -0.0712 
     12 C12        17.8507  -31.9504  -43.2806 C.ar      10 UNK        -0.0894 
     13 C13        17.2726  -30.8254  -43.8754 C.ar      10 UNK        -0.0745 
     14 C14        17.9895  -30.1099  -44.8371 C.ar      10 UNK        -0.0972 
     15 C15        15.8809  -30.3762  -43.4620 C.3       10 UNK         0.0209 
     16 S16        15.9410  -29.3880  -41.9341 S.3       10 UNK        -0.2568 
     17 C17        16.5449  -27.7702  -42.5337 C.3       10 UNK        -0.0983 
     18 CA         18.0904  -27.5775  -42.4508 C.3       3 UNK         0.0876 
     19 N          18.5779  -26.5659  -43.3979 N.am      3 UNK        -0.4424 
     20 C          18.2699  -25.2585  -43.3843 C.2       2 UNK         0.4918 
     21 O          17.4509  -24.7593  -42.6112 O.2       2 UNK        -0.4875 
     22 CA         18.9906  -24.3457  -44.3960 C.3       2 UNK         0.0481 
     23 CB         19.3757  -22.9913  -43.7720 C.3       2 UNK        -0.1831 
     24 N          20.1954  -24.9770  -44.9391 N.am      2 UNK        -0.4498 
     25 C          20.4884  -25.1028  -46.2394 C.2       1 UNK         0.5027 
     26 O          19.7799  -24.6740  -47.1544 O.2       1 UNK        -0.4969 
     27 C          18.6481  -27.3272  -41.0290 C.2       3 UNK         0.5005 
     28 O          19.7179  -26.7270  -40.8905 O.2       3 UNK        -0.5279 
     29 N          17.9468  -27.8202  -39.9992 N.am      4 UNK        -0.4463 
     30 CA         18.3174  -27.7867  -38.5820 C.3       4 UNK         0.0283 
     31 CB         18.2534  -26.3442  -38.0284 C.3       4 UNK        -0.1875 
     32 C          19.6642  -28.4963  -38.3456 C.2       4 UNK         0.4949 
     33 O          19.7002  -29.7250  -38.3841 O.2       4 UNK        -0.5039 
     34 N          20.7313  -27.7212  -38.1196 N.am      5 UNK        -0.4663 
     35 CA         22.0918  -28.2069  -37.8822 C.3       5 UNK         0.0242 
     36 CB         22.6974  -27.3956  -36.7222 C.3       5 UNK        -0.1982 
     37 C          22.9930  -28.1324  -39.1307 C.2       5 UNK         0.5017 
     38 O          24.1798  -28.4433  -39.0139 O.2       5 UNK        -0.5012 
     39 N          22.4614  -27.6953  -40.2824 N.am      6 UNK        -0.4439 
     40 CA         23.2141  -27.5817  -41.5347 C.3       6 UNK         0.0297 
     41 CB         22.5009  -26.5918  -42.4685 C.3       6 UNK        -0.2006 
     42 C          23.3950  -28.9389  -42.2381 C.2       6 UNK         0.4892 
     43 O          22.5483  -29.8265  -42.1058 O.2       6 UNK        -0.5089 
     44 N          24.4819  -29.0334  -43.0197 N.am      7 UNK        -0.4243 
     45 CA         24.8765  -30.1626  -43.8712 C.3       7 UNK         0.0196 
     46 CB         23.9307  -30.2686  -45.0893 C.3       7 UNK        -0.2007 
     47 C          25.0318  -31.4745  -43.0763 C.2       7 UNK         0.5020 
     48 O          25.6089  -31.4568  -41.9878 O.2       7 UNK        -0.5147 
     49 N          24.5208  -32.5885  -43.6196 N.am      8 UNK        -0.4734 
     50 CA         24.5547  -33.9235  -43.0078 C.3       8 UNK         0.0238 
     51 CB         24.0410  -34.9546  -44.0264 C.3       8 UNK        -0.1912 
     52 C          23.7659  -34.0339  -41.6890 C.2       8 UNK         0.5038 
     53 O          24.0429  -34.9365  -40.8981 O.2       8 UNK        -0.5046 
     54 N          22.8153  -33.1169  -41.4785 N.am      9 UNK        -0.4200 
     55 CA         22.0555  -32.9514  -40.2349 C.3       9 UNK         0.0839 
     56 C          22.7977  -32.0897  -39.1710 C.2       9 UNK         0.5513 
     57 N          23.9732  -31.5377  -39.4486 N.am      9 UNK        -0.7519 
     58 O          22.3130  -31.9483  -38.0521 O.2       9 UNK        -0.4960 
     59 C59        20.6250  -32.4271  -40.5336 C.3       10 UNK        -0.0876 
     60 S60        19.5466  -33.7415  -41.1987 S.3       10 UNK        -0.2414 
     61 C61        19.7715  -33.5974  -43.0042 C.3       10 UNK         0.0169 
     62 H62        23.3328  -22.5628  -49.1319 H         1 UNK         0.0903 
     63 H63        24.8332  -23.4294  -48.7923 H         1 UNK         0.0903 
     64 H64        23.5685  -24.1974  -49.7537 H         1 UNK         0.0903 
     65 H65        22.3741  -25.6954  -48.5927 H         1 UNK         0.3096 
     66 H66        22.4488  -25.8251  -45.7093 H         1 UNK         0.1121 
     67 H67        22.4104  -27.8607  -47.2151 H         1 UNK         0.0849 
     68 H68        20.7761  -27.4665  -47.6824 H         1 UNK         0.0849 
     69 H69        19.3914  -29.3192  -46.9737 H         1 UNK         0.0865 
     70 H70        20.8064  -30.3110  -46.7039 H         1 UNK         0.0865 
     71 H71        20.8717  -31.9023  -44.8283 H         1 UNK         0.1346 
     72 H72        17.2894  -32.5134  -42.5475 H         1 UNK         0.1412 
     73 H73        17.5458  -29.2397  -45.3017 H         1 UNK         0.1426 
     74 H74        15.2519  -31.2510  -43.2901 H         1 UNK         0.0716 
     75 H75        15.3987  -29.8078  -44.2589 H         1 UNK         0.0716 
     76 H76        16.0285  -26.9833  -41.9812 H         1 UNK         0.0695 
     77 H77        16.2147  -27.6566  -43.5673 H         1 UNK         0.0695 
     78 H78        18.5668  -28.5064  -42.7630 H         1 UNK         0.0983 
     79 H79        19.2566  -26.8945  -44.0705 H         1 UNK         0.3095 
     80 H80        18.2711  -24.1583  -45.1952 H         1 UNK         0.0454 
     81 H81        20.0480  -23.1172  -42.9225 H         1 UNK         0.0851 
     82 H82        18.4951  -22.4553  -43.4157 H         1 UNK         0.0851 
     83 H83        19.8703  -22.3468  -44.4988 H         1 UNK         0.0851 
     84 H84        20.8390  -25.3515  -44.2566 H         1 UNK         0.2976 
     85 H85        17.1102  -28.3456  -40.2248 H         1 UNK         0.3116 
     86 H86        17.5657  -28.3729  -38.0512 H         1 UNK         0.0646 
     87 H87        18.9187  -25.6604  -38.5560 H         1 UNK         0.0847 
     88 H88        18.5201  -26.3174  -36.9709 H         1 UNK         0.0847 
     89 H89        17.2438  -25.9421  -38.1116 H         1 UNK         0.0847 
     90 H90        20.6091  -26.7190  -38.1600 H         1 UNK         0.3040 
     91 H91        22.0631  -29.2559  -37.5794 H         1 UNK         0.1015 
     92 H92        22.7935  -26.3390  -36.9753 H         1 UNK         0.0786 
     93 H93        23.6921  -27.7610  -36.4631 H         1 UNK         0.0786 
     94 H94        22.0850  -27.4719  -35.8235 H         1 UNK         0.0786 
     95 H95        21.4708  -27.4714  -40.3251 H         1 UNK         0.3172 
     96 H96        24.2011  -27.1745  -41.3044 H         1 UNK         0.0595 
     97 H97        23.0879  -26.4145  -43.3700 H         1 UNK         0.0839 
     98 H98        22.3437  -25.6276  -41.9845 H         1 UNK         0.0839 
     99 H99        21.5298  -26.9754  -42.7797 H         1 UNK         0.0839 
    100 H100       25.1232  -28.2528  -43.0242 H         1 UNK         0.2998 
    101 H101       25.8723  -29.9255  -44.2483 H         1 UNK         0.0822 
    102 H102       24.2854  -31.0024  -45.8139 H         1 UNK         0.0787 
    103 H103       22.9183  -30.5453  -44.7940 H         1 UNK         0.0787 
    104 H104       23.8680  -29.3160  -45.6151 H         1 UNK         0.0787 
    105 H105       24.0684  -32.5136  -44.5194 H         1 UNK         0.3055 
    106 H106       25.5964  -34.1565  -42.7755 H         1 UNK         0.1106 
    107 H107       24.0780  -35.9637  -43.6130 H         1 UNK         0.0828 
    108 H108       23.0072  -34.7593  -44.3141 H         1 UNK         0.0828 
    109 H109       24.6485  -34.9569  -44.9316 H         1 UNK         0.0828 
    110 H110       22.7021  -32.3774  -42.1576 H         1 UNK         0.2931 
    111 H111       21.9513  -33.9329  -39.7680 H         1 UNK         0.0412 
    112 H112       24.3938  -31.6276  -40.3662 H         1 UNK         0.3472 
    113 H113       24.4221  -30.9612  -38.7546 H         1 UNK         0.3472 
    114 H114       20.6460  -31.5700  -41.2094 H         1 UNK         0.0970 
    115 H115       20.1453  -32.0712  -39.6203 H         1 UNK         0.0970 
    116 H116       20.8339  -33.6588  -43.2391 H         1 UNK         0.0612 
    117 H117       19.3090  -34.4665  -43.4734 H         1 UNK         0.0612 
@<TRIPOS>BOND
     1    1    2 1    
     2    1   62 1    
     3    1   63 1    
     4    1   64 1    
     5    2    3 2    
     6    2    4 am   BACKBONE|DICT|INTERRES
     7    4    5 1    
     8    4   65 1    
     9    5    6 1    
    10    5   25 1    
    11    5   66 1    
    12    6    7 1    
    13    6   67 1    
    14    6   68 1    
    15    7    8 1    
    16    8    9 1    
    17    8   69 1    
    18    8   70 1    
    19    9   10 ar   
    20    9   14 ar   
    21   10   11 ar   
    22   10   71 1    
    23   11   12 ar   
    24   11   61 1    
    25   12   13 ar   
    26   12   72 1    
    27   13   14 ar   
    28   13   15 1    
    29   14   73 1    
    30   15   16 1    
    31   15   74 1    
    32   15   75 1    
    33   16   17 1    
    34   17   18 1    
    35   17   76 1    
    36   17   77 1    
    37   18   19 1    
    38   18   27 1    
    39   18   78 1    
    40   19   20 am   BACKBONE|DICT|INTERRES
    41   19   79 1    
    42   20   21 2    
    43   20   22 1    
    44   22   23 1    
    45   22   24 1    
    46   22   80 1    
    47   23   81 1    
    48   23   82 1    
    49   23   83 1    
    50   24   25 am   BACKBONE|DICT|INTERRES
    51   24   84 1    
    52   25   26 2    
    53   27   28 2    
    54   27   29 am   BACKBONE|DICT|INTERRES
    55   29   30 1    
    56   29   85 1    
    57   30   31 1    
    58   30   32 1    
    59   30   86 1    
    60   31   87 1    
    61   31   88 1    
    62   31   89 1    
    63   32   33 2    
    64   32   34 am   BACKBONE|DICT|INTERRES
    65   34   35 1    
    66   34   90 1    
    67   35   36 1    
    68   35   37 1    
    69   35   91 1    
    70   36   92 1    
    71   36   93 1    
    72   36   94 1    
    73   37   38 2    
    74   37   39 am   BACKBONE|DICT|INTERRES
    75   39   40 1    
    76   39   95 1    
    77   40   41 1    
    78   40   42 1    
    79   40   96 1    
    80   41   97 1    
    81   41   98 1    
    82   41   99 1    
    83   42   43 2    
    84   42   44 am   BACKBONE|DICT|INTERRES
    85   44   45 1    
    86   44  100 1    
    87   45   46 1    
    88   45   47 1    
    89   45  101 1    
    90   46  102 1    
    91   46  103 1    
    92   46  104 1    
    93   47   48 2    
    94   47   49 am   BACKBONE|DICT|INTERRES
    95   49   50 1    
    96   49  105 1    
    97   50   51 1    
    98   50   52 1    
    99   50  106 1    
   100   51  107 1    
   101   51  108 1    
   102   51  109 1    
   103   52   53 2    
   104   52   54 am   BACKBONE|DICT|INTERRES
   105   54   55 1    
   106   54  110 1    
   107   55   56 1    
   108   55   59 1    
   109   55  111 1    
   110   56   57 am   BACKBONE|DICT|INTERRES
   111   56   58 2    
   112   57  112 1    
   113   57  113 1    
   114   59   60 1    
   115   59  114 1    
   116   59  115 1    
   117   60   61 1    
   118   61  116 1    
   119   61  117 1    
@<TRIPOS>SUBSTRUCTURE
     1 UNK         1 GROUP             0       ****    0 ROOT    
