@<TRIPOS>MOLECULE
3R8
117   119    1
SMALL
USER_CHARGES


@<TRIPOS>ATOM
      1 CA         16.2325  -22.7409  -42.6335 C.3       0 UNK        -0.2013 
      2 C          16.5916  -24.1255  -43.1506 C.2       0 UNK         0.4866 
      3 O          17.3674  -24.2447  -44.0997 O.2       0 UNK        -0.5176 
      4 N          16.0473  -25.1793  -42.5278 N.am      1 UNK        -0.4884 
      5 CA         16.2745  -26.5896  -42.8744 C.3       1 UNK         0.0853 
      6 C6         15.0532  -27.4665  -42.4718 C.3       10 UNK        -0.0849 
      7 S7         14.5720  -28.6589  -43.7633 S.3       10 UNK        -0.2776 
      8 C8         15.6445  -30.0914  -43.3927 C.3       10 UNK         0.0316 
      9 C9         16.9448  -30.1753  -44.1979 C.ar      10 UNK        -0.0863 
     10 C10        17.9246  -31.0794  -43.7749 C.ar      10 UNK        -0.1009 
     11 C11        19.1008  -31.2617  -44.5079 C.ar      10 UNK        -0.0712 
     12 C12        19.3048  -30.5204  -45.6744 C.ar      10 UNK        -0.0894 
     13 C13        18.3360  -29.6160  -46.1180 C.ar      10 UNK        -0.0745 
     14 C14        17.1635  -29.4444  -45.3753 C.ar      10 UNK        -0.0972 
     15 C15        18.5135  -28.8821  -47.4408 C.3       10 UNK         0.0209 
     16 S16        19.1795  -27.2028  -47.2278 S.3       10 UNK        -0.2568 
     17 C17        20.9562  -27.5329  -46.9701 C.3       10 UNK        -0.0983 
     18 CA         21.5387  -26.7046  -45.8026 C.3       3 UNK         0.0876 
     19 N          20.8267  -26.9460  -44.5450 N.am      3 UNK        -0.4424 
     20 C          21.0292  -26.2808  -43.4006 C.2       2 UNK         0.4918 
     21 O          21.8652  -25.3841  -43.2651 O.2       2 UNK        -0.4875 
     22 CA         20.0775  -26.6366  -42.2524 C.3       2 UNK         0.0481 
     23 CB         20.3277  -25.8066  -40.9773 C.3       2 UNK        -0.1831 
     24 N          18.7083  -26.4286  -42.7135 N.am      2 UNK        -0.4498 
     25 C          17.6216  -27.0804  -42.2897 C.2       1 UNK         0.5027 
     26 O          17.6550  -27.9777  -41.4459 O.2       1 UNK        -0.4969 
     27 C          23.0502  -26.9617  -45.6493 C.2       3 UNK         0.5005 
     28 O          23.4397  -27.9311  -44.9945 O.2       3 UNK        -0.5279 
     29 N          23.8706  -26.0674  -46.2229 N.am      4 UNK        -0.4463 
     30 CA         25.3404  -26.0408  -46.1353 C.3       4 UNK         0.0283 
     31 CB         25.9518  -27.2333  -46.9019 C.3       4 UNK        -0.1875 
     32 C          25.8768  -25.9351  -44.6892 C.2       4 UNK         0.4949 
     33 O          27.0028  -26.3577  -44.4244 O.2       4 UNK        -0.5039 
     34 N          25.0513  -25.3865  -43.7831 N.am      5 UNK        -0.4663 
     35 CA         25.2506  -25.2752  -42.3335 C.3       5 UNK         0.0242 
     36 CB         26.4461  -24.3545  -42.0051 C.3       5 UNK        -0.1982 
     37 C          25.3226  -26.6341  -41.6042 C.2       5 UNK         0.5017 
     38 O          25.8689  -26.6947  -40.5007 O.2       5 UNK        -0.5012 
     39 N          24.7670  -27.6967  -42.2072 N.am      6 UNK        -0.4439 
     40 CA         24.6404  -29.0185  -41.5905 C.3       6 UNK         0.0297 
     41 CB         24.3034  -30.0539  -42.6746 C.3       6 UNK        -0.2006 
     42 C          23.5615  -29.0189  -40.4950 C.2       6 UNK         0.4892 
     43 O          22.5831  -28.2772  -40.5979 O.2       6 UNK        -0.5089 
     44 N          23.7461  -29.8721  -39.4844 N.am      7 UNK        -0.4243 
     45 CA         22.8054  -30.0921  -38.3898 C.3       7 UNK         0.0196 
     46 CB         23.2815  -29.3368  -37.1377 C.3       7 UNK        -0.2007 
     47 C          22.7232  -31.5977  -38.1288 C.2       7 UNK         0.5020 
     48 O          23.7238  -32.2972  -38.3056 O.2       7 UNK        -0.5147 
     49 N          21.5311  -32.0642  -37.7280 N.am      8 UNK        -0.4734 
     50 CA         21.1652  -33.4716  -37.4895 C.3       8 UNK         0.0238 
     51 CB         21.9241  -34.0350  -36.2684 C.3       8 UNK        -0.1912 
     52 C          21.3025  -34.3722  -38.7381 C.2       8 UNK         0.5038 
     53 O          21.4744  -35.5851  -38.6035 O.2       8 UNK        -0.5046 
     54 N          21.2266  -33.7613  -39.9273 N.am      9 UNK        -0.4200 
     55 CA         21.3800  -34.4091  -41.2363 C.3       9 UNK         0.0839 
     56 C          20.1239  -35.1742  -41.7453 C.2       9 UNK         0.5513 
     57 N          18.9756  -35.0871  -41.0844 N.am      9 UNK        -0.7519 
     58 O          20.1985  -35.8707  -42.7542 O.2       9 UNK        -0.4960 
     59 C59        21.9465  -33.4161  -42.2871 C.3       10 UNK        -0.0876 
     60 S60        20.9385  -31.9069  -42.5198 S.3       10 UNK        -0.2414 
     61 C61        20.1087  -32.3197  -44.0843 C.3       10 UNK         0.0169 
     62 H62        15.7705  -22.1533  -43.4264 H         1 UNK         0.0903 
     63 H63        15.5373  -22.7852  -41.7954 H         1 UNK         0.0903 
     64 H64        17.1306  -22.2200  -42.3026 H         1 UNK         0.0903 
     65 H65        15.4501  -25.0199  -41.7281 H         1 UNK         0.3096 
     66 H66        16.3809  -26.6411  -43.9611 H         1 UNK         0.1121 
     67 H67        14.1739  -26.8354  -42.3314 H         1 UNK         0.0849 
     68 H68        15.1762  -27.9713  -41.5123 H         1 UNK         0.0849 
     69 H69        15.8703  -30.1091  -42.3253 H         1 UNK         0.0865 
     70 H70        15.0706  -30.9969  -43.5942 H         1 UNK         0.0865 
     71 H71        17.7623  -31.6697  -42.8829 H         1 UNK         0.1346 
     72 H72        20.2004  -30.6793  -46.2590 H         1 UNK         0.1412 
     73 H73        16.4123  -28.7622  -45.7465 H         1 UNK         0.1426 
     74 H74        17.5487  -28.8090  -47.9451 H         1 UNK         0.0716 
     75 H75        19.1583  -29.4494  -48.1141 H         1 UNK         0.0716 
     76 H76        21.4739  -27.2963  -47.9017 H         1 UNK         0.0695 
     77 H77        21.1183  -28.5972  -46.7968 H         1 UNK         0.0695 
     78 H78        21.3987  -25.6472  -46.0382 H         1 UNK         0.0983 
     79 H79        20.1150  -27.6616  -44.5727 H         1 UNK         0.3095 
     80 H80        20.2321  -27.6930  -42.0230 H         1 UNK         0.0454 
     81 H81        20.1421  -24.7453  -41.1451 H         1 UNK         0.0851 
     82 H82        21.3597  -25.9079  -40.6400 H         1 UNK         0.0851 
     83 H83        19.6878  -26.1357  -40.1589 H         1 UNK         0.0851 
     84 H84        18.5717  -25.6807  -43.3891 H         1 UNK         0.2976 
     85 H85        23.4574  -25.2986  -46.7343 H         1 UNK         0.3116 
     86 H86        25.6591  -25.1273  -46.6395 H         1 UNK         0.0646 
     87 H87        25.5707  -27.2885  -47.9214 H         1 UNK         0.0847 
     88 H88        25.7365  -28.1830  -46.4110 H         1 UNK         0.0847 
     89 H89        27.0366  -27.1424  -46.9689 H         1 UNK         0.0847 
     90 H90        24.1346  -25.1009  -44.1036 H         1 UNK         0.3040 
     91 H91        24.3515  -24.7906  -41.9487 H         1 UNK         0.1015 
     92 H92        27.3974  -24.8097  -42.2818 H         1 UNK         0.0786 
     93 H93        26.4908  -24.1368  -40.9373 H         1 UNK         0.0786 
     94 H94        26.3663  -23.3995  -42.5243 H         1 UNK         0.0786 
     95 H95        24.3182  -27.5746  -43.1093 H         1 UNK         0.3172 
     96 H96        25.6015  -29.2832  -41.1443 H         1 UNK         0.0595 
     97 H97        24.2945  -31.0627  -42.2618 H         1 UNK         0.0839 
     98 H98        25.0350  -30.0395  -43.4827 H         1 UNK         0.0839 
     99 H99        23.3199  -29.8730  -43.1114 H         1 UNK         0.0839 
    100 H100       24.5329  -30.5087  -39.4982 H         1 UNK         0.2998 
    101 H101       21.8118  -29.7342  -38.6701 H         1 UNK         0.0822 
    102 H102       23.3380  -28.2638  -37.3223 H         1 UNK         0.0787 
    103 H103       22.5944  -29.4877  -36.3041 H         1 UNK         0.0787 
    104 H104       24.2677  -29.6732  -36.8148 H         1 UNK         0.0787 
    105 H105       20.7790  -31.3983  -37.6069 H         1 UNK         0.3055 
    106 H106       20.1022  -33.4744  -37.2422 H         1 UNK         0.1106 
    107 H107       22.9916  -34.1375  -36.4659 H         1 UNK         0.0828 
    108 H108       21.5498  -35.0223  -35.9947 H         1 UNK         0.0828 
    109 H109       21.8045  -33.3934  -35.3955 H         1 UNK         0.0828 
    110 H110       21.0631  -32.7659  -39.9507 H         1 UNK         0.2931 
    111 H111       22.1417  -35.1819  -41.1144 H         1 UNK         0.0412 
    112 H112       18.1717  -35.5934  -41.4210 H         1 UNK         0.3472 
    113 H113       18.9049  -34.5197  -40.2556 H         1 UNK         0.3472 
    114 H114       22.1027  -33.9150  -43.2455 H         1 UNK         0.0970 
    115 H115       22.9403  -33.0975  -41.9700 H         1 UNK         0.0970 
    116 H116       20.8651  -32.4621  -44.8577 H         1 UNK         0.0612 
    117 H117       19.5907  -33.2737  -43.9800 H         1 UNK         0.0612 
@<TRIPOS>BOND
     1    1    2 1    
     2    1   62 1    
     3    1   63 1    
     4    1   64 1    
     5    2    3 2    
     6    2    4 am   BACKBONE|DICT|INTERRES
     7    4    5 1    
     8    4   65 1    
     9    5    6 1    
    10    5   25 1    
    11    5   66 1    
    12    6    7 1    
    13    6   67 1    
    14    6   68 1    
    15    7    8 1    
    16    8    9 1    
    17    8   69 1    
    18    8   70 1    
    19    9   10 ar   
    20    9   14 ar   
    21   10   11 ar   
    22   10   71 1    
    23   11   12 ar   
    24   11   61 1    
    25   12   13 ar   
    26   12   72 1    
    27   13   14 ar   
    28   13   15 1    
    29   14   73 1    
    30   15   16 1    
    31   15   74 1    
    32   15   75 1    
    33   16   17 1    
    34   17   18 1    
    35   17   76 1    
    36   17   77 1    
    37   18   19 1    
    38   18   27 1    
    39   18   78 1    
    40   19   20 am   BACKBONE|DICT|INTERRES
    41   19   79 1    
    42   20   21 2    
    43   20   22 1    
    44   22   23 1    
    45   22   24 1    
    46   22   80 1    
    47   23   81 1    
    48   23   82 1    
    49   23   83 1    
    50   24   25 am   BACKBONE|DICT|INTERRES
    51   24   84 1    
    52   25   26 2    
    53   27   28 2    
    54   27   29 am   BACKBONE|DICT|INTERRES
    55   29   30 1    
    56   29   85 1    
    57   30   31 1    
    58   30   32 1    
    59   30   86 1    
    60   31   87 1    
    61   31   88 1    
    62   31   89 1    
    63   32   33 2    
    64   32   34 am   BACKBONE|DICT|INTERRES
    65   34   35 1    
    66   34   90 1    
    67   35   36 1    
    68   35   37 1    
    69   35   91 1    
    70   36   92 1    
    71   36   93 1    
    72   36   94 1    
    73   37   38 2    
    74   37   39 am   BACKBONE|DICT|INTERRES
    75   39   40 1    
    76   39   95 1    
    77   40   41 1    
    78   40   42 1    
    79   40   96 1    
    80   41   97 1    
    81   41   98 1    
    82   41   99 1    
    83   42   43 2    
    84   42   44 am   BACKBONE|DICT|INTERRES
    85   44   45 1    
    86   44  100 1    
    87   45   46 1    
    88   45   47 1    
    89   45  101 1    
    90   46  102 1    
    91   46  103 1    
    92   46  104 1    
    93   47   48 2    
    94   47   49 am   BACKBONE|DICT|INTERRES
    95   49   50 1    
    96   49  105 1    
    97   50   51 1    
    98   50   52 1    
    99   50  106 1    
   100   51  107 1    
   101   51  108 1    
   102   51  109 1    
   103   52   53 2    
   104   52   54 am   BACKBONE|DICT|INTERRES
   105   54   55 1    
   106   54  110 1    
   107   55   56 1    
   108   55   59 1    
   109   55  111 1    
   110   56   57 am   BACKBONE|DICT|INTERRES
   111   56   58 2    
   112   57  112 1    
   113   57  113 1    
   114   59   60 1    
   115   59  114 1    
   116   59  115 1    
   117   60   61 1    
   118   61  116 1    
   119   61  117 1    
@<TRIPOS>SUBSTRUCTURE
     1 UNK         1 GROUP             0       ****    0 ROOT    
