@<TRIPOS>MOLECULE
3R8
117   119    1
SMALL
USER_CHARGES


@<TRIPOS>ATOM
      1 CA         16.3924  -27.3762  -40.5669 C.3       0 UNK        -0.2013 
      2 C          16.3936  -26.2030  -41.5356 C.2       0 UNK         0.4866 
      3 O          16.2883  -25.0536  -41.1081 O.2       0 UNK        -0.5176 
      4 N          16.5142  -26.4904  -42.8372 N.am      1 UNK        -0.4884 
      5 CA         16.6545  -25.5071  -43.9171 C.3       1 UNK         0.0853 
      6 C6         16.5217  -26.1367  -45.3267 C.3       10 UNK        -0.0849 
      7 S7         14.8280  -26.6826  -45.7380 S.3       10 UNK        -0.2776 
      8 C8         14.6204  -28.2703  -44.8556 C.3       10 UNK         0.0316 
      9 C9         15.8121  -29.2177  -44.9580 C.ar      10 UNK        -0.0863 
     10 C10        16.3037  -29.8375  -43.8055 C.ar      10 UNK        -0.1009 
     11 C11        17.3799  -30.7259  -43.8775 C.ar      10 UNK        -0.0712 
     12 C12        17.9701  -30.9942  -45.1153 C.ar      10 UNK        -0.0894 
     13 C13        17.4931  -30.3769  -46.2746 C.ar      10 UNK        -0.0745 
     14 C14        16.4061  -29.5015  -46.1924 C.ar      10 UNK        -0.0972 
     15 C15        18.1351  -30.6650  -47.6222 C.3       10 UNK         0.0209 
     16 S16        19.3323  -29.3751  -48.0865 S.3       10 UNK        -0.2568 
     17 C17        20.8055  -29.8438  -47.1168 C.3       10 UNK        -0.0983 
     18 CA         21.3968  -28.6434  -46.3342 C.3       3 UNK         0.0876 
     19 N          20.4892  -28.1663  -45.2857 N.am      3 UNK        -0.4424 
     20 C          20.4962  -26.9300  -44.7740 C.2       2 UNK         0.4918 
     21 O          21.2578  -26.0348  -45.1507 O.2       2 UNK        -0.4875 
     22 CA         19.5281  -26.6653  -43.6171 C.3       2 UNK         0.0481 
     23 CB         20.2212  -26.9790  -42.2822 C.3       2 UNK        -0.1831 
     24 N          19.1504  -25.2507  -43.6201 N.am      2 UNK        -0.4498 
     25 C          17.9542  -24.6714  -43.8123 C.2       1 UNK         0.5027 
     26 O          17.8617  -23.4481  -43.9061 O.2       1 UNK        -0.4969 
     27 C          22.7902  -28.9522  -45.7413 C.2       3 UNK         0.5005 
     28 O          23.1911  -30.1164  -45.6781 O.2       3 UNK        -0.5279 
     29 N          23.4910  -27.8915  -45.3124 N.am      4 UNK        -0.4463 
     30 CA         24.8299  -27.8810  -44.7150 C.3       4 UNK         0.0283 
     31 CB         25.8940  -28.2670  -45.7690 C.3       4 UNK        -0.1875 
     32 C          24.8917  -28.7057  -43.4127 C.2       4 UNK         0.4949 
     33 O          23.9952  -28.5719  -42.5763 O.2       4 UNK        -0.5039 
     34 N          25.9602  -29.5019  -43.2440 N.am      5 UNK        -0.4663 
     35 CA         26.2186  -30.4334  -42.1342 C.3       5 UNK         0.0242 
     36 CB         25.2262  -31.6131  -42.2014 C.3       5 UNK        -0.1982 
     37 C          26.2343  -29.7678  -40.7431 C.2       5 UNK         0.5017 
     38 O          25.8557  -30.4035  -39.7596 O.2       5 UNK        -0.5012 
     39 N          26.6220  -28.4832  -40.6887 N.am      6 UNK        -0.4439 
     40 CA         26.5826  -27.5999  -39.5123 C.3       6 UNK         0.0297 
     41 CB         27.6521  -28.0218  -38.4822 C.3       6 UNK        -0.2006 
     42 C          25.1732  -27.4751  -38.8886 C.2       6 UNK         0.4892 
     43 O          25.0541  -27.3130  -37.6735 O.2       6 UNK        -0.5089 
     44 N          24.1383  -27.5834  -39.7375 N.am      7 UNK        -0.4243 
     45 CA         22.7069  -27.6360  -39.4208 C.3       7 UNK         0.0196 
     46 CB         22.2311  -26.3726  -38.6734 C.3       7 UNK        -0.2007 
     47 C          22.2495  -28.9406  -38.7377 C.2       7 UNK         0.5020 
     48 O          21.0841  -29.0320  -38.3523 O.2       7 UNK        -0.5147 
     49 N          23.1236  -29.9536  -38.6538 N.am      8 UNK        -0.4734 
     50 CA         22.8007  -31.3123  -38.2092 C.3       8 UNK         0.0238 
     51 CB         23.9226  -31.8238  -37.2861 C.3       8 UNK        -0.1912 
     52 C          22.5738  -32.2179  -39.4343 C.2       8 UNK         0.5038 
     53 O          23.1377  -33.3108  -39.5156 O.2       8 UNK        -0.5046 
     54 N          21.7732  -31.7188  -40.3830 N.am      9 UNK        -0.4200 
     55 CA         21.3839  -32.3822  -41.6320 C.3       9 UNK         0.0839 
     56 C          20.5251  -33.6613  -41.4201 C.2       9 UNK         0.5513 
     57 N          20.5077  -34.5578  -42.3974 N.am      9 UNK        -0.7519 
     58 O          19.8536  -33.8359  -40.4049 O.2       9 UNK        -0.4960 
     59 C59        20.7171  -31.3718  -42.6062 C.3       10 UNK        -0.0876 
     60 S60        19.2781  -30.4999  -41.8854 S.3       10 UNK        -0.2414 
     61 C61        17.8837  -31.4080  -42.6165 C.3       10 UNK         0.0169 
     62 H62        16.7967  -28.2802  -41.0223 H         1 UNK         0.0903 
     63 H63        17.0035  -27.1440  -39.6949 H         1 UNK         0.0903 
     64 H64        15.3781  -27.5837  -40.2272 H         1 UNK         0.0903 
     65 H65        16.5875  -27.4547  -43.1253 H         1 UNK         0.3096 
     66 H66        15.8320  -24.7976  -43.7990 H         1 UNK         0.1121 
     67 H67        16.7839  -25.3998  -46.0889 H         1 UNK         0.0849 
     68 H68        17.2270  -26.9540  -45.4715 H         1 UNK         0.0849 
     69 H69        13.7418  -28.7761  -45.2580 H         1 UNK         0.0865 
     70 H70        14.3858  -28.0540  -43.8124 H         1 UNK         0.0865 
     71 H71        15.8367  -29.6471  -42.8488 H         1 UNK         0.1346 
     72 H72        18.7938  -31.6907  -45.1785 H         1 UNK         0.1412 
     73 H73        16.0290  -29.0310  -47.0905 H         1 UNK         0.1426 
     74 H74        17.3605  -30.7140  -48.3891 H         1 UNK         0.0716 
     75 H75        18.6220  -31.6415  -47.6231 H         1 UNK         0.0716 
     76 H76        21.5380  -30.2354  -47.8254 H         1 UNK         0.0695 
     77 H77        20.5718  -30.6664  -46.4400 H         1 UNK         0.0695 
     78 H78        21.5443  -27.8356  -47.0555 H         1 UNK         0.0983 
     79 H79        19.8436  -28.8498  -44.9177 H         1 UNK         0.3095 
     80 H80        18.6807  -27.3350  -43.7411 H         1 UNK         0.0454 
     81 H81        20.6503  -27.9809  -42.2841 H         1 UNK         0.0851 
     82 H82        19.5217  -26.9254  -41.4481 H         1 UNK         0.0851 
     83 H83        21.0371  -26.2838  -42.0801 H         1 UNK         0.0851 
     84 H84        19.9494  -24.6322  -43.6169 H         1 UNK         0.2976 
     85 H85        23.0118  -26.9959  -45.3311 H         1 UNK         0.3116 
     86 H86        25.0191  -26.8475  -44.4215 H         1 UNK         0.0646 
     87 H87        25.7930  -27.6571  -46.6667 H         1 UNK         0.0847 
     88 H88        25.8106  -29.3115  -46.0727 H         1 UNK         0.0847 
     89 H89        26.9057  -28.1052  -45.3950 H         1 UNK         0.0847 
     90 H90        26.6477  -29.5142  -43.9851 H         1 UNK         0.3040 
     91 H91        27.2223  -30.8337  -42.2857 H         1 UNK         0.1015 
     92 H92        25.4623  -32.3770  -41.4591 H         1 UNK         0.0786 
     93 H93        25.2450  -32.0947  -43.1789 H         1 UNK         0.0786 
     94 H94        24.2060  -31.2802  -42.0127 H         1 UNK         0.0786 
     95 H95        26.9058  -28.0495  -41.5564 H         1 UNK         0.3172 
     96 H96        26.8430  -26.6026  -39.8696 H         1 UNK         0.0595 
     97 H97        27.7238  -27.2957  -37.6714 H         1 UNK         0.0839 
     98 H98        28.6390  -28.0917  -38.9394 H         1 UNK         0.0839 
     99 H99        27.4214  -28.9881  -38.0323 H         1 UNK         0.0839 
    100 H100       24.3494  -27.7659  -40.7142 H         1 UNK         0.2998 
    101 H101       22.2118  -27.6404  -40.3909 H         1 UNK         0.0822 
    102 H102       22.5478  -25.4646  -39.1865 H         1 UNK         0.0787 
    103 H103       21.1425  -26.3441  -38.6109 H         1 UNK         0.0787 
    104 H104       22.6125  -26.3348  -37.6529 H         1 UNK         0.0787 
    105 H105       24.0595  -29.8319  -39.0298 H         1 UNK         0.3055 
    106 H106       21.8720  -31.3142  -37.6341 H         1 UNK         0.1106 
    107 H107       24.0725  -31.1563  -36.4375 H         1 UNK         0.0828 
    108 H108       23.6791  -32.8083  -36.8849 H         1 UNK         0.0828 
    109 H109       24.8728  -31.9135  -37.8132 H         1 UNK         0.0828 
    110 H110       21.3177  -30.8355  -40.2045 H         1 UNK         0.2931 
    111 H111       22.3116  -32.7157  -42.1004 H         1 UNK         0.0412 
    112 H112       21.0551  -34.4321  -43.2346 H         1 UNK         0.3472 
    113 H113       19.9496  -35.3902  -42.2867 H         1 UNK         0.3472 
    114 H114       20.4390  -31.8602  -43.5403 H         1 UNK         0.0970 
    115 H115       21.4505  -30.6144  -42.8900 H         1 UNK         0.0970 
    116 H116       17.0834  -31.4630  -41.8771 H         1 UNK         0.0612 
    117 H117       18.1657  -32.4400  -42.8288 H         1 UNK         0.0612 
@<TRIPOS>BOND
     1    1    2 1    
     2    1   62 1    
     3    1   63 1    
     4    1   64 1    
     5    2    3 2    
     6    2    4 am   BACKBONE|DICT|INTERRES
     7    4    5 1    
     8    4   65 1    
     9    5    6 1    
    10    5   25 1    
    11    5   66 1    
    12    6    7 1    
    13    6   67 1    
    14    6   68 1    
    15    7    8 1    
    16    8    9 1    
    17    8   69 1    
    18    8   70 1    
    19    9   10 ar   
    20    9   14 ar   
    21   10   11 ar   
    22   10   71 1    
    23   11   12 ar   
    24   11   61 1    
    25   12   13 ar   
    26   12   72 1    
    27   13   14 ar   
    28   13   15 1    
    29   14   73 1    
    30   15   16 1    
    31   15   74 1    
    32   15   75 1    
    33   16   17 1    
    34   17   18 1    
    35   17   76 1    
    36   17   77 1    
    37   18   19 1    
    38   18   27 1    
    39   18   78 1    
    40   19   20 am   BACKBONE|DICT|INTERRES
    41   19   79 1    
    42   20   21 2    
    43   20   22 1    
    44   22   23 1    
    45   22   24 1    
    46   22   80 1    
    47   23   81 1    
    48   23   82 1    
    49   23   83 1    
    50   24   25 am   BACKBONE|DICT|INTERRES
    51   24   84 1    
    52   25   26 2    
    53   27   28 2    
    54   27   29 am   BACKBONE|DICT|INTERRES
    55   29   30 1    
    56   29   85 1    
    57   30   31 1    
    58   30   32 1    
    59   30   86 1    
    60   31   87 1    
    61   31   88 1    
    62   31   89 1    
    63   32   33 2    
    64   32   34 am   BACKBONE|DICT|INTERRES
    65   34   35 1    
    66   34   90 1    
    67   35   36 1    
    68   35   37 1    
    69   35   91 1    
    70   36   92 1    
    71   36   93 1    
    72   36   94 1    
    73   37   38 2    
    74   37   39 am   BACKBONE|DICT|INTERRES
    75   39   40 1    
    76   39   95 1    
    77   40   41 1    
    78   40   42 1    
    79   40   96 1    
    80   41   97 1    
    81   41   98 1    
    82   41   99 1    
    83   42   43 2    
    84   42   44 am   BACKBONE|DICT|INTERRES
    85   44   45 1    
    86   44  100 1    
    87   45   46 1    
    88   45   47 1    
    89   45  101 1    
    90   46  102 1    
    91   46  103 1    
    92   46  104 1    
    93   47   48 2    
    94   47   49 am   BACKBONE|DICT|INTERRES
    95   49   50 1    
    96   49  105 1    
    97   50   51 1    
    98   50   52 1    
    99   50  106 1    
   100   51  107 1    
   101   51  108 1    
   102   51  109 1    
   103   52   53 2    
   104   52   54 am   BACKBONE|DICT|INTERRES
   105   54   55 1    
   106   54  110 1    
   107   55   56 1    
   108   55   59 1    
   109   55  111 1    
   110   56   57 am   BACKBONE|DICT|INTERRES
   111   56   58 2    
   112   57  112 1    
   113   57  113 1    
   114   59   60 1    
   115   59  114 1    
   116   59  115 1    
   117   60   61 1    
   118   61  116 1    
   119   61  117 1    
@<TRIPOS>SUBSTRUCTURE
     1 UNK         1 GROUP             0       ****    0 ROOT    
