@<TRIPOS>MOLECULE
3R8
117   119    1
SMALL
USER_CHARGES


@<TRIPOS>ATOM
      1 CA         17.1953  -22.6555  -44.7198 C.3       0 UNK        -0.2013 
      2 C          17.6568  -24.0851  -44.9572 C.2       0 UNK         0.4866 
      3 O          17.7318  -24.8644  -44.0066 O.2       0 UNK        -0.5176 
      4 N          17.9730  -24.4299  -46.2161 N.am      1 UNK        -0.4884 
      5 CA         18.4456  -25.7469  -46.6668 C.3       1 UNK         0.0853 
      6 C6         17.2979  -26.7968  -46.6674 C.3       10 UNK        -0.0849 
      7 S7         17.7232  -28.3327  -47.5646 S.3       10 UNK        -0.2776 
      8 C8         16.5285  -29.5276  -46.8813 C.3       10 UNK         0.0316 
      9 C9         16.8392  -29.9007  -45.4375 C.ar      10 UNK        -0.0863 
     10 C10        17.7411  -30.9278  -45.1439 C.ar      10 UNK        -0.1009 
     11 C11        17.9987  -31.2880  -43.8160 C.ar      10 UNK        -0.0712 
     12 C12        17.3708  -30.5910  -42.7780 C.ar      10 UNK        -0.0894 
     13 C13        16.4722  -29.5583  -43.0584 C.ar      10 UNK        -0.0745 
     14 C14        16.1932  -29.2399  -44.3912 C.ar      10 UNK        -0.0972 
     15 C15        15.7656  -28.8185  -41.9290 C.3       10 UNK         0.0209 
     16 S16        15.8051  -27.0109  -42.1619 S.3       10 UNK        -0.2568 
     17 C17        17.0869  -26.4332  -41.0027 C.3       10 UNK        -0.0983 
     18 CA         18.4816  -27.1104  -41.0836 C.3       3 UNK         0.0876 
     19 N          19.0551  -27.1359  -42.4389 N.am      3 UNK        -0.4424 
     20 C          20.2060  -27.7573  -42.7585 C.2       2 UNK         0.4918 
     21 O          20.9223  -28.3150  -41.9262 O.2       2 UNK        -0.4875 
     22 CA         20.6811  -27.7336  -44.2221 C.3       2 UNK         0.0481 
     23 CB         21.1486  -29.1200  -44.6968 C.3       2 UNK        -0.1831 
     24 N          19.6413  -27.2525  -45.1247 N.am      2 UNK        -0.4498 
     25 C          19.7175  -26.1545  -45.8850 C.2       1 UNK         0.5027 
     26 O          20.7208  -25.4420  -45.9662 O.2       1 UNK        -0.4969 
     27 C          19.4207  -26.4260  -40.0686 C.2       3 UNK         0.5005 
     28 O          19.5977  -26.9303  -38.9589 O.2       3 UNK        -0.5279 
     29 N          20.0061  -25.2914  -40.4797 N.am      4 UNK        -0.4463 
     30 CA         20.9594  -24.5130  -39.6862 C.3       4 UNK         0.0283 
     31 CB         21.0317  -23.0826  -40.2449 C.3       4 UNK        -0.1875 
     32 C          22.3620  -25.1433  -39.6459 C.2       4 UNK         0.4949 
     33 O          23.0931  -24.9179  -38.6814 O.2       4 UNK        -0.5039 
     34 N          22.7193  -25.9019  -40.6917 N.am      5 UNK        -0.4663 
     35 CA         24.0019  -26.5966  -40.8080 C.3       5 UNK         0.0242 
     36 CB         24.2732  -26.9417  -42.2815 C.3       5 UNK        -0.1982 
     37 C          24.0520  -27.8568  -39.9331 C.2       5 UNK         0.5017 
     38 O          25.0521  -28.0723  -39.2476 O.2       5 UNK        -0.5012 
     39 N          22.9781  -28.6605  -39.9813 N.am      6 UNK        -0.4439 
     40 CA         22.7263  -29.9177  -39.2635 C.3       6 UNK         0.0297 
     41 CB         22.6904  -29.7018  -37.7386 C.3       6 UNK        -0.2006 
     42 C          23.6696  -31.0722  -39.6470 C.2       6 UNK         0.4892 
     43 O          23.1904  -32.1439  -40.0133 O.2       6 UNK        -0.5089 
     44 N          24.9869  -30.8396  -39.5866 N.am      7 UNK        -0.4243 
     45 CA         26.0356  -31.7940  -39.9610 C.3       7 UNK         0.0196 
     46 CB         27.4045  -31.2318  -39.5476 C.3       7 UNK        -0.2007 
     47 C          26.0260  -32.1441  -41.4589 C.2       7 UNK         0.5020 
     48 O          26.3773  -33.2662  -41.8240 O.2       7 UNK        -0.5147 
     49 N          25.5826  -31.1947  -42.2957 N.am      8 UNK        -0.4734 
     50 CA         25.4113  -31.3573  -43.7431 C.3       8 UNK         0.0238 
     51 CB         25.1289  -29.9849  -44.3748 C.3       8 UNK        -0.1912 
     52 C          24.3215  -32.3741  -44.1358 C.2       8 UNK         0.5038 
     53 O          24.3392  -32.8541  -45.2700 O.2       8 UNK        -0.5046 
     54 N          23.4145  -32.6983  -43.2039 N.am      9 UNK        -0.4200 
     55 CA         22.4145  -33.7662  -43.3476 C.3       9 UNK         0.0839 
     56 C          23.0033  -35.2028  -43.2208 C.2       9 UNK         0.5513 
     57 N          24.2505  -35.3870  -42.7995 N.am      9 UNK        -0.7519 
     58 O          22.3120  -36.1731  -43.5193 O.2       9 UNK        -0.4960 
     59 C59        21.2201  -33.5746  -42.3771 C.3       10 UNK        -0.0876 
     60 S60        20.3940  -31.9594  -42.5756 S.3       10 UNK        -0.2414 
     61 C61        18.9135  -32.4630  -43.5021 C.3       10 UNK         0.0169 
     62 H62        17.8707  -22.1548  -44.0267 H         1 UNK         0.0903 
     63 H63        17.1639  -22.0767  -45.6426 H         1 UNK         0.0903 
     64 H64        16.1968  -22.6537  -44.2834 H         1 UNK         0.0903 
     65 H65        17.9239  -23.7253  -46.9395 H         1 UNK         0.3096 
     66 H66        18.7678  -25.6125  -47.7010 H         1 UNK         0.1121 
     67 H67        16.4205  -26.3739  -47.1594 H         1 UNK         0.0849 
     68 H68        16.9805  -27.0119  -45.6483 H         1 UNK         0.0849 
     69 H69        15.5194  -29.1204  -46.9648 H         1 UNK         0.0865 
     70 H70        16.5403  -30.4266  -47.4995 H         1 UNK         0.0865 
     71 H71        18.2271  -31.4587  -45.9513 H         1 UNK         0.1346 
     72 H72        17.5741  -30.8675  -41.7524 H         1 UNK         0.1412 
     73 H73        15.4722  -28.4650  -44.6132 H         1 UNK         0.1426 
     74 H74        16.1826  -29.0799  -40.9557 H         1 UNK         0.0716 
     75 H75        14.7237  -29.1403  -41.9104 H         1 UNK         0.0716 
     76 H76        17.1816  -25.3582  -41.1702 H         1 UNK         0.0695 
     77 H77        16.6801  -26.5412  -39.9951 H         1 UNK         0.0695 
     78 H78        18.3790  -28.1500  -40.7669 H         1 UNK         0.0983 
     79 H79        18.5388  -26.6267  -43.1491 H         1 UNK         0.3095 
     80 H80        21.5446  -27.0665  -44.2435 H         1 UNK         0.0454 
     81 H81        20.3185  -29.8212  -44.7626 H         1 UNK         0.0851 
     82 H82        21.6150  -29.0641  -45.6801 H         1 UNK         0.0851 
     83 H83        21.8805  -29.5529  -44.0152 H         1 UNK         0.0851 
     84 H84        18.7843  -27.7900  -45.1435 H         1 UNK         0.2976 
     85 H85        19.7834  -24.9461  -41.4030 H         1 UNK         0.3116 
     86 H86        20.5920  -24.4581  -38.6590 H         1 UNK         0.0646 
     87 H87        21.7146  -22.4687  -39.6558 H         1 UNK         0.0847 
     88 H88        20.0570  -22.5952  -40.2178 H         1 UNK         0.0847 
     89 H89        21.3879  -23.0666  -41.2758 H         1 UNK         0.0847 
     90 H90        22.0430  -26.0572  -41.4236 H         1 UNK         0.3040 
     91 H91        24.7931  -25.9246  -40.4669 H         1 UNK         0.1015 
     92 H92        24.2996  -26.0444  -42.8999 H         1 UNK         0.0786 
     93 H93        23.5131  -27.6070  -42.6905 H         1 UNK         0.0786 
     94 H94        25.2381  -27.4381  -42.3933 H         1 UNK         0.0786 
     95 H95        22.2352  -28.4044  -40.6306 H         1 UNK         0.3172 
     96 H96        21.7241  -30.2228  -39.5701 H         1 UNK         0.0595 
     97 H97        21.9539  -28.9454  -37.4664 H         1 UNK         0.0839 
     98 H98        23.6562  -29.3855  -37.3440 H         1 UNK         0.0839 
     99 H99        22.4155  -30.6226  -37.2225 H         1 UNK         0.0839 
    100 H100       25.2785  -29.9060  -39.3047 H         1 UNK         0.2998 
    101 H101       25.8598  -32.7187  -39.4071 H         1 UNK         0.0822 
    102 H102       27.4528  -31.0572  -38.4725 H         1 UNK         0.0787 
    103 H103       28.2054  -31.9290  -39.7982 H         1 UNK         0.0787 
    104 H104       27.6222  -30.2886  -40.0506 H         1 UNK         0.0787 
    105 H105       25.3128  -30.3065  -41.8998 H         1 UNK         0.3055 
    106 H106       26.3531  -31.7335  -44.1491 H         1 UNK         0.1106 
    107 H107       25.0058  -30.0687  -45.4556 H         1 UNK         0.0828 
    108 H108       24.2182  -29.5392  -43.9780 H         1 UNK         0.0828 
    109 H109       25.9496  -29.2894  -44.1985 H         1 UNK         0.0828 
    110 H110       23.4725  -32.2732  -42.2881 H         1 UNK         0.2931 
    111 H111       22.0136  -33.6988  -44.3610 H         1 UNK         0.0412 
    112 H112       24.6108  -36.3256  -42.7292 H         1 UNK         0.3472 
    113 H113       24.8390  -34.6034  -42.5455 H         1 UNK         0.3472 
    114 H114       20.4845  -34.3695  -42.5146 H         1 UNK         0.0970 
    115 H115       21.5532  -33.6624  -41.3422 H         1 UNK         0.0970 
    116 H116       19.2262  -32.9651  -44.4191 H         1 UNK         0.0612 
    117 H117       18.3559  -33.1970  -42.9186 H         1 UNK         0.0612 
@<TRIPOS>BOND
     1    1    2 1    
     2    1   62 1    
     3    1   63 1    
     4    1   64 1    
     5    2    3 2    
     6    2    4 am   BACKBONE|DICT|INTERRES
     7    4    5 1    
     8    4   65 1    
     9    5    6 1    
    10    5   25 1    
    11    5   66 1    
    12    6    7 1    
    13    6   67 1    
    14    6   68 1    
    15    7    8 1    
    16    8    9 1    
    17    8   69 1    
    18    8   70 1    
    19    9   10 ar   
    20    9   14 ar   
    21   10   11 ar   
    22   10   71 1    
    23   11   12 ar   
    24   11   61 1    
    25   12   13 ar   
    26   12   72 1    
    27   13   14 ar   
    28   13   15 1    
    29   14   73 1    
    30   15   16 1    
    31   15   74 1    
    32   15   75 1    
    33   16   17 1    
    34   17   18 1    
    35   17   76 1    
    36   17   77 1    
    37   18   19 1    
    38   18   27 1    
    39   18   78 1    
    40   19   20 am   BACKBONE|DICT|INTERRES
    41   19   79 1    
    42   20   21 2    
    43   20   22 1    
    44   22   23 1    
    45   22   24 1    
    46   22   80 1    
    47   23   81 1    
    48   23   82 1    
    49   23   83 1    
    50   24   25 am   BACKBONE|DICT|INTERRES
    51   24   84 1    
    52   25   26 2    
    53   27   28 2    
    54   27   29 am   BACKBONE|DICT|INTERRES
    55   29   30 1    
    56   29   85 1    
    57   30   31 1    
    58   30   32 1    
    59   30   86 1    
    60   31   87 1    
    61   31   88 1    
    62   31   89 1    
    63   32   33 2    
    64   32   34 am   BACKBONE|DICT|INTERRES
    65   34   35 1    
    66   34   90 1    
    67   35   36 1    
    68   35   37 1    
    69   35   91 1    
    70   36   92 1    
    71   36   93 1    
    72   36   94 1    
    73   37   38 2    
    74   37   39 am   BACKBONE|DICT|INTERRES
    75   39   40 1    
    76   39   95 1    
    77   40   41 1    
    78   40   42 1    
    79   40   96 1    
    80   41   97 1    
    81   41   98 1    
    82   41   99 1    
    83   42   43 2    
    84   42   44 am   BACKBONE|DICT|INTERRES
    85   44   45 1    
    86   44  100 1    
    87   45   46 1    
    88   45   47 1    
    89   45  101 1    
    90   46  102 1    
    91   46  103 1    
    92   46  104 1    
    93   47   48 2    
    94   47   49 am   BACKBONE|DICT|INTERRES
    95   49   50 1    
    96   49  105 1    
    97   50   51 1    
    98   50   52 1    
    99   50  106 1    
   100   51  107 1    
   101   51  108 1    
   102   51  109 1    
   103   52   53 2    
   104   52   54 am   BACKBONE|DICT|INTERRES
   105   54   55 1    
   106   54  110 1    
   107   55   56 1    
   108   55   59 1    
   109   55  111 1    
   110   56   57 am   BACKBONE|DICT|INTERRES
   111   56   58 2    
   112   57  112 1    
   113   57  113 1    
   114   59   60 1    
   115   59  114 1    
   116   59  115 1    
   117   60   61 1    
   118   61  116 1    
   119   61  117 1    
@<TRIPOS>SUBSTRUCTURE
     1 UNK         1 GROUP             0       ****    0 ROOT    
