@<TRIPOS>MOLECULE
3R8
117   119    1
SMALL
USER_CHARGES


@<TRIPOS>ATOM
      1 CA         20.0102  -27.3409  -41.9886 C.3       0 UNK        -0.2013 
      2 C          19.1618  -26.2595  -42.6388 C.2       0 UNK         0.4866 
      3 O          19.5411  -25.0889  -42.6106 O.2       0 UNK        -0.5176 
      4 N          18.0082  -26.6361  -43.2080 N.am      1 UNK        -0.4884 
      5 CA         17.0274  -25.7185  -43.8075 C.3       1 UNK         0.0853 
      6 C6         15.6760  -26.4073  -44.1366 C.3       10 UNK        -0.0849 
      7 S7         14.9740  -27.3813  -42.7601 S.3       10 UNK        -0.2776 
      8 C8         15.0255  -29.0747  -43.4376 C.3       10 UNK         0.0316 
      9 C9         16.4318  -29.6550  -43.3957 C.ar      10 UNK        -0.0863 
     10 C10        16.8688  -30.3377  -42.2563 C.ar      10 UNK        -0.1009 
     11 C11        18.1612  -30.8640  -42.1985 C.ar      10 UNK        -0.0712 
     12 C12        19.0212  -30.6909  -43.2853 C.ar      10 UNK        -0.0894 
     13 C13        18.6030  -30.0040  -44.4289 C.ar      10 UNK        -0.0745 
     14 C14        17.2967  -29.5085  -44.4865 C.ar      10 UNK        -0.0972 
     15 C15        19.5598  -29.7910  -45.5969 C.3       10 UNK         0.0209 
     16 S16        21.1892  -29.1969  -45.0372 S.3       10 UNK        -0.2568 
     17 C17        21.9670  -28.6693  -46.5998 C.3       10 UNK        -0.0983 
     18 CA         22.2504  -27.1392  -46.6614 C.3       3 UNK         0.0876 
     19 N          21.0422  -26.3229  -46.5655 N.am      3 UNK        -0.4424 
     20 C          20.1071  -26.1988  -47.5097 C.2       2 UNK         0.4918 
     21 O          20.1511  -26.7764  -48.5971 O.2       2 UNK        -0.4875 
     22 CA         18.9088  -25.3078  -47.1514 C.3       2 UNK         0.0481 
     23 CB         17.8155  -25.3034  -48.2412 C.3       2 UNK        -0.1831 
     24 N          18.3540  -25.7431  -45.8700 N.am      2 UNK        -0.4498 
     25 C          17.5595  -25.0159  -45.0740 C.2       1 UNK         0.5027 
     26 O          17.2250  -23.8540  -45.3108 O.2       1 UNK        -0.4969 
     27 C          23.2630  -26.6185  -45.6187 C.2       3 UNK         0.5005 
     28 O          23.1646  -25.4579  -45.2069 O.2       3 UNK        -0.5279 
     29 N          24.2212  -27.4644  -45.2159 N.am      4 UNK        -0.4463 
     30 CA         25.2099  -27.1733  -44.1759 C.3       4 UNK         0.0283 
     31 CB         26.2934  -28.2637  -44.1867 C.3       4 UNK        -0.1875 
     32 C          24.5701  -27.0439  -42.7806 C.2       4 UNK         0.4949 
     33 O          23.5785  -27.7149  -42.4855 O.2       4 UNK        -0.5039 
     34 N          25.1659  -26.1786  -41.9523 N.am      5 UNK        -0.4663 
     35 CA         24.7158  -25.8527  -40.5974 C.3       5 UNK         0.0242 
     36 CB         25.4972  -24.6178  -40.1130 C.3       5 UNK        -0.1982 
     37 C          24.8671  -27.0152  -39.5975 C.2       5 UNK         0.5017 
     38 O          25.5836  -27.9823  -39.8662 O.2       5 UNK        -0.5012 
     39 N          24.2093  -26.8574  -38.4389 N.am      6 UNK        -0.4439 
     40 CA         24.1974  -27.7702  -37.2874 C.3       6 UNK         0.0297 
     41 CB         25.6095  -27.9286  -36.6808 C.3       6 UNK        -0.2006 
     42 C          23.5046  -29.1176  -37.5751 C.2       6 UNK         0.4892 
     43 O          23.9236  -30.1434  -37.0369 O.2       6 UNK        -0.5089 
     44 N          22.4356  -29.0676  -38.3873 N.am      7 UNK        -0.4243 
     45 CA         21.5433  -30.1681  -38.7731 C.3       7 UNK         0.0196 
     46 CB         20.7042  -30.6392  -37.5663 C.3       7 UNK        -0.2007 
     47 C          22.2942  -31.3240  -39.4594 C.2       7 UNK         0.5020 
     48 O          22.4735  -32.3907  -38.8715 O.2       7 UNK        -0.5147 
     49 N          22.7230  -31.0806  -40.7039 N.am      8 UNK        -0.4734 
     50 CA         23.5106  -32.0136  -41.5185 C.3       8 UNK         0.0238 
     51 CB         24.0809  -31.2420  -42.7188 C.3       8 UNK        -0.1912 
     52 C          22.7657  -33.2804  -41.9914 C.2       8 UNK         0.5038 
     53 O          23.4225  -34.2052  -42.4726 O.2       8 UNK        -0.5046 
     54 N          21.4312  -33.3034  -41.8779 N.am      9 UNK        -0.4200 
     55 CA         20.5740  -34.4468  -42.2225 C.3       9 UNK         0.0839 
     56 C          20.7411  -35.6642  -41.2687 C.2       9 UNK         0.5513 
     57 N          20.3999  -36.8596  -41.7316 N.am      9 UNK        -0.7519 
     58 O          21.1483  -35.5396  -40.1158 O.2       9 UNK        -0.4960 
     59 C59        19.0891  -34.0265  -42.4039 C.3       10 UNK        -0.0876 
     60 S60        18.2589  -33.3527  -40.9161 S.3       10 UNK        -0.2414 
     61 C61        18.6517  -31.5732  -40.9462 C.3       10 UNK         0.0169 
     62 H62        19.4649  -28.2774  -41.8876 H         1 UNK         0.0903 
     63 H63        20.9034  -27.5239  -42.5842 H         1 UNK         0.0903 
     64 H64        20.3246  -27.0266  -40.9941 H         1 UNK         0.0903 
     65 H65        17.7301  -27.6092  -43.1778 H         1 UNK         0.3096 
     66 H66        16.8318  -24.9368  -43.0698 H         1 UNK         0.1121 
     67 H67        14.9360  -25.6506  -44.4050 H         1 UNK         0.0849 
     68 H68        15.7673  -27.0428  -45.0183 H         1 UNK         0.0849 
     69 H69        14.3523  -29.7043  -42.8536 H         1 UNK         0.0865 
     70 H70        14.6329  -29.0850  -44.4556 H         1 UNK         0.0865 
     71 H71        16.2051  -30.4538  -41.4099 H         1 UNK         0.1346 
     72 H72        20.0285  -31.0807  -43.2383 H         1 UNK         0.1412 
     73 H73        16.9589  -28.9945  -45.3756 H         1 UNK         0.1426 
     74 H74        19.1443  -29.0709  -46.3034 H         1 UNK         0.0716 
     75 H75        19.6840  -30.7300  -46.1375 H         1 UNK         0.0716 
     76 H76        21.3277  -28.9591  -47.4346 H         1 UNK         0.0695 
     77 H77        22.8837  -29.2431  -46.7419 H         1 UNK         0.0695 
     78 H78        22.7068  -26.9279  -47.6310 H         1 UNK         0.0983 
     79 H79        20.9866  -25.7652  -45.7227 H         1 UNK         0.3095 
     80 H80        19.2929  -24.2916  -47.0415 H         1 UNK         0.0454 
     81 H81        18.2225  -24.9880  -49.2027 H         1 UNK         0.0851 
     82 H82        17.0066  -24.6151  -47.9973 H         1 UNK         0.0851 
     83 H83        17.3819  -26.2946  -48.3783 H         1 UNK         0.0851 
     84 H84        18.6075  -26.6746  -45.5704 H         1 UNK         0.2976 
     85 H85        24.1941  -28.4139  -45.5568 H         1 UNK         0.3116 
     86 H86        25.6827  -26.2208  -44.4254 H         1 UNK         0.0646 
     87 H87        25.8713  -29.2572  -44.0409 H         1 UNK         0.0847 
     88 H88        26.8390  -28.2693  -45.1304 H         1 UNK         0.0847 
     89 H89        27.0242  -28.1007  -43.3932 H         1 UNK         0.0847 
     90 H90        25.9997  -25.7060  -42.2699 H         1 UNK         0.3040 
     91 H91        23.6550  -25.5979  -40.6565 H         1 UNK         0.1015 
     92 H92        25.1596  -24.2914  -39.1285 H         1 UNK         0.0786 
     93 H93        25.3648  -23.7732  -40.7898 H         1 UNK         0.0786 
     94 H94        26.5661  -24.8227  -40.0373 H         1 UNK         0.0786 
     95 H95        23.6629  -26.0145  -38.3206 H         1 UNK         0.3172 
     96 H96        23.5805  -27.2823  -36.5312 H         1 UNK         0.0595 
     97 H97        26.2765  -28.4830  -37.3415 H         1 UNK         0.0839 
     98 H98        25.5696  -28.4706  -35.7351 H         1 UNK         0.0839 
     99 H99        26.0664  -26.9602  -36.4773 H         1 UNK         0.0839 
    100 H100       22.2086  -28.1668  -38.7837 H         1 UNK         0.2998 
    101 H101       20.8490  -29.7561  -39.5071 H         1 UNK         0.0822 
    102 H102       20.0019  -31.4199  -37.8620 H         1 UNK         0.0787 
    103 H103       20.1207  -29.8204  -37.1454 H         1 UNK         0.0787 
    104 H104       21.3276  -31.0491  -36.7709 H         1 UNK         0.0787 
    105 H105       22.5685  -30.1640  -41.1027 H         1 UNK         0.3055 
    106 H106       24.3486  -32.3576  -40.9079 H         1 UNK         0.1106 
    107 H107       24.6935  -30.4051  -42.3839 H         1 UNK         0.0828 
    108 H108       24.7141  -31.8806  -43.3363 H         1 UNK         0.0828 
    109 H109       23.2914  -30.8451  -43.3582 H         1 UNK         0.0828 
    110 H110       20.9807  -32.5351  -41.4095 H         1 UNK         0.2931 
    111 H111       20.9154  -34.7866  -43.2028 H         1 UNK         0.0412 
    112 H112       20.4897  -37.6621  -41.1275 H         1 UNK         0.3472 
    113 H113       20.0622  -36.9793  -42.6742 H         1 UNK         0.3472 
    114 H114       19.0012  -33.3247  -43.2306 H         1 UNK         0.0970 
    115 H115       18.5060  -34.8900  -42.7285 H         1 UNK         0.0970 
    116 H116       19.7248  -31.4373  -40.8394 H         1 UNK         0.0612 
    117 H117       18.2062  -31.1074  -40.0659 H         1 UNK         0.0612 
@<TRIPOS>BOND
     1    1    2 1    
     2    1   62 1    
     3    1   63 1    
     4    1   64 1    
     5    2    3 2    
     6    2    4 am   BACKBONE|DICT|INTERRES
     7    4    5 1    
     8    4   65 1    
     9    5    6 1    
    10    5   25 1    
    11    5   66 1    
    12    6    7 1    
    13    6   67 1    
    14    6   68 1    
    15    7    8 1    
    16    8    9 1    
    17    8   69 1    
    18    8   70 1    
    19    9   10 ar   
    20    9   14 ar   
    21   10   11 ar   
    22   10   71 1    
    23   11   12 ar   
    24   11   61 1    
    25   12   13 ar   
    26   12   72 1    
    27   13   14 ar   
    28   13   15 1    
    29   14   73 1    
    30   15   16 1    
    31   15   74 1    
    32   15   75 1    
    33   16   17 1    
    34   17   18 1    
    35   17   76 1    
    36   17   77 1    
    37   18   19 1    
    38   18   27 1    
    39   18   78 1    
    40   19   20 am   BACKBONE|DICT|INTERRES
    41   19   79 1    
    42   20   21 2    
    43   20   22 1    
    44   22   23 1    
    45   22   24 1    
    46   22   80 1    
    47   23   81 1    
    48   23   82 1    
    49   23   83 1    
    50   24   25 am   BACKBONE|DICT|INTERRES
    51   24   84 1    
    52   25   26 2    
    53   27   28 2    
    54   27   29 am   BACKBONE|DICT|INTERRES
    55   29   30 1    
    56   29   85 1    
    57   30   31 1    
    58   30   32 1    
    59   30   86 1    
    60   31   87 1    
    61   31   88 1    
    62   31   89 1    
    63   32   33 2    
    64   32   34 am   BACKBONE|DICT|INTERRES
    65   34   35 1    
    66   34   90 1    
    67   35   36 1    
    68   35   37 1    
    69   35   91 1    
    70   36   92 1    
    71   36   93 1    
    72   36   94 1    
    73   37   38 2    
    74   37   39 am   BACKBONE|DICT|INTERRES
    75   39   40 1    
    76   39   95 1    
    77   40   41 1    
    78   40   42 1    
    79   40   96 1    
    80   41   97 1    
    81   41   98 1    
    82   41   99 1    
    83   42   43 2    
    84   42   44 am   BACKBONE|DICT|INTERRES
    85   44   45 1    
    86   44  100 1    
    87   45   46 1    
    88   45   47 1    
    89   45  101 1    
    90   46  102 1    
    91   46  103 1    
    92   46  104 1    
    93   47   48 2    
    94   47   49 am   BACKBONE|DICT|INTERRES
    95   49   50 1    
    96   49  105 1    
    97   50   51 1    
    98   50   52 1    
    99   50  106 1    
   100   51  107 1    
   101   51  108 1    
   102   51  109 1    
   103   52   53 2    
   104   52   54 am   BACKBONE|DICT|INTERRES
   105   54   55 1    
   106   54  110 1    
   107   55   56 1    
   108   55   59 1    
   109   55  111 1    
   110   56   57 am   BACKBONE|DICT|INTERRES
   111   56   58 2    
   112   57  112 1    
   113   57  113 1    
   114   59   60 1    
   115   59  114 1    
   116   59  115 1    
   117   60   61 1    
   118   61  116 1    
   119   61  117 1    
@<TRIPOS>SUBSTRUCTURE
     1 UNK         1 GROUP             0       ****    0 ROOT    
