@<TRIPOS>MOLECULE
3R8
117   119    1
SMALL
USER_CHARGES


@<TRIPOS>ATOM
      1 CA         15.3794  -22.6610  -41.2495 C.3       0 UNK        -0.2013 
      2 C          15.6210  -23.1563  -42.6676 C.2       0 UNK         0.4866 
      3 O          15.4662  -22.3895  -43.6189 O.2       0 UNK        -0.5176 
      4 N          15.9918  -24.4343  -42.8176 N.am      1 UNK        -0.4884 
      5 CA         16.3404  -25.0569  -44.0990 C.3       1 UNK         0.0853 
      6 C6         16.3195  -26.6044  -43.9876 C.3       10 UNK        -0.0849 
      7 S7         15.8673  -27.4202  -45.5499 S.3       10 UNK        -0.2776 
      8 C8         15.6528  -29.1403  -44.9797 C.3       10 UNK         0.0316 
      9 C9         16.9925  -29.8116  -44.7122 C.ar      10 UNK        -0.0863 
     10 C10        17.4617  -29.9921  -43.4054 C.ar      10 UNK        -0.1009 
     11 C11        18.7103  -30.5825  -43.1790 C.ar      10 UNK        -0.0712 
     12 C12        19.4835  -30.9944  -44.2661 C.ar      10 UNK        -0.0894 
     13 C13        19.0331  -30.8055  -45.5733 C.ar      10 UNK        -0.0745 
     14 C14        17.7754  -30.2358  -45.7888 C.ar      10 UNK        -0.0972 
     15 C15        19.9246  -31.1713  -46.7526 C.3       10 UNK         0.0209 
     16 S16        21.3355  -30.0248  -46.9434 S.3       10 UNK        -0.2568 
     17 C17        20.5124  -28.3914  -47.0215 C.3       10 UNK        -0.0983 
     18 CA         20.9274  -27.2828  -46.0029 C.3       3 UNK         0.0876 
     19 N          19.9928  -26.1658  -46.1461 N.am      3 UNK        -0.4424 
     20 C          20.3068  -24.8884  -46.3829 C.2       2 UNK         0.4918 
     21 O          21.4592  -24.4686  -46.4845 O.2       2 UNK        -0.4875 
     22 CA         19.1237  -23.9092  -46.5310 C.3       2 UNK         0.0481 
     23 CB         18.8618  -23.6125  -48.0161 C.3       2 UNK        -0.1831 
     24 N          17.8760  -24.3733  -45.9048 N.am      2 UNK        -0.4498 
     25 C          17.7127  -24.5451  -44.5857 C.2       1 UNK         0.5027 
     26 O          18.6168  -24.3614  -43.7679 O.2       1 UNK        -0.4969 
     27 C          21.0654  -27.6986  -44.5094 C.2       3 UNK         0.5005 
     28 O          21.7280  -28.6927  -44.2128 O.2       3 UNK        -0.5279 
     29 N          20.5020  -26.9176  -43.5658 N.am      4 UNK        -0.4463 
     30 CA         20.5223  -27.1695  -42.1140 C.3       4 UNK         0.0283 
     31 CB         19.4313  -26.3369  -41.4145 C.3       4 UNK        -0.1875 
     32 C          21.9002  -26.9893  -41.4385 C.2       4 UNK         0.4949 
     33 O          22.0252  -26.2291  -40.4764 O.2       4 UNK        -0.5039 
     34 N          22.9102  -27.7061  -41.9357 N.am      5 UNK        -0.4663 
     35 CA         24.2218  -27.8546  -41.3120 C.3       5 UNK         0.0242 
     36 CB         25.2481  -28.2177  -42.3977 C.3       5 UNK        -0.1982 
     37 C          24.1736  -28.9527  -40.2395 C.2       5 UNK         0.5017 
     38 O          23.4606  -29.9455  -40.4120 O.2       5 UNK        -0.5012 
     39 N          24.9936  -28.8007  -39.1908 N.am      6 UNK        -0.4439 
     40 CA         25.1502  -29.7777  -38.1039 C.3       6 UNK         0.0297 
     41 CB         26.0146  -29.1650  -36.9900 C.3       6 UNK        -0.2006 
     42 C          25.7378  -31.1281  -38.5598 C.2       6 UNK         0.4892 
     43 O          25.5000  -32.1446  -37.9083 O.2       6 UNK        -0.5089 
     44 N          26.4821  -31.1167  -39.6739 N.am      7 UNK        -0.4243 
     45 CA         26.9880  -32.3130  -40.3465 C.3       7 UNK         0.0196 
     46 CB         28.1834  -31.9197  -41.2301 C.3       7 UNK        -0.2007 
     47 C          25.9137  -33.0266  -41.1885 C.2       7 UNK         0.5020 
     48 O          26.0733  -34.2151  -41.4676 O.2       7 UNK        -0.5147 
     49 N          24.8613  -32.3036  -41.5993 N.am      8 UNK        -0.4734 
     50 CA         23.7755  -32.8293  -42.4282 C.3       8 UNK         0.0238 
     51 CB         23.2744  -31.7349  -43.3840 C.3       8 UNK        -0.1912 
     52 C          22.6331  -33.3872  -41.5674 C.2       8 UNK         0.5038 
     53 O          22.1569  -34.4860  -41.8553 O.2       8 UNK        -0.5046 
     54 N          22.2398  -32.6461  -40.5228 N.am      9 UNK        -0.4200 
     55 CA         21.2631  -33.0717  -39.5119 C.3       9 UNK         0.0839 
     56 C          21.9375  -33.0030  -38.1220 C.2       9 UNK         0.5513 
     57 N          22.2067  -34.1420  -37.4991 N.am      9 UNK        -0.7519 
     58 O          22.1856  -31.9232  -37.5917 O.2       9 UNK        -0.4960 
     59 C59        19.9612  -32.2270  -39.5399 C.3       10 UNK        -0.0876 
     60 S60        19.0280  -32.3902  -41.1002 S.3       10 UNK        -0.2414 
     61 C61        19.2665  -30.7224  -41.7717 C.3       10 UNK         0.0169 
     62 H62        16.0538  -21.8362  -41.0209 H         1 UNK         0.0903 
     63 H63        14.3554  -22.3027  -41.1464 H         1 UNK         0.0903 
     64 H64        15.5402  -23.4450  -40.5098 H         1 UNK         0.0903 
     65 H65        16.1340  -25.0050  -41.9968 H         1 UNK         0.3096 
     66 H66        15.5810  -24.7441  -44.8200 H         1 UNK         0.1121 
     67 H67        17.2742  -27.0069  -43.6476 H         1 UNK         0.0849 
     68 H68        15.5828  -26.9151  -43.2447 H         1 UNK         0.0849 
     69 H69        15.0197  -29.1633  -44.0913 H         1 UNK         0.0865 
     70 H70        15.1160  -29.7011  -45.7464 H         1 UNK         0.0865 
     71 H71        16.8662  -29.6575  -42.5670 H         1 UNK         0.1346 
     72 H72        20.4597  -31.4207  -44.0948 H         1 UNK         0.1412 
     73 H73        17.4201  -30.0815  -46.7988 H         1 UNK         0.1426 
     74 H74        19.3506  -31.1830  -47.6804 H         1 UNK         0.0716 
     75 H75        20.3073  -32.1837  -46.6165 H         1 UNK         0.0716 
     76 H76        19.4349  -28.5378  -46.9788 H         1 UNK         0.0695 
     77 H77        20.6900  -28.0110  -48.0286 H         1 UNK         0.0695 
     78 H78        21.9295  -26.9556  -46.2881 H         1 UNK         0.0983 
     79 H79        19.0135  -26.4037  -46.0819 H         1 UNK         0.3095 
     80 H80        19.4129  -22.9754  -46.0445 H         1 UNK         0.0454 
     81 H81        19.7623  -23.2365  -48.5042 H         1 UNK         0.0851 
     82 H82        18.0897  -22.8531  -48.1402 H         1 UNK         0.0851 
     83 H83        18.5472  -24.5052  -48.5581 H         1 UNK         0.0851 
     84 H84        17.0992  -24.5616  -46.5236 H         1 UNK         0.2976 
     85 H85        20.0353  -26.0678  -43.8582 H         1 UNK         0.3116 
     86 H86        20.2571  -28.2141  -41.9697 H         1 UNK         0.0646 
     87 H87        18.4420  -26.5476  -41.8123 H         1 UNK         0.0847 
     88 H88        19.6175  -25.2669  -41.5108 H         1 UNK         0.0847 
     89 H89        19.3922  -26.5619  -40.3479 H         1 UNK         0.0847 
     90 H90        22.6989  -28.3044  -42.7332 H         1 UNK         0.3040 
     91 H91        24.5121  -26.9082  -40.8501 H         1 UNK         0.1015 
     92 H92        26.2504  -28.3123  -41.9781 H         1 UNK         0.0786 
     93 H93        25.2934  -27.4493  -43.1697 H         1 UNK         0.0786 
     94 H94        25.0054  -29.1631  -42.8846 H         1 UNK         0.0786 
     95 H95        25.5547  -27.9625  -39.1280 H         1 UNK         0.3172 
     96 H96        24.1581  -29.9776  -37.6941 H         1 UNK         0.0595 
     97 H97        27.0178  -28.9218  -37.3424 H         1 UNK         0.0839 
     98 H98        26.1228  -29.8593  -36.1553 H         1 UNK         0.0839 
     99 H99        25.5658  -28.2543  -36.5929 H         1 UNK         0.0839 
    100 H100       26.6556  -30.2306  -40.1243 H         1 UNK         0.2998 
    101 H101       27.3390  -33.0199  -39.5912 H         1 UNK         0.0822 
    102 H102       28.9810  -31.4668  -40.6408 H         1 UNK         0.0787 
    103 H103       28.6063  -32.7947  -41.7259 H         1 UNK         0.0787 
    104 H104       27.8958  -31.2118  -42.0088 H         1 UNK         0.0787 
    105 H105       24.7512  -31.3552  -41.2629 H         1 UNK         0.3055 
    106 H106       24.1575  -33.6482  -43.0428 H         1 UNK         0.1106 
    107 H107       24.0932  -31.2971  -43.9547 H         1 UNK         0.0828 
    108 H108       22.5747  -32.1522  -44.1075 H         1 UNK         0.0828 
    109 H109       22.7642  -30.9271  -42.8581 H         1 UNK         0.0828 
    110 H110       22.6913  -31.7520  -40.3508 H         1 UNK         0.2931 
    111 H111       20.9753  -34.1103  -39.6880 H         1 UNK         0.0412 
    112 H112       22.0002  -35.0318  -37.9263 H         1 UNK         0.3472 
    113 H113       22.6426  -34.1103  -36.5905 H         1 UNK         0.3472 
    114 H114       19.2960  -32.5410  -38.7333 H         1 UNK         0.0970 
    115 H115       20.1844  -31.1758  -39.3465 H         1 UNK         0.0970 
    116 H116       20.3356  -30.5021  -41.7809 H         1 UNK         0.0612 
    117 H117       18.8004  -29.9957  -41.1045 H         1 UNK         0.0612 
@<TRIPOS>BOND
     1    1    2 1    
     2    1   62 1    
     3    1   63 1    
     4    1   64 1    
     5    2    3 2    
     6    2    4 am   BACKBONE|DICT|INTERRES
     7    4    5 1    
     8    4   65 1    
     9    5    6 1    
    10    5   25 1    
    11    5   66 1    
    12    6    7 1    
    13    6   67 1    
    14    6   68 1    
    15    7    8 1    
    16    8    9 1    
    17    8   69 1    
    18    8   70 1    
    19    9   10 ar   
    20    9   14 ar   
    21   10   11 ar   
    22   10   71 1    
    23   11   12 ar   
    24   11   61 1    
    25   12   13 ar   
    26   12   72 1    
    27   13   14 ar   
    28   13   15 1    
    29   14   73 1    
    30   15   16 1    
    31   15   74 1    
    32   15   75 1    
    33   16   17 1    
    34   17   18 1    
    35   17   76 1    
    36   17   77 1    
    37   18   19 1    
    38   18   27 1    
    39   18   78 1    
    40   19   20 am   BACKBONE|DICT|INTERRES
    41   19   79 1    
    42   20   21 2    
    43   20   22 1    
    44   22   23 1    
    45   22   24 1    
    46   22   80 1    
    47   23   81 1    
    48   23   82 1    
    49   23   83 1    
    50   24   25 am   BACKBONE|DICT|INTERRES
    51   24   84 1    
    52   25   26 2    
    53   27   28 2    
    54   27   29 am   BACKBONE|DICT|INTERRES
    55   29   30 1    
    56   29   85 1    
    57   30   31 1    
    58   30   32 1    
    59   30   86 1    
    60   31   87 1    
    61   31   88 1    
    62   31   89 1    
    63   32   33 2    
    64   32   34 am   BACKBONE|DICT|INTERRES
    65   34   35 1    
    66   34   90 1    
    67   35   36 1    
    68   35   37 1    
    69   35   91 1    
    70   36   92 1    
    71   36   93 1    
    72   36   94 1    
    73   37   38 2    
    74   37   39 am   BACKBONE|DICT|INTERRES
    75   39   40 1    
    76   39   95 1    
    77   40   41 1    
    78   40   42 1    
    79   40   96 1    
    80   41   97 1    
    81   41   98 1    
    82   41   99 1    
    83   42   43 2    
    84   42   44 am   BACKBONE|DICT|INTERRES
    85   44   45 1    
    86   44  100 1    
    87   45   46 1    
    88   45   47 1    
    89   45  101 1    
    90   46  102 1    
    91   46  103 1    
    92   46  104 1    
    93   47   48 2    
    94   47   49 am   BACKBONE|DICT|INTERRES
    95   49   50 1    
    96   49  105 1    
    97   50   51 1    
    98   50   52 1    
    99   50  106 1    
   100   51  107 1    
   101   51  108 1    
   102   51  109 1    
   103   52   53 2    
   104   52   54 am   BACKBONE|DICT|INTERRES
   105   54   55 1    
   106   54  110 1    
   107   55   56 1    
   108   55   59 1    
   109   55  111 1    
   110   56   57 am   BACKBONE|DICT|INTERRES
   111   56   58 2    
   112   57  112 1    
   113   57  113 1    
   114   59   60 1    
   115   59  114 1    
   116   59  115 1    
   117   60   61 1    
   118   61  116 1    
   119   61  117 1    
@<TRIPOS>SUBSTRUCTURE
     1 UNK         1 GROUP             0       ****    0 ROOT    
