@<TRIPOS>MOLECULE
3R8
117   119    1
SMALL
USER_CHARGES


@<TRIPOS>ATOM
      1 CA         14.3607  -24.1482  -48.3528 C.3       0 UNK        -0.2013 
      2 C          15.7607  -24.6370  -48.0120 C.2       0 UNK         0.4866 
      3 O          16.7417  -23.9917  -48.3832 O.2       0 UNK        -0.5176 
      4 N          15.8622  -25.7759  -47.3151 N.am      1 UNK        -0.4884 
      5 CA         17.1234  -26.3524  -46.8391 C.3       1 UNK         0.0853 
      6 C6         16.9413  -27.8425  -46.4619 C.3       10 UNK        -0.0849 
      7 S7         18.5043  -28.7826  -46.5108 S.3       10 UNK        -0.2776 
      8 C8         18.0335  -30.3107  -45.6350 C.3       10 UNK         0.0316 
      9 C9         18.2386  -30.1830  -44.1324 C.ar      10 UNK        -0.0863 
     10 C10        19.4367  -30.6055  -43.5487 C.ar      10 UNK        -0.1009 
     11 C11        19.6358  -30.4865  -42.1695 C.ar      10 UNK        -0.0712 
     12 C12        18.6317  -29.9295  -41.3728 C.ar      10 UNK        -0.0894 
     13 C13        17.4408  -29.4807  -41.9505 C.ar      10 UNK        -0.0745 
     14 C14        17.2384  -29.6371  -43.3238 C.ar      10 UNK        -0.0972 
     15 C15        16.3864  -28.7807  -41.1094 C.3       10 UNK         0.0209 
     16 S16        16.4402  -26.9779  -41.3762 S.3       10 UNK        -0.2568 
     17 C17        17.9423  -26.5042  -40.4550 C.3       10 UNK        -0.0983 
     18 CA         19.2289  -26.4589  -41.3194 C.3       3 UNK         0.0876 
     19 N          19.1011  -25.5899  -42.4996 N.am      3 UNK        -0.4424 
     20 C          20.0386  -25.4428  -43.4466 C.2       2 UNK         0.4918 
     21 O          21.1374  -25.9990  -43.4136 O.2       2 UNK        -0.4875 
     22 CA         19.6913  -24.5192  -44.6233 C.3       2 UNK         0.0481 
     23 CB         20.9472  -23.8704  -45.2338 C.3       2 UNK        -0.1831 
     24 N          18.9885  -25.2698  -45.6614 N.am      2 UNK        -0.4498 
     25 C          17.6747  -25.5251  -45.6580 C.2       1 UNK         0.5027 
     26 O          16.9061  -25.1391  -44.7726 O.2       1 UNK        -0.4969 
     27 C          20.4436  -26.1172  -40.4301 C.2       3 UNK         0.5005 
     28 O          21.0328  -27.0186  -39.8308 O.2       3 UNK        -0.5279 
     29 N          20.8215  -24.8298  -40.4013 N.am      4 UNK        -0.4463 
     30 CA         21.9774  -24.2806  -39.6863 C.3       4 UNK         0.0283 
     31 CB         21.9617  -22.7488  -39.8181 C.3       4 UNK        -0.1875 
     32 C          23.3428  -24.8420  -40.1308 C.2       4 UNK         0.4949 
     33 O          24.3134  -24.6876  -39.3892 O.2       4 UNK        -0.5039 
     34 N          23.4077  -25.4870  -41.3065 N.am      5 UNK        -0.4663 
     35 CA         24.5946  -26.1967  -41.7923 C.3       5 UNK         0.0242 
     36 CB         24.3933  -26.5751  -43.2683 C.3       5 UNK        -0.1982 
     37 C          24.9394  -27.4470  -40.9600 C.2       5 UNK         0.5017 
     38 O          26.1150  -27.8108  -40.9025 O.2       5 UNK        -0.5012 
     39 N          23.9244  -28.0593  -40.3253 N.am      6 UNK        -0.4439 
     40 CA         24.0035  -29.2506  -39.4715 C.3       6 UNK         0.0297 
     41 CB         24.6788  -28.8922  -38.1274 C.3       6 UNK        -0.2006 
     42 C          24.6325  -30.4618  -40.1982 C.2       6 UNK         0.4892 
     43 O          24.3256  -30.6816  -41.3720 O.2       6 UNK        -0.5089 
     44 N          25.4879  -31.2170  -39.4915 N.am      7 UNK        -0.4243 
     45 CA         26.1996  -32.4181  -39.9441 C.3       7 UNK         0.0196 
     46 CB         27.2251  -32.0631  -41.0469 C.3       7 UNK        -0.2007 
     47 C          25.2321  -33.5596  -40.3191 C.2       7 UNK         0.5020 
     48 O          24.2323  -33.7573  -39.6256 O.2       7 UNK        -0.5147 
     49 N          25.5549  -34.3167  -41.3747 N.am      8 UNK        -0.4734 
     50 CA         24.7254  -35.3945  -41.9100 C.3       8 UNK         0.0238 
     51 CB         25.6130  -36.3640  -42.7116 C.3       8 UNK        -0.1912 
     52 C          23.5993  -34.8044  -42.7732 C.2       8 UNK         0.5038 
     53 O          23.8346  -34.4828  -43.9400 O.2       8 UNK        -0.5046 
     54 N          22.4115  -34.6504  -42.1774 N.am      9 UNK        -0.4200 
     55 CA         21.2121  -34.0991  -42.8295 C.3       9 UNK         0.0839 
     56 C          20.5678  -35.0186  -43.9080 C.2       9 UNK         0.5513 
     57 N          20.9130  -36.2984  -43.9872 N.am      9 UNK        -0.7519 
     58 O          19.7406  -34.5578  -44.6900 O.2       9 UNK        -0.4960 
     59 C59        20.1476  -33.6475  -41.7952 C.3       10 UNK        -0.0876 
     60 S60        20.7738  -32.4554  -40.5602 S.3       10 UNK        -0.2414 
     61 C61        20.9481  -30.9321  -41.5439 C.3       10 UNK         0.0169 
     62 H62        14.2430  -24.0706  -49.4333 H         1 UNK         0.0903 
     63 H63        13.5902  -24.8203  -47.9755 H         1 UNK         0.0903 
     64 H64        14.1922  -23.1625  -47.9198 H         1 UNK         0.0903 
     65 H65        15.0214  -26.2422  -47.0049 H         1 UNK         0.3096 
     66 H66        17.8337  -26.2916  -47.6675 H         1 UNK         0.1121 
     67 H67        16.2667  -28.3266  -47.1704 H         1 UNK         0.0849 
     68 H68        16.4655  -27.9369  -45.4862 H         1 UNK         0.0849 
     69 H69        16.9971  -30.5690  -45.8584 H         1 UNK         0.0865 
     70 H70        18.6364  -31.1346  -46.0206 H         1 UNK         0.0865 
     71 H71        20.2160  -31.0255  -44.1699 H         1 UNK         0.1346 
     72 H72        18.7950  -29.8155  -40.3096 H         1 UNK         0.1412 
     73 H73        16.3083  -29.3039  -43.7607 H         1 UNK         0.1426 
     74 H74        16.5121  -29.0066  -40.0494 H         1 UNK         0.0716 
     75 H75        15.3978  -29.1500  -41.3860 H         1 UNK         0.0716 
     76 H76        17.7550  -25.5253  -40.0093 H         1 UNK         0.0695 
     77 H77        18.0679  -27.1936  -39.6177 H         1 UNK         0.0695 
     78 H78        19.4211  -27.4561  -41.7120 H         1 UNK         0.0983 
     79 H79        18.1975  -25.1574  -42.6405 H         1 UNK         0.3095 
     80 H80        19.0511  -23.7148  -44.2543 H         1 UNK         0.0454 
     81 H81        21.5051  -23.3153  -44.4785 H         1 UNK         0.0851 
     82 H82        21.6255  -24.6119  -45.6583 H         1 UNK         0.0851 
     83 H83        20.6849  -23.1666  -46.0237 H         1 UNK         0.0851 
     84 H84        19.5610  -25.6654  -46.3938 H         1 UNK         0.2976 
     85 H85        20.2724  -24.1725  -40.9363 H         1 UNK         0.3116 
     86 H86        21.8573  -24.5349  -38.6312 H         1 UNK         0.0646 
     87 H87        22.7890  -22.3002  -39.2660 H         1 UNK         0.0847 
     88 H88        21.0419  -22.3228  -39.4170 H         1 UNK         0.0847 
     89 H89        22.0560  -22.4320  -40.8576 H         1 UNK         0.0847 
     90 H90        22.5691  -25.5690  -41.8709 H         1 UNK         0.3040 
     91 H91        25.4453  -25.5146  -41.7261 H         1 UNK         0.1015 
     92 H92        24.1823  -25.6977  -43.8801 H         1 UNK         0.0786 
     93 H93        23.5686  -27.2780  -43.3945 H         1 UNK         0.0786 
     94 H94        25.2883  -27.0479  -43.6748 H         1 UNK         0.0786 
     95 H95        22.9958  -27.6645  -40.4289 H         1 UNK         0.3172 
     96 H96        22.9728  -29.5319  -39.2525 H         1 UNK         0.0595 
     97 H97        24.2074  -28.0189  -37.6758 H         1 UNK         0.0839 
     98 H98        25.7385  -28.6643  -38.2506 H         1 UNK         0.0839 
     99 H99        24.5898  -29.7040  -37.4046 H         1 UNK         0.0839 
    100 H100       25.6415  -30.9633  -38.5261 H         1 UNK         0.2998 
    101 H101       26.7606  -32.7775  -39.0802 H         1 UNK         0.0822 
    102 H102       27.8544  -31.2273  -40.7405 H         1 UNK         0.0787 
    103 H103       27.8934  -32.8994  -41.2556 H         1 UNK         0.0787 
    104 H104       26.7393  -31.7809  -41.9820 H         1 UNK         0.0787 
    105 H105       26.3749  -34.0689  -41.9096 H         1 UNK         0.3055 
    106 H106       24.2813  -35.9551  -41.0838 H         1 UNK         0.1106 
    107 H107       26.1237  -35.8649  -43.5363 H         1 UNK         0.0828 
    108 H108       26.3720  -36.8223  -42.0773 H         1 UNK         0.0828 
    109 H109       25.0184  -37.1723  -43.1392 H         1 UNK         0.0828 
    110 H110       22.3198  -34.8776  -41.1976 H         1 UNK         0.2931 
    111 H111       21.5341  -33.2073  -43.3699 H         1 UNK         0.0412 
    112 H112       20.4900  -36.8809  -44.6930 H         1 UNK         0.3472 
    113 H113       21.5884  -36.6880  -43.3496 H         1 UNK         0.3472 
    114 H114       19.7649  -34.5141  -41.2531 H         1 UNK         0.0970 
    115 H115       19.2809  -33.2105  -42.2942 H         1 UNK         0.0970 
    116 H116       21.7130  -31.0815  -42.3071 H         1 UNK         0.0612 
    117 H117       21.3201  -30.1366  -40.8976 H         1 UNK         0.0612 
@<TRIPOS>BOND
     1    1    2 1    
     2    1   62 1    
     3    1   63 1    
     4    1   64 1    
     5    2    3 2    
     6    2    4 am   BACKBONE|DICT|INTERRES
     7    4    5 1    
     8    4   65 1    
     9    5    6 1    
    10    5   25 1    
    11    5   66 1    
    12    6    7 1    
    13    6   67 1    
    14    6   68 1    
    15    7    8 1    
    16    8    9 1    
    17    8   69 1    
    18    8   70 1    
    19    9   10 ar   
    20    9   14 ar   
    21   10   11 ar   
    22   10   71 1    
    23   11   12 ar   
    24   11   61 1    
    25   12   13 ar   
    26   12   72 1    
    27   13   14 ar   
    28   13   15 1    
    29   14   73 1    
    30   15   16 1    
    31   15   74 1    
    32   15   75 1    
    33   16   17 1    
    34   17   18 1    
    35   17   76 1    
    36   17   77 1    
    37   18   19 1    
    38   18   27 1    
    39   18   78 1    
    40   19   20 am   BACKBONE|DICT|INTERRES
    41   19   79 1    
    42   20   21 2    
    43   20   22 1    
    44   22   23 1    
    45   22   24 1    
    46   22   80 1    
    47   23   81 1    
    48   23   82 1    
    49   23   83 1    
    50   24   25 am   BACKBONE|DICT|INTERRES
    51   24   84 1    
    52   25   26 2    
    53   27   28 2    
    54   27   29 am   BACKBONE|DICT|INTERRES
    55   29   30 1    
    56   29   85 1    
    57   30   31 1    
    58   30   32 1    
    59   30   86 1    
    60   31   87 1    
    61   31   88 1    
    62   31   89 1    
    63   32   33 2    
    64   32   34 am   BACKBONE|DICT|INTERRES
    65   34   35 1    
    66   34   90 1    
    67   35   36 1    
    68   35   37 1    
    69   35   91 1    
    70   36   92 1    
    71   36   93 1    
    72   36   94 1    
    73   37   38 2    
    74   37   39 am   BACKBONE|DICT|INTERRES
    75   39   40 1    
    76   39   95 1    
    77   40   41 1    
    78   40   42 1    
    79   40   96 1    
    80   41   97 1    
    81   41   98 1    
    82   41   99 1    
    83   42   43 2    
    84   42   44 am   BACKBONE|DICT|INTERRES
    85   44   45 1    
    86   44  100 1    
    87   45   46 1    
    88   45   47 1    
    89   45  101 1    
    90   46  102 1    
    91   46  103 1    
    92   46  104 1    
    93   47   48 2    
    94   47   49 am   BACKBONE|DICT|INTERRES
    95   49   50 1    
    96   49  105 1    
    97   50   51 1    
    98   50   52 1    
    99   50  106 1    
   100   51  107 1    
   101   51  108 1    
   102   51  109 1    
   103   52   53 2    
   104   52   54 am   BACKBONE|DICT|INTERRES
   105   54   55 1    
   106   54  110 1    
   107   55   56 1    
   108   55   59 1    
   109   55  111 1    
   110   56   57 am   BACKBONE|DICT|INTERRES
   111   56   58 2    
   112   57  112 1    
   113   57  113 1    
   114   59   60 1    
   115   59  114 1    
   116   59  115 1    
   117   60   61 1    
   118   61  116 1    
   119   61  117 1    
@<TRIPOS>SUBSTRUCTURE
     1 UNK         1 GROUP             0       ****    0 ROOT    
