@<TRIPOS>MOLECULE
3R8
117   119    1
SMALL
USER_CHARGES


@<TRIPOS>ATOM
      1 CA         20.7673  -27.7645  -49.5786 C.3       0 UNK        -0.2013 
      2 C          19.7551  -27.1660  -48.6132 C.2       0 UNK         0.4866 
      3 O          19.3015  -26.0419  -48.8278 O.2       0 UNK        -0.5176 
      4 N          19.4080  -27.9108  -47.5534 N.am      1 UNK        -0.4884 
      5 CA         18.4374  -27.5479  -46.5066 C.3       1 UNK         0.0853 
      6 C6         16.9706  -27.4621  -47.0173 C.3       10 UNK        -0.0849 
      7 S7         16.3937  -29.0521  -47.7089 S.3       10 UNK        -0.2776 
      8 C8         15.4198  -29.7407  -46.3269 C.3       10 UNK         0.0316 
      9 C9         16.2530  -29.9004  -45.0620 C.ar      10 UNK        -0.0863 
     10 C10        17.2669  -30.8608  -45.0023 C.ar      10 UNK        -0.1009 
     11 C11        18.0712  -30.9765  -43.8644 C.ar      10 UNK        -0.0712 
     12 C12        17.8438  -30.1306  -42.7728 C.ar      10 UNK        -0.0894 
     13 C13        16.8125  -29.1873  -42.8088 C.ar      10 UNK        -0.0745 
     14 C14        16.0229  -29.0758  -43.9570 C.ar      10 UNK        -0.0972 
     15 C15        16.5292  -28.2963  -41.6077 C.3       10 UNK         0.0209 
     16 S16        17.0999  -26.5929  -41.8978 S.3       10 UNK        -0.2568 
     17 C17        18.5106  -26.4404  -40.7489 C.3       10 UNK        -0.0983 
     18 CA         19.8442  -27.0288  -41.2972 C.3       3 UNK         0.0876 
     19 N          20.1589  -26.5965  -42.6641 N.am      3 UNK        -0.4424 
     20 C          20.4654  -25.3559  -43.0733 C.2       2 UNK         0.4918 
     21 O          20.4999  -24.3678  -42.3388 O.2       2 UNK        -0.4875 
     22 CA         20.7982  -25.1895  -44.5686 C.3       2 UNK         0.0481 
     23 CB         22.3224  -25.1977  -44.7745 C.3       2 UNK        -0.1831 
     24 N          20.1883  -26.2208  -45.4160 N.am      2 UNK        -0.4498 
     25 C          18.8775  -26.3085  -45.6940 C.2       1 UNK         0.5027 
     26 O          18.0478  -25.4745  -45.3278 O.2       1 UNK        -0.4969 
     27 C          21.0570  -26.8063  -40.3601 C.2       3 UNK         0.5005 
     28 O          22.1977  -26.9207  -40.8193 O.2       3 UNK        -0.5279 
     29 N          20.8006  -26.5189  -39.0720 N.am      4 UNK        -0.4463 
     30 CA         21.7368  -26.0235  -38.0463 C.3       4 UNK         0.0283 
     31 CB         22.1144  -24.5616  -38.3681 C.3       4 UNK        -0.1875 
     32 C          22.9927  -26.8867  -37.7958 C.2       4 UNK         0.4949 
     33 O          23.9887  -26.3688  -37.2897 O.2       4 UNK        -0.5039 
     34 N          22.9416  -28.1682  -38.1889 N.am      5 UNK        -0.4663 
     35 CA         24.0599  -29.1205  -38.2771 C.3       5 UNK         0.0242 
     36 CB         24.6447  -29.4324  -36.8829 C.3       5 UNK        -0.1982 
     37 C          25.1489  -28.7233  -39.3010 C.2       5 UNK         0.5017 
     38 O          26.2198  -29.3326  -39.3081 O.2       5 UNK        -0.5012 
     39 N          24.8553  -27.7387  -40.1630 N.am      6 UNK        -0.4439 
     40 CA         25.6476  -27.3846  -41.3394 C.3       6 UNK         0.0297 
     41 CB         25.4022  -25.9113  -41.7056 C.3       6 UNK        -0.2006 
     42 C          25.2811  -28.3087  -42.5089 C.2       6 UNK         0.4892 
     43 O          26.1714  -28.7567  -43.2325 O.2       6 UNK        -0.5089 
     44 N          23.9803  -28.6061  -42.6424 N.am      7 UNK        -0.4243 
     45 CA         23.4626  -29.6704  -43.4991 C.3       7 UNK         0.0196 
     46 CB         21.9837  -29.3906  -43.8066 C.3       7 UNK        -0.2007 
     47 C          23.6331  -31.0401  -42.8187 C.2       7 UNK         0.5020 
     48 O          23.7143  -31.1174  -41.5895 O.2       7 UNK        -0.5147 
     49 N          23.6376  -32.1033  -43.6344 N.am      8 UNK        -0.4734 
     50 CA         23.8931  -33.4974  -43.2372 C.3       8 UNK         0.0238 
     51 CB         23.9100  -34.3773  -44.4984 C.3       8 UNK        -0.1912 
     52 C          22.9282  -34.0877  -42.1895 C.2       8 UNK         0.5038 
     53 O          23.2713  -35.0883  -41.5583 O.2       8 UNK        -0.5046 
     54 N          21.7567  -33.4645  -42.0192 N.am      9 UNK        -0.4200 
     55 CA         20.7700  -33.7820  -40.9754 C.3       9 UNK         0.0839 
     56 C          21.2388  -33.4283  -39.5330 C.2       9 UNK         0.5513 
     57 N          22.2606  -32.5985  -39.3478 N.am      9 UNK        -0.7519 
     58 O          20.6615  -33.9178  -38.5659 O.2       9 UNK        -0.4960 
     59 C59        19.3884  -33.1353  -41.2629 C.3       10 UNK        -0.0876 
     60 S60        18.7440  -33.5097  -42.9313 S.3       10 UNK        -0.2414 
     61 C61        19.1987  -31.9982  -43.8383 C.3       10 UNK         0.0169 
     62 H62        21.6493  -27.1274  -49.6401 H         1 UNK         0.0903 
     63 H63        21.0884  -28.7594  -49.2709 H         1 UNK         0.0903 
     64 H64        20.3332  -27.8423  -50.5750 H         1 UNK         0.0903 
     65 H65        19.8102  -28.8333  -47.4584 H         1 UNK         0.3096 
     66 H66        18.4736  -28.3613  -45.7814 H         1 UNK         0.1121 
     67 H67        16.2923  -27.1667  -46.2148 H         1 UNK         0.0849 
     68 H68        16.8755  -26.6925  -47.7846 H         1 UNK         0.0849 
     69 H69        14.5539  -29.1020  -46.1456 H         1 UNK         0.0865 
     70 H70        15.0234  -30.7134  -46.6218 H         1 UNK         0.0865 
     71 H71        17.4437  -31.5019  -45.8554 H         1 UNK         0.1346 
     72 H72        18.4599  -30.2100  -41.8901 H         1 UNK         0.1412 
     73 H73        15.2354  -28.3349  -43.9901 H         1 UNK         0.1426 
     74 H74        16.9829  -28.7070  -40.7047 H         1 UNK         0.0716 
     75 H75        15.4544  -28.2768  -41.4214 H         1 UNK         0.0716 
     76 H76        18.2305  -26.9117  -39.8055 H         1 UNK         0.0695 
     77 H77        18.6293  -25.3766  -40.5338 H         1 UNK         0.0695 
     78 H78        19.7222  -28.1107  -41.3514 H         1 UNK         0.0983 
     79 H79        20.1574  -27.3245  -43.3594 H         1 UNK         0.3095 
     80 H80        20.4168  -24.2173  -44.8878 H         1 UNK         0.0454 
     81 H81        22.7730  -26.1399  -44.4604 H         1 UNK         0.0851 
     82 H82        22.7962  -24.4059  -44.1925 H         1 UNK         0.0851 
     83 H83        22.5846  -25.0293  -45.8190 H         1 UNK         0.0851 
     84 H84        20.8059  -26.9144  -45.8121 H         1 UNK         0.2976 
     85 H85        19.8307  -26.5138  -38.7875 H         1 UNK         0.3116 
     86 H86        21.1847  -26.0234  -37.1054 H         1 UNK         0.0646 
     87 H87        22.7167  -24.4939  -39.2752 H         1 UNK         0.0847 
     88 H88        22.6910  -24.1117  -37.5590 H         1 UNK         0.0847 
     89 H89        21.2279  -23.9434  -38.5099 H         1 UNK         0.0847 
     90 H90        22.0716  -28.4846  -38.5940 H         1 UNK         0.3040 
     91 H91        23.6306  -30.0456  -38.6648 H         1 UNK         0.1015 
     92 H92        25.1767  -28.5782  -36.4637 H         1 UNK         0.0786 
     93 H93        25.3536  -30.2598  -36.9331 H         1 UNK         0.0786 
     94 H94        23.8632  -29.7205  -36.1799 H         1 UNK         0.0786 
     95 H95        23.9274  -27.3257  -40.1128 H         1 UNK         0.3172 
     96 H96        26.7088  -27.5117  -41.1151 H         1 UNK         0.0595 
     97 H97        26.0024  -25.6206  -42.5687 H         1 UNK         0.0839 
     98 H98        25.6739  -25.2494  -40.8832 H         1 UNK         0.0839 
     99 H99        24.3578  -25.7201  -41.9563 H         1 UNK         0.0839 
    100 H100       23.3282  -28.1879  -41.9882 H         1 UNK         0.2998 
    101 H101       24.0218  -29.6714  -44.4375 H         1 UNK         0.0822 
    102 H102       21.5881  -30.1179  -44.5160 H         1 UNK         0.0787 
    103 H103       21.3694  -29.4308  -42.9064 H         1 UNK         0.0787 
    104 H104       21.8607  -28.4090  -44.2600 H         1 UNK         0.0787 
    105 H105       23.5394  -31.9409  -44.6269 H         1 UNK         0.3055 
    106 H106       24.8883  -33.5254  -42.7877 H         1 UNK         0.1106 
    107 H107       24.1312  -35.4163  -44.2491 H         1 UNK         0.0828 
    108 H108       22.9477  -34.3644  -45.0118 H         1 UNK         0.0828 
    109 H109       24.6737  -34.0492  -45.2038 H         1 UNK         0.0828 
    110 H110       21.5716  -32.6497  -42.5807 H         1 UNK         0.2931 
    111 H111       20.6306  -34.8648  -40.9939 H         1 UNK         0.0412 
    112 H112       22.7463  -32.1852  -40.1366 H         1 UNK         0.3472 
    113 H113       22.5570  -32.3933  -38.4075 H         1 UNK         0.3472 
    114 H114       19.4392  -32.0568  -41.1168 H         1 UNK         0.0970 
    115 H115       18.6515  -33.4953  -40.5423 H         1 UNK         0.0970 
    116 H116       19.4750  -32.2779  -44.8562 H         1 UNK         0.0612 
    117 H117       20.0898  -31.5548  -43.3973 H         1 UNK         0.0612 
@<TRIPOS>BOND
     1    1    2 1    
     2    1   62 1    
     3    1   63 1    
     4    1   64 1    
     5    2    3 2    
     6    2    4 am   BACKBONE|DICT|INTERRES
     7    4    5 1    
     8    4   65 1    
     9    5    6 1    
    10    5   25 1    
    11    5   66 1    
    12    6    7 1    
    13    6   67 1    
    14    6   68 1    
    15    7    8 1    
    16    8    9 1    
    17    8   69 1    
    18    8   70 1    
    19    9   10 ar   
    20    9   14 ar   
    21   10   11 ar   
    22   10   71 1    
    23   11   12 ar   
    24   11   61 1    
    25   12   13 ar   
    26   12   72 1    
    27   13   14 ar   
    28   13   15 1    
    29   14   73 1    
    30   15   16 1    
    31   15   74 1    
    32   15   75 1    
    33   16   17 1    
    34   17   18 1    
    35   17   76 1    
    36   17   77 1    
    37   18   19 1    
    38   18   27 1    
    39   18   78 1    
    40   19   20 am   BACKBONE|DICT|INTERRES
    41   19   79 1    
    42   20   21 2    
    43   20   22 1    
    44   22   23 1    
    45   22   24 1    
    46   22   80 1    
    47   23   81 1    
    48   23   82 1    
    49   23   83 1    
    50   24   25 am   BACKBONE|DICT|INTERRES
    51   24   84 1    
    52   25   26 2    
    53   27   28 2    
    54   27   29 am   BACKBONE|DICT|INTERRES
    55   29   30 1    
    56   29   85 1    
    57   30   31 1    
    58   30   32 1    
    59   30   86 1    
    60   31   87 1    
    61   31   88 1    
    62   31   89 1    
    63   32   33 2    
    64   32   34 am   BACKBONE|DICT|INTERRES
    65   34   35 1    
    66   34   90 1    
    67   35   36 1    
    68   35   37 1    
    69   35   91 1    
    70   36   92 1    
    71   36   93 1    
    72   36   94 1    
    73   37   38 2    
    74   37   39 am   BACKBONE|DICT|INTERRES
    75   39   40 1    
    76   39   95 1    
    77   40   41 1    
    78   40   42 1    
    79   40   96 1    
    80   41   97 1    
    81   41   98 1    
    82   41   99 1    
    83   42   43 2    
    84   42   44 am   BACKBONE|DICT|INTERRES
    85   44   45 1    
    86   44  100 1    
    87   45   46 1    
    88   45   47 1    
    89   45  101 1    
    90   46  102 1    
    91   46  103 1    
    92   46  104 1    
    93   47   48 2    
    94   47   49 am   BACKBONE|DICT|INTERRES
    95   49   50 1    
    96   49  105 1    
    97   50   51 1    
    98   50   52 1    
    99   50  106 1    
   100   51  107 1    
   101   51  108 1    
   102   51  109 1    
   103   52   53 2    
   104   52   54 am   BACKBONE|DICT|INTERRES
   105   54   55 1    
   106   54  110 1    
   107   55   56 1    
   108   55   59 1    
   109   55  111 1    
   110   56   57 am   BACKBONE|DICT|INTERRES
   111   56   58 2    
   112   57  112 1    
   113   57  113 1    
   114   59   60 1    
   115   59  114 1    
   116   59  115 1    
   117   60   61 1    
   118   61  116 1    
   119   61  117 1    
@<TRIPOS>SUBSTRUCTURE
     1 UNK         1 GROUP             0       ****    0 ROOT    
