@<TRIPOS>MOLECULE
3R8
117   119    1
SMALL
USER_CHARGES


@<TRIPOS>ATOM
      1 CA         15.8216  -23.7377  -40.0985 C.3       0 UNK        -0.2013 
      2 C          15.4178  -24.3161  -41.4467 C.2       0 UNK         0.4866 
      3 O          14.5089  -23.7891  -42.0884 O.2       0 UNK        -0.5176 
      4 N          16.0798  -25.4001  -41.8709 N.am      1 UNK        -0.4884 
      5 CA         15.8770  -26.0601  -43.1634 C.3       1 UNK         0.0853 
      6 C6         16.2611  -27.5632  -43.0822 C.3       10 UNK        -0.0849 
      7 S7         15.4758  -28.5962  -44.3674 S.3       10 UNK        -0.2776 
      8 C8         16.7486  -28.6926  -45.6819 C.3       10 UNK         0.0316 
      9 C9         18.0924  -29.3271  -45.3065 C.ar      10 UNK        -0.0863 
     10 C10        18.2957  -30.0378  -44.1169 C.ar      10 UNK        -0.1009 
     11 C11        19.5479  -30.5746  -43.8065 C.ar      10 UNK        -0.0712 
     12 C12        20.6088  -30.4176  -44.7026 C.ar      10 UNK        -0.0894 
     13 C13        20.4186  -29.7371  -45.9098 C.ar      10 UNK        -0.0745 
     14 C14        19.1598  -29.2006  -46.2027 C.ar      10 UNK        -0.0972 
     15 C15        21.5603  -29.6191  -46.9146 C.3       10 UNK         0.0209 
     16 S16        21.9633  -27.8952  -47.3532 S.3       10 UNK        -0.2568 
     17 C17        22.7853  -27.3151  -45.8329 C.3       10 UNK        -0.0983 
     18 CA         22.6988  -25.7709  -45.6497 C.3       3 UNK         0.0876 
     19 N          21.3283  -25.2395  -45.6688 N.am      3 UNK        -0.4424 
     20 C          20.2817  -25.6451  -44.9378 C.2       2 UNK         0.4918 
     21 O          20.3294  -26.5089  -44.0567 O.2       2 UNK        -0.4875 
     22 CA         18.9319  -24.9905  -45.2793 C.3       2 UNK         0.0481 
     23 CB         18.5567  -25.2404  -46.7585 C.3       2 UNK        -0.1831 
     24 N          17.9440  -25.5649  -44.3715 N.am      2 UNK        -0.4498 
     25 C          16.6428  -25.2805  -44.2528 C.2       1 UNK         0.5027 
     26 O          16.0562  -24.4355  -44.9310 O.2       1 UNK        -0.4969 
     27 C          23.4994  -25.3313  -44.4061 C.2       3 UNK         0.5005 
     28 O          22.9350  -25.0620  -43.3436 O.2       3 UNK        -0.5279 
     29 N          24.8324  -25.3121  -44.5519 N.am      4 UNK        -0.4463 
     30 CA         25.7745  -25.1945  -43.4328 C.3       4 UNK         0.0283 
     31 CB         27.1619  -24.8000  -43.9639 C.3       4 UNK        -0.1875 
     32 C          25.8577  -26.5032  -42.6253 C.2       4 UNK         0.4949 
     33 O          26.0652  -26.4635  -41.4136 O.2       4 UNK        -0.5039 
     34 N          25.6507  -27.6382  -43.3081 N.am      5 UNK        -0.4663 
     35 CA         25.6267  -28.9917  -42.7514 C.3       5 UNK         0.0242 
     36 CB         26.1456  -29.9729  -43.8201 C.3       5 UNK        -0.1982 
     37 C          24.2327  -29.3935  -42.2282 C.2       5 UNK         0.5017 
     38 O          23.8697  -30.5666  -42.3108 O.2       5 UNK        -0.5012 
     39 N          23.4738  -28.4360  -41.6748 N.am      6 UNK        -0.4439 
     40 CA         22.1378  -28.6432  -41.0982 C.3       6 UNK         0.0297 
     41 CB         21.5551  -27.2899  -40.6641 C.3       6 UNK        -0.2006 
     42 C          22.1073  -29.6451  -39.9253 C.2       6 UNK         0.4892 
     43 O          21.0787  -30.2802  -39.6939 O.2       6 UNK        -0.5089 
     44 N          23.2437  -29.7982  -39.2310 N.am      7 UNK        -0.4243 
     45 CA         23.4571  -30.7819  -38.1683 C.3       7 UNK         0.0196 
     46 CB         24.7695  -30.4522  -37.4389 C.3       7 UNK        -0.2007 
     47 C          23.4699  -32.2429  -38.6583 C.2       7 UNK         0.5020 
     48 O          23.2504  -33.1399  -37.8438 O.2       7 UNK        -0.5147 
     49 N          23.7063  -32.4771  -39.9605 N.am      8 UNK        -0.4734 
     50 CA         23.7516  -33.8159  -40.5665 C.3       8 UNK         0.0238 
     51 CB         24.2861  -33.7166  -42.0044 C.3       8 UNK        -0.1912 
     52 C          22.4003  -34.5529  -40.5495 C.2       8 UNK         0.5038 
     53 O          22.3880  -35.7827  -40.6178 O.2       8 UNK        -0.5046 
     54 N          21.3004  -33.7977  -40.4394 N.am      9 UNK        -0.4200 
     55 CA         19.9422  -34.3199  -40.2388 C.3       9 UNK         0.0839 
     56 C          19.6562  -34.7909  -38.7812 C.2       9 UNK         0.5513 
     57 N          20.5424  -34.5804  -37.8133 N.am      9 UNK        -0.7519 
     58 O          18.6047  -35.3714  -38.5243 O.2       9 UNK        -0.4960 
     59 C59        18.8687  -33.3113  -40.7211 C.3       10 UNK        -0.0876 
     60 S60        18.9807  -32.9507  -42.5082 S.3       10 UNK        -0.2414 
     61 C61        19.7444  -31.3012  -42.4866 C.3       10 UNK         0.0169 
     62 H62        14.9663  -23.7286  -39.4230 H         1 UNK         0.0903 
     63 H63        16.6182  -24.3140  -39.6276 H         1 UNK         0.0903 
     64 H64        16.1710  -22.7124  -40.2197 H         1 UNK         0.0903 
     65 H65        16.8247  -25.7728  -41.2990 H         1 UNK         0.3096 
     66 H66        14.8143  -26.0009  -43.4114 H         1 UNK         0.1121 
     67 H67        15.9028  -27.9673  -42.1339 H         1 UNK         0.0849 
     68 H68        17.3395  -27.7190  -43.0560 H         1 UNK         0.0849 
     69 H69        16.3278  -29.2629  -46.5110 H         1 UNK         0.0865 
     70 H70        16.9164  -27.6871  -46.0658 H         1 UNK         0.0865 
     71 H71        17.4864  -30.1779  -43.4150 H         1 UNK         0.1346 
     72 H72        21.5784  -30.8326  -44.4618 H         1 UNK         0.1412 
     73 H73        19.0160  -28.6776  -47.1381 H         1 UNK         0.1426 
     74 H74        21.2769  -30.1508  -47.8237 H         1 UNK         0.0716 
     75 H75        22.4617  -30.1091  -46.5429 H         1 UNK         0.0716 
     76 H76        22.3595  -27.8323  -44.9711 H         1 UNK         0.0695 
     77 H77        23.8253  -27.6398  -45.8907 H         1 UNK         0.0695 
     78 H78        23.1879  -25.3106  -46.5100 H         1 UNK         0.0983 
     79 H79        21.1744  -24.4994  -46.3376 H         1 UNK         0.3095 
     80 H80        19.0000  -23.9187  -45.0860 H         1 UNK         0.0454 
     81 H81        19.2544  -24.7429  -47.4323 H         1 UNK         0.0851 
     82 H82        18.5777  -26.3011  -47.0053 H         1 UNK         0.0851 
     83 H83        17.5668  -24.8586  -47.0052 H         1 UNK         0.0851 
     84 H84        18.3617  -26.2597  -43.7614 H         1 UNK         0.2976 
     85 H85        25.2308  -25.4953  -45.4627 H         1 UNK         0.3116 
     86 H86        25.4292  -24.4052  -42.7611 H         1 UNK         0.0646 
     87 H87        27.8730  -24.6846  -43.1444 H         1 UNK         0.0847 
     88 H88        27.1277  -23.8491  -44.4961 H         1 UNK         0.0847 
     89 H89        27.5678  -25.5514  -44.6424 H         1 UNK         0.0847 
     90 H90        25.4714  -27.5654  -44.2979 H         1 UNK         0.3040 
     91 H91        26.3077  -29.0376  -41.8982 H         1 UNK         0.1015 
     92 H92        27.1364  -29.6876  -44.1746 H         1 UNK         0.0786 
     93 H93        25.4790  -30.0192  -44.6826 H         1 UNK         0.0786 
     94 H94        26.2296  -30.9841  -43.4188 H         1 UNK         0.0786 
     95 H95        23.8457  -27.4965  -41.6404 H         1 UNK         0.3172 
     96 H96        21.5028  -29.0434  -41.8903 H         1 UNK         0.0595 
     97 H97        21.4791  -26.6036  -41.5081 H         1 UNK         0.0839 
     98 H98        22.1645  -26.8131  -39.8955 H         1 UNK         0.0839 
     99 H99        20.5498  -27.4106  -40.2580 H         1 UNK         0.0839 
    100 H100       24.0354  -29.2270  -39.4874 H         1 UNK         0.2998 
    101 H101       22.6350  -30.6881  -37.4553 H         1 UNK         0.0822 
    102 H102       24.7464  -29.4490  -37.0125 H         1 UNK         0.0787 
    103 H103       24.9441  -31.1472  -36.6161 H         1 UNK         0.0787 
    104 H104       25.6297  -30.5155  -38.1067 H         1 UNK         0.0787 
    105 H105       23.8379  -31.6934  -40.5923 H         1 UNK         0.3055 
    106 H106       24.4520  -34.4181  -39.9831 H         1 UNK         0.1106 
    107 H107       23.5967  -33.1756  -42.6540 H         1 UNK         0.0828 
    108 H108       25.2500  -33.2086  -42.0392 H         1 UNK         0.0828 
    109 H109       24.4265  -34.7083  -42.4368 H         1 UNK         0.0828 
    110 H110       21.4095  -32.7961  -40.3701 H         1 UNK         0.2931 
    111 H111       19.8406  -35.2136  -40.8578 H         1 UNK         0.0412 
    112 H112       20.3325  -34.9004  -36.8810 H         1 UNK         0.3472 
    113 H113       21.4228  -34.1131  -37.9945 H         1 UNK         0.3472 
    114 H114       18.9258  -32.3874  -40.1426 H         1 UNK         0.0970 
    115 H115       17.8677  -33.7097  -40.5439 H         1 UNK         0.0970 
    116 H116       20.8053  -31.4047  -42.2545 H         1 UNK         0.0612 
    117 H117       19.3037  -30.6988  -41.6915 H         1 UNK         0.0612 
@<TRIPOS>BOND
     1    1    2 1    
     2    1   62 1    
     3    1   63 1    
     4    1   64 1    
     5    2    3 2    
     6    2    4 am   BACKBONE|DICT|INTERRES
     7    4    5 1    
     8    4   65 1    
     9    5    6 1    
    10    5   25 1    
    11    5   66 1    
    12    6    7 1    
    13    6   67 1    
    14    6   68 1    
    15    7    8 1    
    16    8    9 1    
    17    8   69 1    
    18    8   70 1    
    19    9   10 ar   
    20    9   14 ar   
    21   10   11 ar   
    22   10   71 1    
    23   11   12 ar   
    24   11   61 1    
    25   12   13 ar   
    26   12   72 1    
    27   13   14 ar   
    28   13   15 1    
    29   14   73 1    
    30   15   16 1    
    31   15   74 1    
    32   15   75 1    
    33   16   17 1    
    34   17   18 1    
    35   17   76 1    
    36   17   77 1    
    37   18   19 1    
    38   18   27 1    
    39   18   78 1    
    40   19   20 am   BACKBONE|DICT|INTERRES
    41   19   79 1    
    42   20   21 2    
    43   20   22 1    
    44   22   23 1    
    45   22   24 1    
    46   22   80 1    
    47   23   81 1    
    48   23   82 1    
    49   23   83 1    
    50   24   25 am   BACKBONE|DICT|INTERRES
    51   24   84 1    
    52   25   26 2    
    53   27   28 2    
    54   27   29 am   BACKBONE|DICT|INTERRES
    55   29   30 1    
    56   29   85 1    
    57   30   31 1    
    58   30   32 1    
    59   30   86 1    
    60   31   87 1    
    61   31   88 1    
    62   31   89 1    
    63   32   33 2    
    64   32   34 am   BACKBONE|DICT|INTERRES
    65   34   35 1    
    66   34   90 1    
    67   35   36 1    
    68   35   37 1    
    69   35   91 1    
    70   36   92 1    
    71   36   93 1    
    72   36   94 1    
    73   37   38 2    
    74   37   39 am   BACKBONE|DICT|INTERRES
    75   39   40 1    
    76   39   95 1    
    77   40   41 1    
    78   40   42 1    
    79   40   96 1    
    80   41   97 1    
    81   41   98 1    
    82   41   99 1    
    83   42   43 2    
    84   42   44 am   BACKBONE|DICT|INTERRES
    85   44   45 1    
    86   44  100 1    
    87   45   46 1    
    88   45   47 1    
    89   45  101 1    
    90   46  102 1    
    91   46  103 1    
    92   46  104 1    
    93   47   48 2    
    94   47   49 am   BACKBONE|DICT|INTERRES
    95   49   50 1    
    96   49  105 1    
    97   50   51 1    
    98   50   52 1    
    99   50  106 1    
   100   51  107 1    
   101   51  108 1    
   102   51  109 1    
   103   52   53 2    
   104   52   54 am   BACKBONE|DICT|INTERRES
   105   54   55 1    
   106   54  110 1    
   107   55   56 1    
   108   55   59 1    
   109   55  111 1    
   110   56   57 am   BACKBONE|DICT|INTERRES
   111   56   58 2    
   112   57  112 1    
   113   57  113 1    
   114   59   60 1    
   115   59  114 1    
   116   59  115 1    
   117   60   61 1    
   118   61  116 1    
   119   61  117 1    
@<TRIPOS>SUBSTRUCTURE
     1 UNK         1 GROUP             0       ****    0 ROOT    
