@<TRIPOS>MOLECULE
3R8
117   119    1
SMALL
USER_CHARGES


@<TRIPOS>ATOM
      1 CA         11.6740  -26.1912  -42.5193 C.3       0 UNK        -0.2013 
      2 C          13.0004  -25.5576  -42.9124 C.2       0 UNK         0.4866 
      3 O          13.2586  -24.4092  -42.5508 O.2       0 UNK        -0.5176 
      4 N          13.8308  -26.2948  -43.6591 N.am      1 UNK        -0.4884 
      5 CA         15.1732  -25.8965  -44.0896 C.3       1 UNK         0.0853 
      6 C6         15.4808  -26.3644  -45.5427 C.3       10 UNK        -0.0849 
      7 S7         15.1405  -28.1329  -45.8669 S.3       10 UNK        -0.2776 
      8 C8         16.3466  -28.5100  -47.1776 C.3       10 UNK         0.0316 
      9 C9         17.7365  -28.7993  -46.6258 C.ar      10 UNK        -0.0863 
     10 C10        17.9746  -29.9866  -45.9274 C.ar      10 UNK        -0.1009 
     11 C11        19.2569  -30.2969  -45.4657 C.ar      10 UNK        -0.0712 
     12 C12        20.3111  -29.4122  -45.7155 C.ar      10 UNK        -0.0894 
     13 C13        20.0890  -28.2251  -46.4213 C.ar      10 UNK        -0.0745 
     14 C14        18.7967  -27.9181  -46.8623 C.ar      10 UNK        -0.0972 
     15 C15        21.2518  -27.3058  -46.7730 C.3       10 UNK         0.0209 
     16 S16        21.4708  -25.9531  -45.5748 S.3       10 UNK        -0.2568 
     17 C17        22.4973  -26.7345  -44.2838 C.3       10 UNK        -0.0983 
     18 CA         21.8788  -26.6042  -42.8688 C.3       3 UNK         0.0876 
     19 N          20.6356  -27.3600  -42.7425 N.am      3 UNK        -0.4424 
     20 C          19.4173  -26.8118  -42.7053 C.2       2 UNK         0.4918 
     21 O          19.2134  -25.5958  -42.7028 O.2       2 UNK        -0.4875 
     22 CA         18.2437  -27.8037  -42.6720 C.3       2 UNK         0.0481 
     23 CB         17.9248  -28.2696  -41.2376 C.3       2 UNK        -0.1831 
     24 N          17.0589  -27.3054  -43.3784 N.am      2 UNK        -0.4498 
     25 C          16.2099  -26.3281  -43.0287 C.2       1 UNK         0.5027 
     26 O          16.2154  -25.7638  -41.9327 O.2       1 UNK        -0.4969 
     27 C          22.8672  -27.1159  -41.8139 C.2       3 UNK         0.5005 
     28 O          23.0074  -28.3318  -41.6466 O.2       3 UNK        -0.5279 
     29 N          23.5954  -26.1887  -41.1755 N.am      4 UNK        -0.4463 
     30 CA         24.6983  -26.4861  -40.2536 C.3       4 UNK         0.0283 
     31 CB         25.1378  -25.1989  -39.5393 C.3       4 UNK        -0.1875 
     32 C          25.8962  -27.1494  -40.9558 C.2       4 UNK         0.4949 
     33 O          26.5793  -27.9673  -40.3423 O.2       4 UNK        -0.5039 
     34 N          26.0865  -26.8442  -42.2483 N.am      5 UNK        -0.4663 
     35 CA         27.0622  -27.4899  -43.1344 C.3       5 UNK         0.0242 
     36 CB         27.1134  -26.7244  -44.4665 C.3       5 UNK        -0.1982 
     37 C          26.7733  -28.9832  -43.3846 C.2       5 UNK         0.5017 
     38 O          27.7014  -29.7306  -43.6925 O.2       5 UNK        -0.5012 
     39 N          25.5062  -29.3902  -43.2220 N.am      6 UNK        -0.4439 
     40 CA         25.0490  -30.7798  -43.2640 C.3       6 UNK         0.0297 
     41 CB         23.6996  -30.8333  -44.0052 C.3       6 UNK        -0.2006 
     42 C          24.9285  -31.3878  -41.8524 C.2       6 UNK         0.4892 
     43 O          24.3685  -32.4763  -41.7245 O.2       6 UNK        -0.5089 
     44 N          25.4065  -30.6750  -40.8179 N.am      7 UNK        -0.4243 
     45 CA         25.3160  -31.0061  -39.3899 C.3       7 UNK         0.0196 
     46 CB         26.1779  -32.2441  -39.0608 C.3       7 UNK        -0.2007 
     47 C          23.8605  -31.1354  -38.8987 C.2       7 UNK         0.5020 
     48 O          23.5640  -32.0176  -38.0920 O.2       7 UNK        -0.5147 
     49 N          22.9784  -30.2643  -39.4167 N.am      8 UNK        -0.4734 
     50 CA         21.5199  -30.2785  -39.2416 C.3       8 UNK         0.0238 
     51 CB         21.1196  -30.0256  -37.7722 C.3       8 UNK        -0.1912 
     52 C          20.8768  -31.5423  -39.8474 C.2       8 UNK         0.5038 
     53 O          19.9645  -32.1203  -39.2538 O.2       8 UNK        -0.5046 
     54 N          21.3722  -31.9247  -41.0317 N.am      9 UNK        -0.4200 
     55 CA         20.9530  -33.0845  -41.8336 C.3       9 UNK         0.0839 
     56 C          21.3692  -34.4360  -41.1882 C.2       9 UNK         0.5513 
     57 N          22.6209  -34.5686  -40.7709 N.am      9 UNK        -0.7519 
     58 O          20.5746  -35.3662  -41.0705 O.2       9 UNK        -0.4960 
     59 C59        19.4628  -33.0406  -42.2817 C.3       10 UNK        -0.0876 
     60 S60        18.9671  -31.4316  -42.9805 S.3       10 UNK        -0.2414 
     61 C61        19.4978  -31.5940  -44.7086 C.3       10 UNK         0.0169 
     62 H62        11.5686  -27.1999  -42.9185 H         1 UNK         0.0903 
     63 H63        11.5918  -26.2460  -41.4341 H         1 UNK         0.0903 
     64 H64        10.8454  -25.5907  -42.8940 H         1 UNK         0.0903 
     65 H65        13.5657  -27.2345  -43.9215 H         1 UNK         0.3096 
     66 H66        15.2254  -24.8052  -44.1060 H         1 UNK         0.1121 
     67 H67        16.5104  -26.1220  -45.8140 H         1 UNK         0.0849 
     68 H68        14.8630  -25.7896  -46.2346 H         1 UNK         0.0849 
     69 H69        15.9989  -29.3858  -47.7275 H         1 UNK         0.0865 
     70 H70        16.3707  -27.6932  -47.9010 H         1 UNK         0.0865 
     71 H71        17.1595  -30.6740  -45.7446 H         1 UNK         0.1346 
     72 H72        21.3078  -29.6567  -45.3779 H         1 UNK         0.1412 
     73 H73        18.6262  -27.0065  -47.4190 H         1 UNK         0.1426 
     74 H74        22.1784  -27.8742  -46.8667 H         1 UNK         0.0716 
     75 H75        21.0763  -26.8658  -47.7558 H         1 UNK         0.0716 
     76 H76        23.4749  -26.2501  -44.3220 H         1 UNK         0.0695 
     77 H77        22.6713  -27.7830  -44.5311 H         1 UNK         0.0695 
     78 H78        21.6972  -25.5462  -42.6667 H         1 UNK         0.0983 
     79 H79        20.7428  -28.3627  -42.6864 H         1 UNK         0.3095 
     80 H80        18.5518  -28.6737  -43.2463 H         1 UNK         0.0454 
     81 H81        17.0819  -28.9603  -41.2242 H         1 UNK         0.0851 
     82 H82        17.6895  -27.4349  -40.5772 H         1 UNK         0.0851 
     83 H83        18.7759  -28.7937  -40.8022 H         1 UNK         0.0851 
     84 H84        16.9264  -27.7037  -44.3001 H         1 UNK         0.2976 
     85 H85        23.4178  -25.2115  -41.3632 H         1 UNK         0.3116 
     86 H86        24.3287  -27.1860  -39.5007 H         1 UNK         0.0646 
     87 H87        24.3166  -24.7574  -38.9744 H         1 UNK         0.0847 
     88 H88        25.9419  -25.4025  -38.8304 H         1 UNK         0.0847 
     89 H89        25.5057  -24.4492  -40.2410 H         1 UNK         0.0847 
     90 H90        25.4941  -26.1402  -42.6634 H         1 UNK         0.3040 
     91 H91        28.0435  -27.4247  -42.6587 H         1 UNK         0.1015 
     92 H92        26.1525  -26.7439  -44.9823 H         1 UNK         0.0786 
     93 H93        27.8527  -27.1616  -45.1393 H         1 UNK         0.0786 
     94 H94        27.3940  -25.6817  -44.3155 H         1 UNK         0.0786 
     95 H95        24.8169  -28.7116  -42.9256 H         1 UNK         0.3172 
     96 H96        25.7633  -31.3915  -43.8185 H         1 UNK         0.0595 
     97 H97        22.9157  -30.3028  -43.4644 H         1 UNK         0.0839 
     98 H98        23.3652  -31.8632  -44.1364 H         1 UNK         0.0839 
     99 H99        23.7779  -30.3946  -45.0000 H         1 UNK         0.0839 
    100 H100       25.8524  -29.7861  -41.0142 H         1 UNK         0.2998 
    101 H101       25.7406  -30.1579  -38.8510 H         1 UNK         0.0822 
    102 H102       26.2217  -32.4149  -37.9845 H         1 UNK         0.0787 
    103 H103       25.7776  -33.1501  -39.5169 H         1 UNK         0.0787 
    104 H104       27.2028  -32.1172  -39.4094 H         1 UNK         0.0787 
    105 H105       23.3127  -29.5903  -40.0999 H         1 UNK         0.3055 
    106 H106       21.1377  -29.4415  -39.8282 H         1 UNK         0.1106 
    107 H107       20.0408  -29.8938  -37.6812 H         1 UNK         0.0828 
    108 H108       21.3977  -30.8568  -37.1239 H         1 UNK         0.0828 
    109 H109       21.5896  -29.1228  -37.3826 H         1 UNK         0.0828 
    110 H110       22.1719  -31.4244  -41.3891 H         1 UNK         0.2931 
    111 H111       21.5455  -33.0229  -42.7469 H         1 UNK         0.0412 
    112 H112       23.2893  -33.8194  -40.9335 H         1 UNK         0.3472 
    113 H113       22.9191  -35.4322  -40.3469 H         1 UNK         0.3472 
    114 H114       18.8078  -33.2484  -41.4340 H         1 UNK         0.0970 
    115 H115       19.2608  -33.8245  -43.0137 H         1 UNK         0.0970 
    116 H116       18.9503  -32.4095  -45.1834 H         1 UNK         0.0612 
    117 H117       20.5543  -31.8640  -44.7411 H         1 UNK         0.0612 
@<TRIPOS>BOND
     1    1    2 1    
     2    1   62 1    
     3    1   63 1    
     4    1   64 1    
     5    2    3 2    
     6    2    4 am   BACKBONE|DICT|INTERRES
     7    4    5 1    
     8    4   65 1    
     9    5    6 1    
    10    5   25 1    
    11    5   66 1    
    12    6    7 1    
    13    6   67 1    
    14    6   68 1    
    15    7    8 1    
    16    8    9 1    
    17    8   69 1    
    18    8   70 1    
    19    9   10 ar   
    20    9   14 ar   
    21   10   11 ar   
    22   10   71 1    
    23   11   12 ar   
    24   11   61 1    
    25   12   13 ar   
    26   12   72 1    
    27   13   14 ar   
    28   13   15 1    
    29   14   73 1    
    30   15   16 1    
    31   15   74 1    
    32   15   75 1    
    33   16   17 1    
    34   17   18 1    
    35   17   76 1    
    36   17   77 1    
    37   18   19 1    
    38   18   27 1    
    39   18   78 1    
    40   19   20 am   BACKBONE|DICT|INTERRES
    41   19   79 1    
    42   20   21 2    
    43   20   22 1    
    44   22   23 1    
    45   22   24 1    
    46   22   80 1    
    47   23   81 1    
    48   23   82 1    
    49   23   83 1    
    50   24   25 am   BACKBONE|DICT|INTERRES
    51   24   84 1    
    52   25   26 2    
    53   27   28 2    
    54   27   29 am   BACKBONE|DICT|INTERRES
    55   29   30 1    
    56   29   85 1    
    57   30   31 1    
    58   30   32 1    
    59   30   86 1    
    60   31   87 1    
    61   31   88 1    
    62   31   89 1    
    63   32   33 2    
    64   32   34 am   BACKBONE|DICT|INTERRES
    65   34   35 1    
    66   34   90 1    
    67   35   36 1    
    68   35   37 1    
    69   35   91 1    
    70   36   92 1    
    71   36   93 1    
    72   36   94 1    
    73   37   38 2    
    74   37   39 am   BACKBONE|DICT|INTERRES
    75   39   40 1    
    76   39   95 1    
    77   40   41 1    
    78   40   42 1    
    79   40   96 1    
    80   41   97 1    
    81   41   98 1    
    82   41   99 1    
    83   42   43 2    
    84   42   44 am   BACKBONE|DICT|INTERRES
    85   44   45 1    
    86   44  100 1    
    87   45   46 1    
    88   45   47 1    
    89   45  101 1    
    90   46  102 1    
    91   46  103 1    
    92   46  104 1    
    93   47   48 2    
    94   47   49 am   BACKBONE|DICT|INTERRES
    95   49   50 1    
    96   49  105 1    
    97   50   51 1    
    98   50   52 1    
    99   50  106 1    
   100   51  107 1    
   101   51  108 1    
   102   51  109 1    
   103   52   53 2    
   104   52   54 am   BACKBONE|DICT|INTERRES
   105   54   55 1    
   106   54  110 1    
   107   55   56 1    
   108   55   59 1    
   109   55  111 1    
   110   56   57 am   BACKBONE|DICT|INTERRES
   111   56   58 2    
   112   57  112 1    
   113   57  113 1    
   114   59   60 1    
   115   59  114 1    
   116   59  115 1    
   117   60   61 1    
   118   61  116 1    
   119   61  117 1    
@<TRIPOS>SUBSTRUCTURE
     1 UNK         1 GROUP             0       ****    0 ROOT    
