@<TRIPOS>MOLECULE
3R8
117   119    1
SMALL
USER_CHARGES


@<TRIPOS>ATOM
      1 CA         16.0247  -27.2294  -38.8181 C.3       0 UNK        -0.2013 
      2 C          15.3736  -27.9680  -39.9853 C.2       0 UNK         0.4866 
      3 O          14.6336  -28.9221  -39.7556 O.2       0 UNK        -0.5176 
      4 N          15.5909  -27.5598  -41.2424 N.am      1 UNK        -0.4884 
      5 CA         16.5046  -26.5044  -41.6939 C.3       1 UNK         0.0853 
      6 C6         16.1014  -25.9338  -43.0843 C.3       10 UNK        -0.0849 
      7 S7         15.5977  -27.1645  -44.3418 S.3       10 UNK        -0.2776 
      8 C8         17.1593  -27.5166  -45.2309 C.3       10 UNK         0.0316 
      9 C9         17.6223  -28.9772  -45.2055 C.ar      10 UNK        -0.0863 
     10 C10        16.9405  -29.9775  -44.4997 C.ar      10 UNK        -0.1009 
     11 C11        17.3963  -31.2959  -44.5041 C.ar      10 UNK        -0.0712 
     12 C12        18.5497  -31.6228  -45.2193 C.ar      10 UNK        -0.0894 
     13 C13        19.2606  -30.6410  -45.9145 C.ar      10 UNK        -0.0745 
     14 C14        18.7790  -29.3243  -45.9151 C.ar      10 UNK        -0.0972 
     15 C15        20.5344  -31.0513  -46.6565 C.3       10 UNK         0.0209 
     16 S16        21.8441  -29.7802  -46.7503 S.3       10 UNK        -0.2568 
     17 C17        22.1293  -29.3575  -44.9974 C.3       10 UNK        -0.0983 
     18 CA         22.1110  -27.8180  -44.7883 C.3       3 UNK         0.0876 
     19 N          21.5698  -27.4757  -43.4777 N.am      3 UNK        -0.4424 
     20 C          20.6900  -26.4986  -43.2542 C.2       2 UNK         0.4918 
     21 O          20.1833  -25.8007  -44.1356 O.2       2 UNK        -0.4875 
     22 CA         20.3319  -26.2327  -41.7878 C.3       2 UNK         0.0481 
     23 CB         21.1041  -25.0142  -41.2566 C.3       2 UNK        -0.1831 
     24 N          18.8963  -25.9967  -41.6541 N.am      2 UNK        -0.4498 
     25 C          17.9761  -26.9690  -41.6652 C.2       1 UNK         0.5027 
     26 O          18.2585  -28.1696  -41.6365 O.2       1 UNK        -0.4969 
     27 C          23.5149  -27.1984  -44.9341 C.2       3 UNK         0.5005 
     28 O          24.0397  -26.5992  -43.9909 O.2       3 UNK        -0.5279 
     29 N          24.1255  -27.3898  -46.1106 N.am      4 UNK        -0.4463 
     30 CA         25.5294  -27.0539  -46.3692 C.3       4 UNK         0.0283 
     31 CB         25.8076  -27.1485  -47.8778 C.3       4 UNK        -0.1875 
     32 C          26.5057  -27.9502  -45.5826 C.2       4 UNK         0.4949 
     33 O          27.6121  -27.5103  -45.2704 O.2       4 UNK        -0.5039 
     34 N          26.0783  -29.1852  -45.2811 N.am      5 UNK        -0.4663 
     35 CA         26.8354  -30.1664  -44.5055 C.3       5 UNK         0.0242 
     36 CB         26.2211  -31.5615  -44.7113 C.3       5 UNK        -0.1982 
     37 C          26.9100  -29.8232  -43.0084 C.2       5 UNK         0.5017 
     38 O          27.9938  -29.9120  -42.4301 O.2       5 UNK        -0.5012 
     39 N          25.7696  -29.4547  -42.4085 N.am      6 UNK        -0.4439 
     40 CA         25.6044  -29.1840  -40.9806 C.3       6 UNK         0.0297 
     41 CB         25.8053  -30.4766  -40.1575 C.3       6 UNK        -0.2006 
     42 C          24.2061  -28.6077  -40.7195 C.2       6 UNK         0.4892 
     43 O          23.3346  -28.6684  -41.5922 O.2       6 UNK        -0.5089 
     44 N          24.0117  -28.0926  -39.4987 N.am      7 UNK        -0.4243 
     45 CA         22.7138  -27.6827  -38.9596 C.3       7 UNK         0.0196 
     46 CB         22.9362  -26.9106  -37.6492 C.3       7 UNK        -0.2007 
     47 C          21.7885  -28.8904  -38.7225 C.2       7 UNK         0.5020 
     48 O          22.2844  -29.9932  -38.4825 O.2       7 UNK        -0.5147 
     49 N          20.4682  -28.6505  -38.7700 N.am      8 UNK        -0.4734 
     50 CA         19.3843  -29.6252  -38.5558 C.3       8 UNK         0.0238 
     51 CB         19.2730  -29.9762  -37.0572 C.3       8 UNK        -0.1912 
     52 C          19.5236  -30.8706  -39.4533 C.2       8 UNK         0.5038 
     53 O          19.6713  -31.9865  -38.9510 O.2       8 UNK        -0.5046 
     54 N          19.5262  -30.6273  -40.7683 N.am      9 UNK        -0.4200 
     55 CA         19.7702  -31.5967  -41.8486 C.3       9 UNK         0.0839 
     56 C          21.2356  -32.1119  -41.9678 C.2       9 UNK         0.5513 
     57 N          22.1725  -31.7099  -41.1191 N.am      9 UNK        -0.7519 
     58 O          21.5394  -32.8782  -42.8781 O.2       9 UNK        -0.4960 
     59 C59        18.7509  -32.7749  -41.8827 C.3       10 UNK        -0.0876 
     60 S60        17.0068  -32.2377  -41.9349 S.3       10 UNK        -0.2414 
     61 C61        16.6466  -32.3575  -43.7148 C.3       10 UNK         0.0169 
     62 H62        15.8546  -27.7672  -37.8857 H         1 UNK         0.0903 
     63 H63        17.1008  -27.1322  -38.9462 H         1 UNK         0.0903 
     64 H64        15.5940  -26.2346  -38.7098 H         1 UNK         0.0903 
     65 H65        15.1635  -28.0784  -41.9967 H         1 UNK         0.3096 
     66 H66        16.4303  -25.6776  -40.9844 H         1 UNK         0.1121 
     67 H67        15.2387  -25.2806  -42.9436 H         1 UNK         0.0849 
     68 H68        16.8740  -25.2811  -43.4957 H         1 UNK         0.0849 
     69 H69        17.0301  -27.2097  -46.2697 H         1 UNK         0.0865 
     70 H70        17.9574  -26.8951  -44.8294 H         1 UNK         0.0865 
     71 H71        16.0543  -29.7491  -43.9268 H         1 UNK         0.1346 
     72 H72        18.9072  -32.6435  -45.2161 H         1 UNK         0.1412 
     73 H73        19.3118  -28.5595  -46.4627 H         1 UNK         0.1426 
     74 H74        20.2632  -31.3438  -47.6715 H         1 UNK         0.0716 
     75 H75        20.9687  -31.9357  -46.1868 H         1 UNK         0.0716 
     76 H76        21.3478  -29.8267  -44.3981 H         1 UNK         0.0695 
     77 H77        23.0588  -29.8148  -44.6532 H         1 UNK         0.0695 
     78 H78        21.4833  -27.3625  -45.5576 H         1 UNK         0.0983 
     79 H79        22.0453  -27.9182  -42.6930 H         1 UNK         0.3095 
     80 H80        20.6010  -27.1097  -41.1988 H         1 UNK         0.0454 
     81 H81        22.1809  -25.1652  -41.3482 H         1 UNK         0.0851 
     82 H82        20.8584  -24.1073  -41.8105 H         1 UNK         0.0851 
     83 H83        20.8891  -24.8325  -40.2036 H         1 UNK         0.0851 
     84 H84        18.5979  -25.0331  -41.7071 H         1 UNK         0.2976 
     85 H85        23.6299  -27.8909  -46.8368 H         1 UNK         0.3116 
     86 H86        25.6984  -26.0220  -46.0537 H         1 UNK         0.0646 
     87 H87        26.8413  -26.8796  -48.1003 H         1 UNK         0.0847 
     88 H88        25.1699  -26.4688  -48.4433 H         1 UNK         0.0847 
     89 H89        25.6454  -28.1578  -48.2582 H         1 UNK         0.0847 
     90 H90        25.1652  -29.4648  -45.6062 H         1 UNK         0.3040 
     91 H91        27.8581  -30.1871  -44.8895 H         1 UNK         0.1015 
     92 H92        26.2449  -31.8542  -45.7612 H         1 UNK         0.0786 
     93 H93        25.1845  -31.6054  -44.3743 H         1 UNK         0.0786 
     94 H94        26.7765  -32.3172  -44.1539 H         1 UNK         0.0786 
     95 H95        24.9204  -29.3453  -42.9479 H         1 UNK         0.3172 
     96 H96        26.3421  -28.4371  -40.6809 H         1 UNK         0.0595 
     97 H97        26.8207  -30.8619  -40.2457 H         1 UNK         0.0839 
     98 H98        25.1220  -31.2636  -40.4771 H         1 UNK         0.0839 
     99 H99        25.6273  -30.3080  -39.0948 H         1 UNK         0.0839 
    100 H100       24.7775  -28.1173  -38.8414 H         1 UNK         0.2998 
    101 H101       22.2505  -27.0126  -39.6802 H         1 UNK         0.0822 
    102 H102       23.5672  -26.0354  -37.8057 H         1 UNK         0.0787 
    103 H103       21.9904  -26.5560  -37.2371 H         1 UNK         0.0787 
    104 H104       23.4083  -27.5345  -36.8889 H         1 UNK         0.0787 
    105 H105       20.1652  -27.7080  -38.9707 H         1 UNK         0.3055 
    106 H106       18.4519  -29.1427  -38.8514 H         1 UNK         0.1106 
    107 H107       20.1732  -30.4697  -36.6889 H         1 UNK         0.0828 
    108 H108       19.1084  -29.0848  -36.4520 H         1 UNK         0.0828 
    109 H109       18.4351  -30.6503  -36.8756 H         1 UNK         0.0828 
    110 H110       19.3243  -29.6826  -41.0830 H         1 UNK         0.2931 
    111 H111       19.6221  -31.0093  -42.7535 H         1 UNK         0.0412 
    112 H112       23.1098  -32.0561  -41.2350 H         1 UNK         0.3472 
    113 H113       21.9542  -31.0963  -40.3453 H         1 UNK         0.3472 
    114 H114       18.8808  -33.4141  -41.0085 H         1 UNK         0.0970 
    115 H115       18.9402  -33.4204  -42.7417 H         1 UNK         0.0970 
    116 H116       15.5735  -32.2311  -43.8654 H         1 UNK         0.0612 
    117 H117       16.8896  -33.3586  -44.0744 H         1 UNK         0.0612 
@<TRIPOS>BOND
     1    1    2 1    
     2    1   62 1    
     3    1   63 1    
     4    1   64 1    
     5    2    3 2    
     6    2    4 am   BACKBONE|DICT|INTERRES
     7    4    5 1    
     8    4   65 1    
     9    5    6 1    
    10    5   25 1    
    11    5   66 1    
    12    6    7 1    
    13    6   67 1    
    14    6   68 1    
    15    7    8 1    
    16    8    9 1    
    17    8   69 1    
    18    8   70 1    
    19    9   10 ar   
    20    9   14 ar   
    21   10   11 ar   
    22   10   71 1    
    23   11   12 ar   
    24   11   61 1    
    25   12   13 ar   
    26   12   72 1    
    27   13   14 ar   
    28   13   15 1    
    29   14   73 1    
    30   15   16 1    
    31   15   74 1    
    32   15   75 1    
    33   16   17 1    
    34   17   18 1    
    35   17   76 1    
    36   17   77 1    
    37   18   19 1    
    38   18   27 1    
    39   18   78 1    
    40   19   20 am   BACKBONE|DICT|INTERRES
    41   19   79 1    
    42   20   21 2    
    43   20   22 1    
    44   22   23 1    
    45   22   24 1    
    46   22   80 1    
    47   23   81 1    
    48   23   82 1    
    49   23   83 1    
    50   24   25 am   BACKBONE|DICT|INTERRES
    51   24   84 1    
    52   25   26 2    
    53   27   28 2    
    54   27   29 am   BACKBONE|DICT|INTERRES
    55   29   30 1    
    56   29   85 1    
    57   30   31 1    
    58   30   32 1    
    59   30   86 1    
    60   31   87 1    
    61   31   88 1    
    62   31   89 1    
    63   32   33 2    
    64   32   34 am   BACKBONE|DICT|INTERRES
    65   34   35 1    
    66   34   90 1    
    67   35   36 1    
    68   35   37 1    
    69   35   91 1    
    70   36   92 1    
    71   36   93 1    
    72   36   94 1    
    73   37   38 2    
    74   37   39 am   BACKBONE|DICT|INTERRES
    75   39   40 1    
    76   39   95 1    
    77   40   41 1    
    78   40   42 1    
    79   40   96 1    
    80   41   97 1    
    81   41   98 1    
    82   41   99 1    
    83   42   43 2    
    84   42   44 am   BACKBONE|DICT|INTERRES
    85   44   45 1    
    86   44  100 1    
    87   45   46 1    
    88   45   47 1    
    89   45  101 1    
    90   46  102 1    
    91   46  103 1    
    92   46  104 1    
    93   47   48 2    
    94   47   49 am   BACKBONE|DICT|INTERRES
    95   49   50 1    
    96   49  105 1    
    97   50   51 1    
    98   50   52 1    
    99   50  106 1    
   100   51  107 1    
   101   51  108 1    
   102   51  109 1    
   103   52   53 2    
   104   52   54 am   BACKBONE|DICT|INTERRES
   105   54   55 1    
   106   54  110 1    
   107   55   56 1    
   108   55   59 1    
   109   55  111 1    
   110   56   57 am   BACKBONE|DICT|INTERRES
   111   56   58 2    
   112   57  112 1    
   113   57  113 1    
   114   59   60 1    
   115   59  114 1    
   116   59  115 1    
   117   60   61 1    
   118   61  116 1    
   119   61  117 1    
@<TRIPOS>SUBSTRUCTURE
     1 UNK         1 GROUP             0       ****    0 ROOT    
