@<TRIPOS>MOLECULE
3R8
117   119    1
SMALL
USER_CHARGES


@<TRIPOS>ATOM
      1 CA         14.6032  -26.2927  -48.1692 C.3       0 UNK        -0.2013 
      2 C          15.6378  -26.6470  -47.1114 C.2       0 UNK         0.4866 
      3 O          16.7665  -27.0011  -47.4537 O.2       0 UNK        -0.5176 
      4 N          15.2597  -26.5634  -45.8298 N.am      1 UNK        -0.4884 
      5 CA         16.1350  -26.8185  -44.6807 C.3       1 UNK         0.0853 
      6 C6         15.3222  -26.9921  -43.3734 C.3       10 UNK        -0.0849 
      7 S7         14.4384  -28.5908  -43.3764 S.3       10 UNK        -0.2776 
      8 C8         15.2399  -29.5126  -42.0145 C.3       10 UNK         0.0316 
      9 C9         16.7645  -29.4364  -42.0239 C.ar      10 UNK        -0.0863 
     10 C10        17.4944  -29.7437  -43.1767 C.ar      10 UNK        -0.1009 
     11 C11        18.8871  -29.6279  -43.1875 C.ar      10 UNK        -0.0712 
     12 C12        19.5554  -29.2454  -42.0207 C.ar      10 UNK        -0.0894 
     13 C13        18.8403  -28.9429  -40.8580 C.ar      10 UNK        -0.0745 
     14 C14        17.4460  -29.0413  -40.8681 C.ar      10 UNK        -0.0972 
     15 C15        19.5594  -28.5112  -39.5864 C.3       10 UNK         0.0209 
     16 S16        19.4048  -26.7154  -39.3080 S.3       10 UNK        -0.2568 
     17 C17        21.1186  -26.1297  -39.5457 C.3       10 UNK        -0.0983 
     18 CA         21.6156  -26.2668  -41.0046 C.3       3 UNK         0.0876 
     19 N          20.7106  -25.6369  -41.9764 N.am      3 UNK        -0.4424 
     20 C          20.6383  -25.9647  -43.2711 C.2       2 UNK         0.4918 
     21 O          21.3624  -26.8082  -43.8027 O.2       2 UNK        -0.4875 
     22 CA         19.5883  -25.2269  -44.1031 C.3       2 UNK         0.0481 
     23 CB         20.1375  -24.8173  -45.4836 C.3       2 UNK        -0.1831 
     24 N          18.4368  -26.1075  -44.2533 N.am      2 UNK        -0.4498 
     25 C          17.1922  -25.7075  -44.5372 C.2       1 UNK         0.5027 
     26 O          16.8602  -24.5266  -44.6721 O.2       1 UNK        -0.4969 
     27 C          23.0948  -25.8486  -41.1633 C.2       3 UNK         0.5005 
     28 O          23.9437  -26.3447  -40.4224 O.2       3 UNK        -0.5279 
     29 N          23.4070  -25.0207  -42.1727 N.am      4 UNK        -0.4463 
     30 CA         24.7604  -24.8024  -42.6956 C.3       4 UNK         0.0283 
     31 CB         24.7207  -23.6952  -43.7607 C.3       4 UNK        -0.1875 
     32 C          25.3907  -26.0865  -43.2760 C.2       4 UNK         0.4949 
     33 O          26.6147  -26.2090  -43.2777 O.2       4 UNK        -0.5039 
     34 N          24.5475  -27.0397  -43.7034 N.am      5 UNK        -0.4663 
     35 CA         24.9266  -28.4011  -44.0950 C.3       5 UNK         0.0242 
     36 CB         23.9235  -28.8995  -45.1500 C.3       5 UNK        -0.1982 
     37 C          25.0110  -29.3729  -42.8953 C.2       5 UNK         0.5017 
     38 O          25.0470  -30.5854  -43.1136 O.2       5 UNK        -0.5012 
     39 N          25.0306  -28.8331  -41.6653 N.am      6 UNK        -0.4439 
     40 CA         25.0085  -29.5024  -40.3596 C.3       6 UNK         0.0297 
     41 CB         26.1467  -30.5389  -40.2312 C.3       6 UNK        -0.2006 
     42 C          23.6357  -30.1132  -40.0319 C.2       6 UNK         0.4892 
     43 O          22.7532  -30.1811  -40.8896 O.2       6 UNK        -0.5089 
     44 N          23.4875  -30.5793  -38.7836 N.am      7 UNK        -0.4243 
     45 CA         22.3003  -31.2879  -38.2858 C.3       7 UNK         0.0196 
     46 CB         22.4412  -31.5109  -36.7717 C.3       7 UNK        -0.2007 
     47 C          22.0320  -32.6230  -39.0061 C.2       7 UNK         0.5020 
     48 O          20.8887  -33.0769  -39.0376 O.2       7 UNK        -0.5147 
     49 N          23.0846  -33.2128  -39.5893 N.am      8 UNK        -0.4734 
     50 CA         23.0163  -34.3920  -40.4526 C.3       8 UNK         0.0238 
     51 CB         24.4306  -34.9751  -40.6096 C.3       8 UNK        -0.1912 
     52 C          22.3994  -34.1083  -41.8359 C.2       8 UNK         0.5038 
     53 O          21.9668  -35.0600  -42.4867 O.2       8 UNK        -0.5046 
     54 N          22.3702  -32.8337  -42.2589 N.am      9 UNK        -0.4200 
     55 CA         21.8795  -32.3649  -43.5619 C.3       9 UNK         0.0839 
     56 C          22.7029  -32.9572  -44.7426 C.2       9 UNK         0.5513 
     57 N          23.9927  -32.6542  -44.8056 N.am      9 UNK        -0.7519 
     58 O          22.1989  -33.6978  -45.5837 O.2       9 UNK        -0.4960 
     59 C59        20.3369  -32.5249  -43.6836 C.3       10 UNK        -0.0876 
     60 S60        19.5839  -31.5880  -45.0581 S.3       10 UNK        -0.2414 
     61 C61        19.6698  -29.8677  -44.4704 C.3       10 UNK         0.0169 
     62 H62        14.4334  -27.1440  -48.8278 H         1 UNK         0.0903 
     63 H63        13.6478  -26.0102  -47.7275 H         1 UNK         0.0903 
     64 H64        14.9567  -25.4584  -48.7746 H         1 UNK         0.0903 
     65 H65        14.3235  -26.2579  -45.6056 H         1 UNK         0.3096 
     66 H66        16.6686  -27.7478  -44.8873 H         1 UNK         0.1121 
     67 H67        14.5964  -26.1851  -43.2581 H         1 UNK         0.0849 
     68 H68        15.9654  -26.9334  -42.4935 H         1 UNK         0.0849 
     69 H69        14.8437  -29.1348  -41.0706 H         1 UNK         0.0865 
     70 H70        14.9391  -30.5595  -42.0727 H         1 UNK         0.0865 
     71 H71        16.9759  -30.0499  -44.0753 H         1 UNK         0.1346 
     72 H72        20.6335  -29.1741  -42.0268 H         1 UNK         0.1412 
     73 H73        16.8928  -28.7996  -39.9705 H         1 UNK         0.1426 
     74 H74        20.6102  -28.7988  -39.6236 H         1 UNK         0.0716 
     75 H75        19.1320  -29.0385  -38.7323 H         1 UNK         0.0716 
     76 H76        21.1658  -25.0870  -39.2268 H         1 UNK         0.0695 
     77 H77        21.7631  -26.6863  -38.8622 H         1 UNK         0.0695 
     78 H78        21.6286  -27.3333  -41.2292 H         1 UNK         0.0983 
     79 H79        20.0686  -24.9518  -41.6035 H         1 UNK         0.3095 
     80 H80        19.2883  -24.3247  -43.5655 H         1 UNK         0.0454 
     81 H81        21.0331  -24.2032  -45.3825 H         1 UNK         0.0851 
     82 H82        20.4031  -25.6863  -46.0871 H         1 UNK         0.0851 
     83 H83        19.4078  -24.2339  -46.0451 H         1 UNK         0.0851 
     84 H84        18.6276  -27.0911  -44.1134 H         1 UNK         0.2976 
     85 H85        22.6465  -24.6441  -42.7190 H         1 UNK         0.3116 
     86 H86        25.3911  -24.4669  -41.8696 H         1 UNK         0.0646 
     87 H87        25.7202  -23.4925  -44.1483 H         1 UNK         0.0847 
     88 H88        24.3401  -22.7602  -43.3492 H         1 UNK         0.0847 
     89 H89        24.0931  -23.9710  -44.6092 H         1 UNK         0.0847 
     90 H90        23.5511  -26.8522  -43.6808 H         1 UNK         0.3040 
     91 H91        25.9173  -28.3785  -44.5542 H         1 UNK         0.1015 
     92 H92        23.8591  -28.2123  -45.9938 H         1 UNK         0.0786 
     93 H93        22.9243  -29.0070  -44.7292 H         1 UNK         0.0786 
     94 H94        24.2179  -29.8704  -45.5495 H         1 UNK         0.0786 
     95 H95        24.9347  -27.8267  -41.6046 H         1 UNK         0.3172 
     96 H96        25.1871  -28.7157  -39.6251 H         1 UNK         0.0595 
     97 H97        27.1029  -30.1164  -40.5400 H         1 UNK         0.0839 
     98 H98        25.9640  -31.4270  -40.8370 H         1 UNK         0.0839 
     99 H99        26.2655  -30.8725  -39.2001 H         1 UNK         0.0839 
    100 H100       24.2516  -30.4711  -38.1318 H         1 UNK         0.2998 
    101 H101       21.4315  -30.6510  -38.4572 H         1 UNK         0.0822 
    102 H102       22.5439  -30.5656  -36.2385 H         1 UNK         0.0787 
    103 H103       21.5610  -32.0137  -36.3680 H         1 UNK         0.0787 
    104 H104       23.3075  -32.1293  -36.5327 H         1 UNK         0.0787 
    105 H105       23.9879  -32.7738  -39.4903 H         1 UNK         0.3055 
    106 H106       22.3862  -35.1390  -39.9640 H         1 UNK         0.1106 
    107 H107       25.1077  -34.2693  -41.0929 H         1 UNK         0.0828 
    108 H108       24.8587  -35.2475  -39.6447 H         1 UNK         0.0828 
    109 H109       24.4142  -35.8790  -41.2204 H         1 UNK         0.0828 
    110 H110       22.7312  -32.1047  -41.6543 H         1 UNK         0.2931 
    111 H111       22.0908  -31.2954  -43.5626 H         1 UNK         0.0412 
    112 H112       24.5553  -33.0325  -45.5505 H         1 UNK         0.3472 
    113 H113       24.4062  -32.0150  -44.1298 H         1 UNK         0.3472 
    114 H114       19.8561  -32.2112  -42.7559 H         1 UNK         0.0970 
    115 H115       20.0745  -33.5768  -43.8070 H         1 UNK         0.0970 
    116 H116       19.2736  -29.2167  -45.2509 H         1 UNK         0.0612 
    117 H117       20.7135  -29.5815  -44.3456 H         1 UNK         0.0612 
@<TRIPOS>BOND
     1    1    2 1    
     2    1   62 1    
     3    1   63 1    
     4    1   64 1    
     5    2    3 2    
     6    2    4 am   BACKBONE|DICT|INTERRES
     7    4    5 1    
     8    4   65 1    
     9    5    6 1    
    10    5   25 1    
    11    5   66 1    
    12    6    7 1    
    13    6   67 1    
    14    6   68 1    
    15    7    8 1    
    16    8    9 1    
    17    8   69 1    
    18    8   70 1    
    19    9   10 ar   
    20    9   14 ar   
    21   10   11 ar   
    22   10   71 1    
    23   11   12 ar   
    24   11   61 1    
    25   12   13 ar   
    26   12   72 1    
    27   13   14 ar   
    28   13   15 1    
    29   14   73 1    
    30   15   16 1    
    31   15   74 1    
    32   15   75 1    
    33   16   17 1    
    34   17   18 1    
    35   17   76 1    
    36   17   77 1    
    37   18   19 1    
    38   18   27 1    
    39   18   78 1    
    40   19   20 am   BACKBONE|DICT|INTERRES
    41   19   79 1    
    42   20   21 2    
    43   20   22 1    
    44   22   23 1    
    45   22   24 1    
    46   22   80 1    
    47   23   81 1    
    48   23   82 1    
    49   23   83 1    
    50   24   25 am   BACKBONE|DICT|INTERRES
    51   24   84 1    
    52   25   26 2    
    53   27   28 2    
    54   27   29 am   BACKBONE|DICT|INTERRES
    55   29   30 1    
    56   29   85 1    
    57   30   31 1    
    58   30   32 1    
    59   30   86 1    
    60   31   87 1    
    61   31   88 1    
    62   31   89 1    
    63   32   33 2    
    64   32   34 am   BACKBONE|DICT|INTERRES
    65   34   35 1    
    66   34   90 1    
    67   35   36 1    
    68   35   37 1    
    69   35   91 1    
    70   36   92 1    
    71   36   93 1    
    72   36   94 1    
    73   37   38 2    
    74   37   39 am   BACKBONE|DICT|INTERRES
    75   39   40 1    
    76   39   95 1    
    77   40   41 1    
    78   40   42 1    
    79   40   96 1    
    80   41   97 1    
    81   41   98 1    
    82   41   99 1    
    83   42   43 2    
    84   42   44 am   BACKBONE|DICT|INTERRES
    85   44   45 1    
    86   44  100 1    
    87   45   46 1    
    88   45   47 1    
    89   45  101 1    
    90   46  102 1    
    91   46  103 1    
    92   46  104 1    
    93   47   48 2    
    94   47   49 am   BACKBONE|DICT|INTERRES
    95   49   50 1    
    96   49  105 1    
    97   50   51 1    
    98   50   52 1    
    99   50  106 1    
   100   51  107 1    
   101   51  108 1    
   102   51  109 1    
   103   52   53 2    
   104   52   54 am   BACKBONE|DICT|INTERRES
   105   54   55 1    
   106   54  110 1    
   107   55   56 1    
   108   55   59 1    
   109   55  111 1    
   110   56   57 am   BACKBONE|DICT|INTERRES
   111   56   58 2    
   112   57  112 1    
   113   57  113 1    
   114   59   60 1    
   115   59  114 1    
   116   59  115 1    
   117   60   61 1    
   118   61  116 1    
   119   61  117 1    
@<TRIPOS>SUBSTRUCTURE
     1 UNK         1 GROUP             0       ****    0 ROOT    
