@<TRIPOS>MOLECULE
3R8
117   119    1
SMALL
USER_CHARGES


@<TRIPOS>ATOM
      1 CA         19.1536  -34.5097  -46.1217 C.3       0 UNK        -0.2013 
      2 C          18.6226  -33.1693  -45.6345 C.2       0 UNK         0.4866 
      3 O          17.6957  -33.1392  -44.8254 O.2       0 UNK        -0.5176 
      4 N          19.2035  -32.0709  -46.1287 N.am      1 UNK        -0.4884 
      5 CA         18.9059  -30.6906  -45.7443 C.3       1 UNK         0.0853 
      6 C6         17.9934  -29.9753  -46.7758 C.3       10 UNK        -0.0849 
      7 S7         16.2858  -30.6250  -46.7358 S.3       10 UNK        -0.2776 
      8 C8         15.3101  -29.2260  -46.0852 C.3       10 UNK         0.0316 
      9 C9         15.9308  -28.5584  -44.8627 C.ar      10 UNK        -0.0863 
     10 C10        16.2217  -29.2908  -43.7082 C.ar      10 UNK        -0.1009 
     11 C11        16.8143  -28.6742  -42.5977 C.ar      10 UNK        -0.0712 
     12 C12        17.0837  -27.3007  -42.6441 C.ar      10 UNK        -0.0894 
     13 C13        16.7617  -26.5504  -43.7808 C.ar      10 UNK        -0.0745 
     14 C14        16.1947  -27.1882  -44.8861 C.ar      10 UNK        -0.0972 
     15 C15        16.9740  -25.0435  -43.8197 C.3       10 UNK         0.0209 
     16 S16        18.2250  -24.5830  -45.0597 S.3       10 UNK        -0.2568 
     17 C17        19.5565  -23.9007  -44.0212 C.3       10 UNK        -0.0983 
     18 CA         20.2602  -24.9496  -43.1253 C.3       3 UNK         0.0876 
     19 N          20.7002  -26.1286  -43.8778 N.am      3 UNK        -0.4424 
     20 C          21.2613  -27.2165  -43.3391 C.2       2 UNK         0.4918 
     21 O          21.4614  -27.3629  -42.1316 O.2       2 UNK        -0.4875 
     22 CA         21.6110  -28.3470  -44.3105 C.3       2 UNK         0.0481 
     23 CB         22.6829  -29.2916  -43.7266 C.3       2 UNK        -0.1831 
     24 N          20.3849  -29.0795  -44.6267 N.am      2 UNK        -0.4498 
     25 C          20.2598  -29.9751  -45.6137 C.2       1 UNK         0.5027 
     26 O          21.1636  -30.2507  -46.4084 O.2       1 UNK        -0.4969 
     27 C          21.4344  -24.2913  -42.3751 C.2       3 UNK         0.5005 
     28 O          22.4775  -24.0471  -42.9873 O.2       3 UNK        -0.5279 
     29 N          21.2482  -24.0340  -41.0718 N.am      4 UNK        -0.4463 
     30 CA         22.1872  -23.4440  -40.1026 C.3       4 UNK         0.0283 
     31 CB         22.5870  -22.0106  -40.5042 C.3       4 UNK        -0.1875 
     32 C          23.4344  -24.2975  -39.7983 C.2       4 UNK         0.4949 
     33 O          23.8212  -24.3966  -38.6340 O.2       4 UNK        -0.5039 
     34 N          24.0395  -24.8935  -40.8323 N.am      5 UNK        -0.4663 
     35 CA         25.2221  -25.7509  -40.7500 C.3       5 UNK         0.0242 
     36 CB         25.7694  -25.9945  -42.1662 C.3       5 UNK        -0.1982 
     37 C          24.9527  -27.0886  -40.0448 C.2       5 UNK         0.5017 
     38 O          25.8300  -27.5732  -39.3306 O.2       5 UNK        -0.5012 
     39 N          23.7628  -27.6673  -40.2786 N.am      6 UNK        -0.4439 
     40 CA         23.2553  -28.9322  -39.7265 C.3       6 UNK         0.0297 
     41 CB         23.0958  -28.8345  -38.1955 C.3       6 UNK        -0.2006 
     42 C          24.0400  -30.1947  -40.1422 C.2       6 UNK         0.4892 
     43 O          23.7309  -31.2767  -39.6421 O.2       6 UNK        -0.5089 
     44 N          24.9920  -30.0670  -41.0786 N.am      7 UNK        -0.4243 
     45 CA         25.9043  -31.1219  -41.5423 C.3       7 UNK         0.0196 
     46 CB         26.8486  -30.5302  -42.6014 C.3       7 UNK        -0.2007 
     47 C          25.2195  -32.3899  -42.0863 C.2       7 UNK         0.5020 
     48 O          25.8004  -33.4722  -42.0040 O.2       7 UNK        -0.5147 
     49 N          24.0003  -32.2332  -42.6120 N.am      8 UNK        -0.4734 
     50 CA         23.1345  -33.3136  -43.0819 C.3       8 UNK         0.0238 
     51 CB         23.1609  -33.3470  -44.6232 C.3       8 UNK        -0.1912 
     52 C          21.7044  -33.1681  -42.5310 C.2       8 UNK         0.5038 
     53 O          20.7797  -33.6879  -43.1538 O.2       8 UNK        -0.5046 
     54 N          21.5267  -32.4607  -41.4036 N.am      9 UNK        -0.4200 
     55 CA         20.2038  -32.1761  -40.8178 C.3       9 UNK         0.0839 
     56 C          20.1722  -32.1064  -39.2633 C.2       9 UNK         0.5513 
     57 N          21.2948  -32.1367  -38.5579 N.am      9 UNK        -0.7519 
     58 O          19.0982  -32.0615  -38.6704 O.2       9 UNK        -0.4960 
     59 C59        19.5184  -30.9572  -41.5051 C.3       10 UNK        -0.0876 
     60 S60        17.7064  -31.1519  -41.5949 S.3       10 UNK        -0.2414 
     61 C61        17.0874  -29.4575  -41.3142 C.3       10 UNK         0.0169 
     62 H62        19.9719  -34.3917  -46.8318 H         1 UNK         0.0903 
     63 H63        19.5208  -35.0933  -45.2776 H         1 UNK         0.0903 
     64 H64        18.3591  -35.0747  -46.6084 H         1 UNK         0.0903 
     65 H65        20.0001  -32.1529  -46.7479 H         1 UNK         0.3096 
     66 H66        18.4267  -30.6817  -44.7630 H         1 UNK         0.1121 
     67 H67        18.3861  -30.1035  -47.7863 H         1 UNK         0.0849 
     68 H68        17.9743  -28.8980  -46.6025 H         1 UNK         0.0849 
     69 H69        15.1722  -28.5033  -46.8910 H         1 UNK         0.0865 
     70 H70        14.3129  -29.5833  -45.8250 H         1 UNK         0.0865 
     71 H71        15.9887  -30.3468  -43.6824 H         1 UNK         0.1346 
     72 H72        17.5117  -26.8095  -41.7811 H         1 UNK         0.1412 
     73 H73        15.9521  -26.6064  -45.7654 H         1 UNK         0.1426 
     74 H74        17.2438  -24.6587  -42.8355 H         1 UNK         0.0716 
     75 H75        16.0314  -24.5605  -44.0815 H         1 UNK         0.0716 
     76 H76        19.1404  -23.0942  -43.4141 H         1 UNK         0.0695 
     77 H77        20.2766  -23.4303  -44.6942 H         1 UNK         0.0695 
     78 H78        19.5420  -25.3060  -42.3850 H         1 UNK         0.0983 
     79 H79        20.5591  -26.0889  -44.8766 H         1 UNK         0.3095 
     80 H80        22.0040  -27.8959  -45.2241 H         1 UNK         0.0454 
     81 H81        22.3045  -29.8271  -42.8563 H         1 UNK         0.0851 
     82 H82        23.5652  -28.7313  -43.4151 H         1 UNK         0.0851 
     83 H83        23.0154  -30.0235  -44.4621 H         1 UNK         0.0851 
     84 H84        19.5866  -28.8646  -44.0430 H         1 UNK         0.2976 
     85 H85        20.3634  -24.3113  -40.6684 H         1 UNK         0.3116 
     86 H86        21.6294  -23.3724  -39.1673 H         1 UNK         0.0646 
     87 H87        23.1675  -21.9895  -41.4269 H         1 UNK         0.0847 
     88 H88        23.1989  -21.5472  -39.7290 H         1 UNK         0.0847 
     89 H89        21.7105  -21.3784  -40.6449 H         1 UNK         0.0847 
     90 H90        23.6490  -24.7148  -41.7559 H         1 UNK         0.3040 
     91 H91        25.9827  -25.2216  -40.1715 H         1 UNK         0.1015 
     92 H92        26.0545  -25.0576  -42.6453 H         1 UNK         0.0786 
     93 H93        25.0353  -26.4858  -42.8063 H         1 UNK         0.0786 
     94 H94        26.6585  -26.6264  -42.1403 H         1 UNK         0.0786 
     95 H95        23.1149  -27.1938  -40.9013 H         1 UNK         0.3172 
     96 H96        22.2567  -29.0575  -40.1471 H         1 UNK         0.0595 
     97 H97        22.5746  -29.7046  -37.7960 H         1 UNK         0.0839 
     98 H98        22.5154  -27.9561  -37.9133 H         1 UNK         0.0839 
     99 H99        24.0598  -28.7764  -37.6895 H         1 UNK         0.0839 
    100 H100       25.1778  -29.1362  -41.4198 H         1 UNK         0.2998 
    101 H101       26.5025  -31.4280  -40.6816 H         1 UNK         0.0822 
    102 H102       27.4272  -29.6985  -42.1986 H         1 UNK         0.0787 
    103 H103       27.5620  -31.2781  -42.9510 H         1 UNK         0.0787 
    104 H104       26.3014  -30.1693  -43.4734 H         1 UNK         0.0787 
    105 H105       23.6166  -31.3009  -42.6446 H         1 UNK         0.3055 
    106 H106       23.5003  -34.2741  -42.7117 H         1 UNK         0.1106 
    107 H107       22.5933  -34.1949  -45.0090 H         1 UNK         0.0828 
    108 H108       24.1788  -33.4455  -45.0004 H         1 UNK         0.0828 
    109 H109       22.7287  -32.4432  -45.0543 H         1 UNK         0.0828 
    110 H110       22.3329  -32.1242  -40.8906 H         1 UNK         0.2931 
    111 H111       19.5949  -33.0582  -41.0277 H         1 UNK         0.0412 
    112 H112       22.2124  -32.0826  -38.9880 H         1 UNK         0.3472 
    113 H113       21.2251  -32.1199  -37.5530 H         1 UNK         0.3472 
    114 H114       19.7918  -30.0227  -41.0119 H         1 UNK         0.0970 
    115 H115       19.8640  -30.8618  -42.5336 H         1 UNK         0.0970 
    116 H116       16.1487  -29.5307  -40.7639 H         1 UNK         0.0612 
    117 H117       17.7771  -28.9172  -40.6643 H         1 UNK         0.0612 
@<TRIPOS>BOND
     1    1    2 1    
     2    1   62 1    
     3    1   63 1    
     4    1   64 1    
     5    2    3 2    
     6    2    4 am   BACKBONE|DICT|INTERRES
     7    4    5 1    
     8    4   65 1    
     9    5    6 1    
    10    5   25 1    
    11    5   66 1    
    12    6    7 1    
    13    6   67 1    
    14    6   68 1    
    15    7    8 1    
    16    8    9 1    
    17    8   69 1    
    18    8   70 1    
    19    9   10 ar   
    20    9   14 ar   
    21   10   11 ar   
    22   10   71 1    
    23   11   12 ar   
    24   11   61 1    
    25   12   13 ar   
    26   12   72 1    
    27   13   14 ar   
    28   13   15 1    
    29   14   73 1    
    30   15   16 1    
    31   15   74 1    
    32   15   75 1    
    33   16   17 1    
    34   17   18 1    
    35   17   76 1    
    36   17   77 1    
    37   18   19 1    
    38   18   27 1    
    39   18   78 1    
    40   19   20 am   BACKBONE|DICT|INTERRES
    41   19   79 1    
    42   20   21 2    
    43   20   22 1    
    44   22   23 1    
    45   22   24 1    
    46   22   80 1    
    47   23   81 1    
    48   23   82 1    
    49   23   83 1    
    50   24   25 am   BACKBONE|DICT|INTERRES
    51   24   84 1    
    52   25   26 2    
    53   27   28 2    
    54   27   29 am   BACKBONE|DICT|INTERRES
    55   29   30 1    
    56   29   85 1    
    57   30   31 1    
    58   30   32 1    
    59   30   86 1    
    60   31   87 1    
    61   31   88 1    
    62   31   89 1    
    63   32   33 2    
    64   32   34 am   BACKBONE|DICT|INTERRES
    65   34   35 1    
    66   34   90 1    
    67   35   36 1    
    68   35   37 1    
    69   35   91 1    
    70   36   92 1    
    71   36   93 1    
    72   36   94 1    
    73   37   38 2    
    74   37   39 am   BACKBONE|DICT|INTERRES
    75   39   40 1    
    76   39   95 1    
    77   40   41 1    
    78   40   42 1    
    79   40   96 1    
    80   41   97 1    
    81   41   98 1    
    82   41   99 1    
    83   42   43 2    
    84   42   44 am   BACKBONE|DICT|INTERRES
    85   44   45 1    
    86   44  100 1    
    87   45   46 1    
    88   45   47 1    
    89   45  101 1    
    90   46  102 1    
    91   46  103 1    
    92   46  104 1    
    93   47   48 2    
    94   47   49 am   BACKBONE|DICT|INTERRES
    95   49   50 1    
    96   49  105 1    
    97   50   51 1    
    98   50   52 1    
    99   50  106 1    
   100   51  107 1    
   101   51  108 1    
   102   51  109 1    
   103   52   53 2    
   104   52   54 am   BACKBONE|DICT|INTERRES
   105   54   55 1    
   106   54  110 1    
   107   55   56 1    
   108   55   59 1    
   109   55  111 1    
   110   56   57 am   BACKBONE|DICT|INTERRES
   111   56   58 2    
   112   57  112 1    
   113   57  113 1    
   114   59   60 1    
   115   59  114 1    
   116   59  115 1    
   117   60   61 1    
   118   61  116 1    
   119   61  117 1    
@<TRIPOS>SUBSTRUCTURE
     1 UNK         1 GROUP             0       ****    0 ROOT    
