@<TRIPOS>MOLECULE
3R8
117   119    1
SMALL
USER_CHARGES


@<TRIPOS>ATOM
      1 CA         20.0923  -24.7279  -50.5734 C.3       0 UNK        -0.2013 
      2 C          20.2215  -25.7338  -49.4392 C.2       0 UNK         0.4866 
      3 O          20.9890  -26.6897  -49.5523 O.2       0 UNK        -0.5176 
      4 N          19.4794  -25.5262  -48.3477 N.am      1 UNK        -0.4884 
      5 CA         19.4860  -26.3543  -47.1437 C.3       1 UNK         0.0853 
      6 C6         18.5928  -27.6143  -47.3049 C.3       10 UNK        -0.0849 
      7 S7         19.0409  -28.9387  -46.1356 S.3       10 UNK        -0.2776 
      8 C8         17.6326  -28.8921  -44.9717 C.3       10 UNK         0.0316 
      9 C9         17.8471  -29.6128  -43.6375 C.ar      10 UNK        -0.0863 
     10 C10        19.0566  -30.2254  -43.2790 C.ar      10 UNK        -0.1009 
     11 C11        19.2085  -30.8417  -42.0335 C.ar      10 UNK        -0.0712 
     12 C12        18.1393  -30.8475  -41.1345 C.ar      10 UNK        -0.0894 
     13 C13        16.9362  -30.2164  -41.4633 C.ar      10 UNK        -0.0745 
     14 C14        16.7928  -29.6184  -42.7189 C.ar      10 UNK        -0.0972 
     15 C15        15.8166  -30.1191  -40.4369 C.3       10 UNK         0.0209 
     16 S16        16.2403  -28.9651  -39.0865 S.3       10 UNK        -0.2568 
     17 C17        16.4763  -27.3830  -39.9725 C.3       10 UNK        -0.0983 
     18 CA         17.9507  -27.1511  -40.3967 C.3       3 UNK         0.0876 
     19 N          18.0509  -26.2522  -41.5472 N.am      3 UNK        -0.4424 
     20 C          19.0849  -26.2442  -42.3960 C.2       2 UNK         0.4918 
     21 O          20.0399  -27.0220  -42.3339 O.2       2 UNK        -0.4875 
     22 CA         19.0558  -25.1866  -43.5010 C.3       2 UNK         0.0481 
     23 CB         20.0088  -24.0237  -43.1757 C.3       2 UNK        -0.1831 
     24 N          19.4508  -25.8296  -44.7493 N.am      2 UNK        -0.4498 
     25 C          19.0409  -25.4657  -45.9684 C.2       1 UNK         0.5027 
     26 O          18.3254  -24.4829  -46.1872 O.2       1 UNK        -0.4969 
     27 C          18.8441  -26.6578  -39.2414 C.2       3 UNK         0.5005 
     28 O          19.1258  -25.4605  -39.1465 O.2       3 UNK        -0.5279 
     29 N          19.2944  -27.6078  -38.4090 N.am      4 UNK        -0.4463 
     30 CA         20.2461  -27.4663  -37.2963 C.3       4 UNK         0.0283 
     31 CB         19.7545  -26.4469  -36.2470 C.3       4 UNK        -0.1875 
     32 C          21.7026  -27.1954  -37.7291 C.2       4 UNK         0.4949 
     33 O          22.5686  -27.0760  -36.8621 O.2       4 UNK        -0.5039 
     34 N          21.9706  -27.1468  -39.0429 N.am      5 UNK        -0.4663 
     35 CA         23.3138  -27.0112  -39.6156 C.3       5 UNK         0.0242 
     36 CB         23.1926  -26.5259  -41.0692 C.3       5 UNK        -0.1982 
     37 C          24.1234  -28.3187  -39.5590 C.2       5 UNK         0.5017 
     38 O          25.3524  -28.2649  -39.6142 O.2       5 UNK        -0.5012 
     39 N          23.4213  -29.4602  -39.4725 N.am      6 UNK        -0.4439 
     40 CA         23.9002  -30.8494  -39.4156 C.3       6 UNK         0.0297 
     41 CB         24.7844  -31.0975  -38.1778 C.3       6 UNK        -0.2006 
     42 C          24.5890  -31.3300  -40.7045 C.2       6 UNK         0.4892 
     43 O          24.1595  -32.3279  -41.2800 O.2       6 UNK        -0.5089 
     44 N          25.6138  -30.5974  -41.1579 N.am      7 UNK        -0.4243 
     45 CA         26.3952  -30.8662  -42.3705 C.3       7 UNK         0.0196 
     46 CB         27.6143  -29.9299  -42.3919 C.3       7 UNK        -0.2007 
     47 C          25.5925  -30.7350  -43.6787 C.2       7 UNK         0.5020 
     48 O          26.0288  -31.2472  -44.7093 O.2       7 UNK        -0.5147 
     49 N          24.4357  -30.0623  -43.6183 N.am      8 UNK        -0.4734 
     50 CA         23.4888  -29.9084  -44.7241 C.3       8 UNK         0.0238 
     51 CB         22.5508  -28.7296  -44.4089 C.3       8 UNK        -0.1912 
     52 C          22.6823  -31.1850  -45.0420 C.2       8 UNK         0.5038 
     53 O          21.9957  -31.2054  -46.0636 O.2       8 UNK        -0.5046 
     54 N          22.7582  -32.2119  -44.1855 N.am      9 UNK        -0.4200 
     55 CA         22.0433  -33.4860  -44.3270 C.3       9 UNK         0.0839 
     56 C          22.9175  -34.6957  -43.8913 C.2       9 UNK         0.5513 
     57 N          22.3531  -35.8955  -43.8416 N.am      9 UNK        -0.7519 
     58 O          24.1149  -34.5742  -43.6405 O.2       9 UNK        -0.4960 
     59 C59        20.6240  -33.4275  -43.6906 C.3       10 UNK        -0.0876 
     60 S60        20.6040  -33.2515  -41.8697 S.3       10 UNK        -0.2414 
     61 C61        20.5467  -31.4473  -41.6347 C.3       10 UNK         0.0169 
     62 H62        21.0569  -24.2625  -50.7742 H         1 UNK         0.0903 
     63 H63        19.7594  -25.2283  -51.4823 H         1 UNK         0.0903 
     64 H64        19.3773  -23.9392  -50.3396 H         1 UNK         0.0903 
     65 H65        18.8910  -24.7045  -48.2666 H         1 UNK         0.3096 
     66 H66        20.5185  -26.6602  -46.9562 H         1 UNK         0.1121 
     67 H67        18.7220  -28.0349  -48.3033 H         1 UNK         0.0849 
     68 H68        17.5316  -27.3686  -47.2283 H         1 UNK         0.0849 
     69 H69        17.3850  -27.8520  -44.7570 H         1 UNK         0.0865 
     70 H70        16.7620  -29.3205  -45.4706 H         1 UNK         0.0865 
     71 H71        19.8976  -30.2180  -43.9557 H         1 UNK         0.1346 
     72 H72        18.2572  -31.3052  -40.1616 H         1 UNK         0.1412 
     73 H73        15.8643  -29.1239  -42.9707 H         1 UNK         0.1426 
     74 H74        15.6266  -31.1067  -40.0143 H         1 UNK         0.0716 
     75 H75        14.8835  -29.8003  -40.9041 H         1 UNK         0.0716 
     76 H76        16.1129  -26.5654  -39.3469 H         1 UNK         0.0695 
     77 H77        15.8264  -27.3942  -40.8491 H         1 UNK         0.0695 
     78 H78        18.3681  -28.1042  -40.7215 H         1 UNK         0.0983 
     79 H79        17.3339  -25.5469  -41.6317 H         1 UNK         0.3095 
     80 H80        18.0372  -24.8033  -43.5936 H         1 UNK         0.0454 
     81 H81        21.0417  -24.3633  -43.0884 H         1 UNK         0.0851 
     82 H82        19.7395  -23.5513  -42.2301 H         1 UNK         0.0851 
     83 H83        19.9730  -23.2531  -43.9457 H         1 UNK         0.0851 
     84 H84        19.9948  -26.6755  -44.6292 H         1 UNK         0.2976 
     85 H85        18.9658  -28.5517  -38.5662 H         1 UNK         0.3116 
     86 H86        20.2647  -28.4422  -36.8088 H         1 UNK         0.0646 
     87 H87        19.7947  -25.4234  -36.6203 H         1 UNK         0.0847 
     88 H88        20.3729  -26.4836  -35.3494 H         1 UNK         0.0847 
     89 H89        18.7293  -26.6539  -35.9404 H         1 UNK         0.0847 
     90 H90        21.2012  -27.2086  -39.6947 H         1 UNK         0.3040 
     91 H91        23.8635  -26.2590  -39.0451 H         1 UNK         0.1015 
     92 H92        22.6656  -27.2480  -41.6932 H         1 UNK         0.0786 
     93 H93        24.1766  -26.3681  -41.5132 H         1 UNK         0.0786 
     94 H94        22.6549  -25.5793  -41.1291 H         1 UNK         0.0786 
     95 H95        22.4172  -29.3567  -39.4511 H         1 UNK         0.3172 
     96 H96        23.0048  -31.4618  -39.2962 H         1 UNK         0.0595 
     97 H97        25.0589  -32.1505  -38.1022 H         1 UNK         0.0839 
     98 H98        24.2610  -30.8330  -37.2590 H         1 UNK         0.0839 
     99 H99        25.7114  -30.5245  -38.2101 H         1 UNK         0.0839 
    100 H100       25.8483  -29.7593  -40.6305 H         1 UNK         0.2998 
    101 H101       26.7512  -31.8972  -42.3146 H         1 UNK         0.0822 
    102 H102       28.2379  -30.1178  -43.2672 H         1 UNK         0.0787 
    103 H103       27.3154  -28.8812  -42.4221 H         1 UNK         0.0787 
    104 H104       28.2415  -30.0750  -41.5121 H         1 UNK         0.0787 
    105 H105       24.1663  -29.6716  -42.7279 H         1 UNK         0.3055 
    106 H106       24.0544  -29.6610  -45.6254 H         1 UNK         0.1106 
    107 H107       21.8653  -28.5477  -45.2367 H         1 UNK         0.0828 
    108 H108       21.9466  -28.9133  -43.5199 H         1 UNK         0.0828 
    109 H109       23.1094  -27.8072  -44.2502 H         1 UNK         0.0828 
    110 H110       23.3793  -32.1607  -43.3859 H         1 UNK         0.2931 
    111 H111       21.9013  -33.6561  -45.3958 H         1 UNK         0.0412 
    112 H112       22.9162  -36.6882  -43.5748 H         1 UNK         0.3472 
    113 H113       21.3773  -36.0259  -44.0563 H         1 UNK         0.3472 
    114 H114       20.0647  -34.3295  -43.9407 H         1 UNK         0.0970 
    115 H115       20.0524  -32.6191  -44.1445 H         1 UNK         0.0970 
    116 H116       21.3621  -30.9766  -42.1833 H         1 UNK         0.0612 
    117 H117       20.7370  -31.2340  -40.5822 H         1 UNK         0.0612 
@<TRIPOS>BOND
     1    1    2 1    
     2    1   62 1    
     3    1   63 1    
     4    1   64 1    
     5    2    3 2    
     6    2    4 am   BACKBONE|DICT|INTERRES
     7    4    5 1    
     8    4   65 1    
     9    5    6 1    
    10    5   25 1    
    11    5   66 1    
    12    6    7 1    
    13    6   67 1    
    14    6   68 1    
    15    7    8 1    
    16    8    9 1    
    17    8   69 1    
    18    8   70 1    
    19    9   10 ar   
    20    9   14 ar   
    21   10   11 ar   
    22   10   71 1    
    23   11   12 ar   
    24   11   61 1    
    25   12   13 ar   
    26   12   72 1    
    27   13   14 ar   
    28   13   15 1    
    29   14   73 1    
    30   15   16 1    
    31   15   74 1    
    32   15   75 1    
    33   16   17 1    
    34   17   18 1    
    35   17   76 1    
    36   17   77 1    
    37   18   19 1    
    38   18   27 1    
    39   18   78 1    
    40   19   20 am   BACKBONE|DICT|INTERRES
    41   19   79 1    
    42   20   21 2    
    43   20   22 1    
    44   22   23 1    
    45   22   24 1    
    46   22   80 1    
    47   23   81 1    
    48   23   82 1    
    49   23   83 1    
    50   24   25 am   BACKBONE|DICT|INTERRES
    51   24   84 1    
    52   25   26 2    
    53   27   28 2    
    54   27   29 am   BACKBONE|DICT|INTERRES
    55   29   30 1    
    56   29   85 1    
    57   30   31 1    
    58   30   32 1    
    59   30   86 1    
    60   31   87 1    
    61   31   88 1    
    62   31   89 1    
    63   32   33 2    
    64   32   34 am   BACKBONE|DICT|INTERRES
    65   34   35 1    
    66   34   90 1    
    67   35   36 1    
    68   35   37 1    
    69   35   91 1    
    70   36   92 1    
    71   36   93 1    
    72   36   94 1    
    73   37   38 2    
    74   37   39 am   BACKBONE|DICT|INTERRES
    75   39   40 1    
    76   39   95 1    
    77   40   41 1    
    78   40   42 1    
    79   40   96 1    
    80   41   97 1    
    81   41   98 1    
    82   41   99 1    
    83   42   43 2    
    84   42   44 am   BACKBONE|DICT|INTERRES
    85   44   45 1    
    86   44  100 1    
    87   45   46 1    
    88   45   47 1    
    89   45  101 1    
    90   46  102 1    
    91   46  103 1    
    92   46  104 1    
    93   47   48 2    
    94   47   49 am   BACKBONE|DICT|INTERRES
    95   49   50 1    
    96   49  105 1    
    97   50   51 1    
    98   50   52 1    
    99   50  106 1    
   100   51  107 1    
   101   51  108 1    
   102   51  109 1    
   103   52   53 2    
   104   52   54 am   BACKBONE|DICT|INTERRES
   105   54   55 1    
   106   54  110 1    
   107   55   56 1    
   108   55   59 1    
   109   55  111 1    
   110   56   57 am   BACKBONE|DICT|INTERRES
   111   56   58 2    
   112   57  112 1    
   113   57  113 1    
   114   59   60 1    
   115   59  114 1    
   116   59  115 1    
   117   60   61 1    
   118   61  116 1    
   119   61  117 1    
@<TRIPOS>SUBSTRUCTURE
     1 UNK         1 GROUP             0       ****    0 ROOT    
