@<TRIPOS>MOLECULE
3R8
117   119    1
SMALL
USER_CHARGES


@<TRIPOS>ATOM
      1 CA         16.6052  -26.5091  -38.4551 C.3       0 UNK        -0.2013 
      2 C          16.1961  -26.3709  -39.9140 C.2       0 UNK         0.4866 
      3 O          15.1791  -25.7437  -40.2095 O.2       0 UNK        -0.5176 
      4 N          16.9887  -26.9446  -40.8268 N.am      1 UNK        -0.4884 
      5 CA         16.7950  -26.8763  -42.2806 C.3       1 UNK         0.0853 
      6 C6         17.1654  -28.2380  -42.9247 C.3       10 UNK        -0.0849 
      7 S7         16.2621  -28.6022  -44.4619 S.3       10 UNK        -0.2776 
      8 C8         16.5703  -30.4000  -44.6218 C.3       10 UNK         0.0316 
      9 C9         18.0130  -30.8026  -44.9454 C.ar      10 UNK        -0.0863 
     10 C10        18.4329  -32.1053  -44.6474 C.ar      10 UNK        -0.1009 
     11 C11        19.7211  -32.5370  -44.9810 C.ar      10 UNK        -0.0712 
     12 C12        20.6049  -31.6483  -45.5972 C.ar      10 UNK        -0.0894 
     13 C13        20.2112  -30.3409  -45.8860 C.ar      10 UNK        -0.0745 
     14 C14        18.9112  -29.9298  -45.5751 C.ar      10 UNK        -0.0972 
     15 C15        21.1934  -29.3755  -46.5363 C.3       10 UNK         0.0209 
     16 S16        22.5434  -28.9106  -45.4029 S.3       10 UNK        -0.2568 
     17 C17        21.6282  -28.0560  -44.0783 C.3       10 UNK        -0.0983 
     18 CA         21.8709  -26.5301  -44.0666 C.3       3 UNK         0.0876 
     19 N          20.8623  -25.8541  -43.2581 N.am      3 UNK        -0.4424 
     20 C          20.5370  -24.5600  -43.3730 C.2       2 UNK         0.4918 
     21 O          21.0550  -23.7973  -44.1906 O.2       2 UNK        -0.4875 
     22 CA         19.4470  -24.0401  -42.4148 C.3       2 UNK         0.0481 
     23 CB         18.7598  -22.7542  -42.9207 C.3       2 UNK        -0.1831 
     24 N          18.4631  -25.0733  -42.0705 N.am      2 UNK        -0.4498 
     25 C          17.6073  -25.7094  -42.8907 C.2       1 UNK         0.5027 
     26 O          17.4590  -25.4212  -44.0786 O.2       1 UNK        -0.4969 
     27 C          23.2689  -26.1805  -43.5304 C.2       3 UNK         0.5005 
     28 O          23.5665  -26.4956  -42.3770 O.2       3 UNK        -0.5279 
     29 N          24.1191  -25.5780  -44.3709 N.am      4 UNK        -0.4463 
     30 CA         25.5013  -25.2301  -44.0214 C.3       4 UNK         0.0283 
     31 CB         26.1102  -24.3729  -45.1427 C.3       4 UNK        -0.1875 
     32 C          26.3919  -26.4550  -43.7383 C.2       4 UNK         0.4949 
     33 O          27.3572  -26.3376  -42.9833 O.2       4 UNK        -0.5039 
     34 N          26.0568  -27.5988  -44.3501 N.am      5 UNK        -0.4663 
     35 CA         26.8012  -28.8491  -44.2222 C.3       5 UNK         0.0242 
     36 CB         26.6024  -29.6793  -45.5014 C.3       5 UNK        -0.1982 
     37 C          26.4098  -29.6810  -42.9899 C.2       5 UNK         0.5017 
     38 O          27.2659  -30.4096  -42.4858 O.2       5 UNK        -0.5012 
     39 N          25.1398  -29.6161  -42.5571 N.am      6 UNK        -0.4439 
     40 CA         24.5740  -30.6003  -41.6232 C.3       6 UNK         0.0297 
     41 CB         24.1085  -31.8335  -42.4242 C.3       6 UNK        -0.2006 
     42 C          23.4466  -30.0862  -40.7111 C.2       6 UNK         0.4892 
     43 O          22.8535  -30.9111  -40.0112 O.2       6 UNK        -0.5089 
     44 N          23.1366  -28.7795  -40.7258 N.am      7 UNK        -0.4243 
     45 CA         22.0402  -28.0979  -40.0130 C.3       7 UNK         0.0196 
     46 CB         22.2019  -28.1896  -38.4822 C.3       7 UNK        -0.2007 
     47 C          20.6381  -28.5430  -40.4662 C.2       7 UNK         0.5020 
     48 O          19.8827  -27.7292  -41.0021 O.2       7 UNK        -0.5147 
     49 N          20.3313  -29.8253  -40.2558 N.am      8 UNK        -0.4734 
     50 CA         19.1067  -30.5084  -40.6707 C.3       8 UNK         0.0238 
     51 CB         17.9798  -30.2116  -39.6606 C.3       8 UNK        -0.1912 
     52 C          19.2933  -32.0263  -40.8484 C.2       8 UNK         0.5038 
     53 O          18.2927  -32.7138  -41.0563 O.2       8 UNK        -0.5046 
     54 N          20.5305  -32.5355  -40.7279 N.am      9 UNK        -0.4200 
     55 CA         20.8680  -33.9716  -40.6955 C.3       9 UNK         0.0839 
     56 C          20.3583  -34.7204  -39.4241 C.2       9 UNK         0.5513 
     57 N          20.0176  -34.0305  -38.3416 N.am      9 UNK        -0.7519 
     58 O          20.2998  -35.9474  -39.3998 O.2       9 UNK        -0.4960 
     59 C59        20.5245  -34.7262  -42.0137 C.3       10 UNK        -0.0876 
     60 S60        21.4459  -34.0884  -43.4521 S.3       10 UNK        -0.2414 
     61 C61        20.1554  -33.9737  -44.7316 C.3       10 UNK         0.0169 
     62 H62        17.6071  -26.9245  -38.3487 H         1 UNK         0.0903 
     63 H63        16.5929  -25.5346  -37.9674 H         1 UNK         0.0903 
     64 H64        15.9073  -27.1612  -37.9306 H         1 UNK         0.0903 
     65 H65        17.8428  -27.4120  -40.5406 H         1 UNK         0.3096 
     66 H66        15.7423  -26.6711  -42.4886 H         1 UNK         0.1121 
     67 H67        18.2389  -28.3217  -43.1040 H         1 UNK         0.0849 
     68 H68        16.9081  -29.0408  -42.2331 H         1 UNK         0.0849 
     69 H69        16.2457  -30.8919  -43.7031 H         1 UNK         0.0865 
     70 H70        15.9279  -30.7845  -45.4149 H         1 UNK         0.0865 
     71 H71        17.7469  -32.7949  -44.1739 H         1 UNK         0.1346 
     72 H72        21.6051  -31.9743  -45.8488 H         1 UNK         0.1412 
     73 H73        18.6068  -28.9234  -45.8253 H         1 UNK         0.1426 
     74 H74        20.6859  -28.4719  -46.8780 H         1 UNK         0.0716 
     75 H75        21.6219  -29.8419  -47.4245 H         1 UNK         0.0716 
     76 H76        21.8918  -28.5164  -43.1276 H         1 UNK         0.0695 
     77 H77        20.5626  -28.2465  -44.1972 H         1 UNK         0.0695 
     78 H78        21.7765  -26.1645  -45.0919 H         1 UNK         0.0983 
     79 H79        20.4271  -26.4054  -42.5266 H         1 UNK         0.3095 
     80 H80        19.9594  -23.7924  -41.4843 H         1 UNK         0.0454 
     81 H81        17.9917  -22.4146  -42.2262 H         1 UNK         0.0851 
     82 H82        18.2922  -22.8984  -43.8950 H         1 UNK         0.0851 
     83 H83        19.4806  -21.9426  -43.0263 H         1 UNK         0.0851 
     84 H84        18.5025  -25.4073  -41.1178 H         1 UNK         0.2976 
     85 H85        23.8080  -25.3383  -45.3021 H         1 UNK         0.3116 
     86 H86        25.4740  -24.6292  -43.1097 H         1 UNK         0.0646 
     87 H87        26.1490  -24.9126  -46.0898 H         1 UNK         0.0847 
     88 H88        27.1308  -24.0765  -44.8959 H         1 UNK         0.0847 
     89 H89        25.5392  -23.4575  -45.2990 H         1 UNK         0.0847 
     90 H90        25.2530  -27.6010  -44.9618 H         1 UNK         0.3040 
     91 H91        27.8661  -28.6194  -44.1350 H         1 UNK         0.1015 
     92 H92        25.5558  -29.9464  -45.6536 H         1 UNK         0.0786 
     93 H93        27.1715  -30.6091  -45.4555 H         1 UNK         0.0786 
     94 H94        26.9428  -29.1370  -46.3838 H         1 UNK         0.0786 
     95 H95        24.4992  -28.9891  -43.0225 H         1 UNK         0.3172 
     96 H96        25.3552  -30.9240  -40.9324 H         1 UNK         0.0595 
     97 H97        23.3051  -31.5790  -43.1171 H         1 UNK         0.0839 
     98 H98        23.7368  -32.6208  -41.7677 H         1 UNK         0.0839 
     99 H99        24.9229  -32.2682  -43.0036 H         1 UNK         0.0839 
    100 H100       23.6627  -28.1560  -41.3307 H         1 UNK         0.2998 
    101 H101       22.1233  -27.0424  -40.2749 H         1 UNK         0.0822 
    102 H102       23.1582  -27.7748  -38.1637 H         1 UNK         0.0787 
    103 H103       21.4194  -27.6233  -37.9754 H         1 UNK         0.0787 
    104 H104       22.1464  -29.2147  -38.1157 H         1 UNK         0.0787 
    105 H105       21.0647  -30.3929  -39.8410 H         1 UNK         0.3055 
    106 H106       18.8292  -30.1324  -41.6550 H         1 UNK         0.1106 
    107 H107       17.0213  -30.5913  -40.0169 H         1 UNK         0.0828 
    108 H108       18.1777  -30.6798  -38.6958 H         1 UNK         0.0828 
    109 H109       17.8591  -29.1459  -39.4854 H         1 UNK         0.0828 
    110 H110       21.3190  -31.9178  -40.5722 H         1 UNK         0.2931 
    111 H111       21.9533  -33.9979  -40.5929 H         1 UNK         0.0412 
    112 H112       19.7007  -34.5245  -37.5220 H         1 UNK         0.3472 
    113 H113       20.0803  -33.0257  -38.3328 H         1 UNK         0.3472 
    114 H114       19.4512  -34.7004  -42.2024 H         1 UNK         0.0970 
    115 H115       20.7825  -35.7832  -41.9294 H         1 UNK         0.0970 
    116 H116       19.3027  -34.6048  -44.4781 H         1 UNK         0.0612 
    117 H117       20.5593  -34.3807  -45.6596 H         1 UNK         0.0612 
@<TRIPOS>BOND
     1    1    2 1    
     2    1   62 1    
     3    1   63 1    
     4    1   64 1    
     5    2    3 2    
     6    2    4 am   BACKBONE|DICT|INTERRES
     7    4    5 1    
     8    4   65 1    
     9    5    6 1    
    10    5   25 1    
    11    5   66 1    
    12    6    7 1    
    13    6   67 1    
    14    6   68 1    
    15    7    8 1    
    16    8    9 1    
    17    8   69 1    
    18    8   70 1    
    19    9   10 ar   
    20    9   14 ar   
    21   10   11 ar   
    22   10   71 1    
    23   11   12 ar   
    24   11   61 1    
    25   12   13 ar   
    26   12   72 1    
    27   13   14 ar   
    28   13   15 1    
    29   14   73 1    
    30   15   16 1    
    31   15   74 1    
    32   15   75 1    
    33   16   17 1    
    34   17   18 1    
    35   17   76 1    
    36   17   77 1    
    37   18   19 1    
    38   18   27 1    
    39   18   78 1    
    40   19   20 am   BACKBONE|DICT|INTERRES
    41   19   79 1    
    42   20   21 2    
    43   20   22 1    
    44   22   23 1    
    45   22   24 1    
    46   22   80 1    
    47   23   81 1    
    48   23   82 1    
    49   23   83 1    
    50   24   25 am   BACKBONE|DICT|INTERRES
    51   24   84 1    
    52   25   26 2    
    53   27   28 2    
    54   27   29 am   BACKBONE|DICT|INTERRES
    55   29   30 1    
    56   29   85 1    
    57   30   31 1    
    58   30   32 1    
    59   30   86 1    
    60   31   87 1    
    61   31   88 1    
    62   31   89 1    
    63   32   33 2    
    64   32   34 am   BACKBONE|DICT|INTERRES
    65   34   35 1    
    66   34   90 1    
    67   35   36 1    
    68   35   37 1    
    69   35   91 1    
    70   36   92 1    
    71   36   93 1    
    72   36   94 1    
    73   37   38 2    
    74   37   39 am   BACKBONE|DICT|INTERRES
    75   39   40 1    
    76   39   95 1    
    77   40   41 1    
    78   40   42 1    
    79   40   96 1    
    80   41   97 1    
    81   41   98 1    
    82   41   99 1    
    83   42   43 2    
    84   42   44 am   BACKBONE|DICT|INTERRES
    85   44   45 1    
    86   44  100 1    
    87   45   46 1    
    88   45   47 1    
    89   45  101 1    
    90   46  102 1    
    91   46  103 1    
    92   46  104 1    
    93   47   48 2    
    94   47   49 am   BACKBONE|DICT|INTERRES
    95   49   50 1    
    96   49  105 1    
    97   50   51 1    
    98   50   52 1    
    99   50  106 1    
   100   51  107 1    
   101   51  108 1    
   102   51  109 1    
   103   52   53 2    
   104   52   54 am   BACKBONE|DICT|INTERRES
   105   54   55 1    
   106   54  110 1    
   107   55   56 1    
   108   55   59 1    
   109   55  111 1    
   110   56   57 am   BACKBONE|DICT|INTERRES
   111   56   58 2    
   112   57  112 1    
   113   57  113 1    
   114   59   60 1    
   115   59  114 1    
   116   59  115 1    
   117   60   61 1    
   118   61  116 1    
   119   61  117 1    
@<TRIPOS>SUBSTRUCTURE
     1 UNK         1 GROUP             0       ****    0 ROOT    
