@<TRIPOS>MOLECULE
3R8
117   119    1
SMALL
USER_CHARGES


@<TRIPOS>ATOM
      1 CA         16.4749  -29.2594  -40.1646 C.3       0 UNK        -0.2013 
      2 C          16.1934  -28.0264  -41.0083 C.2       0 UNK         0.4866 
      3 O          15.8657  -26.9727  -40.4635 O.2       0 UNK        -0.5176 
      4 N          16.3225  -28.1445  -42.3369 N.am      1 UNK        -0.4884 
      5 CA         15.9869  -27.0919  -43.3121 C.3       1 UNK         0.0853 
      6 C6         15.5272  -27.6659  -44.6795 C.3       10 UNK        -0.0849 
      7 S7         14.3364  -29.0523  -44.5261 S.3       10 UNK        -0.2776 
      8 C8         14.8532  -30.2181  -45.8354 C.3       10 UNK         0.0316 
      9 C9         16.3465  -30.5131  -45.8065 C.ar      10 UNK        -0.0863 
     10 C10        16.9031  -31.2873  -44.7841 C.ar      10 UNK        -0.1009 
     11 C11        18.2863  -31.4861  -44.7225 C.ar      10 UNK        -0.0712 
     12 C12        19.1099  -30.9237  -45.7037 C.ar      10 UNK        -0.0894 
     13 C13        18.5617  -30.1477  -46.7281 C.ar      10 UNK        -0.0745 
     14 C14        17.1792  -29.9640  -46.7857 C.ar      10 UNK        -0.0972 
     15 C15        19.4528  -29.4731  -47.7586 C.3       10 UNK         0.0209 
     16 S16        19.7620  -27.7322  -47.3186 S.3       10 UNK        -0.2568 
     17 C17        21.1750  -27.9109  -46.1857 C.3       10 UNK        -0.0983 
     18 CA         21.4502  -26.6245  -45.3713 C.3       3 UNK         0.0876 
     19 N          20.3950  -26.3547  -44.3787 N.am      3 UNK        -0.4424 
     20 C          20.2586  -25.1924  -43.7218 C.2       2 UNK         0.4918 
     21 O          20.9237  -24.1889  -43.9828 O.2       2 UNK        -0.4875 
     22 CA         19.2753  -25.1610  -42.5338 C.3       2 UNK         0.0481 
     23 CB         18.7906  -23.7347  -42.1945 C.3       2 UNK        -0.1831 
     24 N          18.1476  -26.0946  -42.6382 N.am      2 UNK        -0.4498 
     25 C          17.1151  -26.0454  -43.4948 C.2       1 UNK         0.5027 
     26 O          17.0264  -25.2177  -44.4025 O.2       1 UNK        -0.4969 
     27 C          22.8571  -26.6827  -44.7270 C.2       3 UNK         0.5005 
     28 O          23.8432  -26.3875  -45.4033 O.2       3 UNK        -0.5279 
     29 N          22.9114  -27.0323  -43.4313 N.am      4 UNK        -0.4463 
     30 CA         24.0732  -27.0274  -42.5341 C.3       4 UNK         0.0283 
     31 CB         24.5147  -25.5761  -42.2494 C.3       4 UNK        -0.1875 
     32 C          25.2451  -27.9265  -42.9796 C.2       4 UNK         0.4949 
     33 O          26.3999  -27.5923  -42.7098 O.2       4 UNK        -0.5039 
     34 N          24.9448  -29.0601  -43.6316 N.am      5 UNK        -0.4663 
     35 CA         25.9482  -30.0437  -44.0556 C.3       5 UNK         0.0242 
     36 CB         25.3257  -31.0170  -45.0694 C.3       5 UNK        -0.1982 
     37 C          26.5808  -30.8072  -42.8766 C.2       5 UNK         0.5017 
     38 O          27.7753  -31.1033  -42.9243 O.2       5 UNK        -0.5012 
     39 N          25.7813  -31.0922  -41.8409 N.am      6 UNK        -0.4439 
     40 CA         26.1895  -31.7381  -40.5968 C.3       6 UNK         0.0297 
     41 CB         26.3990  -33.2499  -40.8075 C.3       6 UNK        -0.2006 
     42 C          25.1064  -31.4785  -39.5454 C.2       6 UNK         0.4892 
     43 O          23.9505  -31.8467  -39.7689 O.2       6 UNK        -0.5089 
     44 N          25.4903  -30.8557  -38.4237 N.am      7 UNK        -0.4243 
     45 CA         24.6236  -30.4869  -37.2986 C.3       7 UNK         0.0196 
     46 CB         24.1881  -31.7472  -36.5141 C.3       7 UNK        -0.2007 
     47 C          23.4543  -29.5856  -37.7472 C.2       7 UNK         0.5020 
     48 O          23.6984  -28.4429  -38.1361 O.2       7 UNK        -0.5147 
     49 N          22.2195  -30.1015  -37.6803 N.am      8 UNK        -0.4734 
     50 CA         20.9886  -29.3768  -38.0028 C.3       8 UNK         0.0238 
     51 CB         19.7775  -30.1802  -37.5014 C.3       8 UNK        -0.1912 
     52 C          20.8236  -29.0400  -39.4939 C.2       8 UNK         0.5038 
     53 O          20.2822  -27.9760  -39.8000 O.2       8 UNK        -0.5046 
     54 N          21.2653  -29.9326  -40.3915 N.am      9 UNK        -0.4200 
     55 CA         21.1129  -29.7527  -41.8440 C.3       9 UNK         0.0839 
     56 C          22.0394  -30.6137  -42.7384 C.2       9 UNK         0.5513 
     57 N          22.7224  -31.6348  -42.2466 N.am      9 UNK        -0.7519 
     58 O          22.1808  -30.3134  -43.9183 O.2       9 UNK        -0.4960 
     59 C59        19.6385  -29.8100  -42.3299 C.3       10 UNK        -0.0876 
     60 S60        18.7893  -31.3925  -41.9831 S.3       10 UNK        -0.2414 
     61 C61        18.8994  -32.2765  -43.5755 C.3       10 UNK         0.0169 
     62 H62        16.3362  -30.1757  -40.7376 H         1 UNK         0.0903 
     63 H63        17.4979  -29.2353  -39.7908 H         1 UNK         0.0903 
     64 H64        15.7999  -29.2964  -39.3099 H         1 UNK         0.0903 
     65 H65        16.5709  -29.0386  -42.7382 H         1 UNK         0.3096 
     66 H66        15.1377  -26.5340  -42.9103 H         1 UNK         0.1121 
     67 H67        15.0496  -26.8839  -45.2728 H         1 UNK         0.0849 
     68 H68        16.3991  -27.9715  -45.2539 H         1 UNK         0.0849 
     69 H69        14.2982  -31.1501  -45.7199 H         1 UNK         0.0865 
     70 H70        14.5601  -29.8103  -46.8042 H         1 UNK         0.0865 
     71 H71        16.2652  -31.7047  -44.0167 H         1 UNK         0.1346 
     72 H72        20.1815  -31.0631  -45.6512 H         1 UNK         0.1412 
     73 H73        16.7573  -29.3508  -47.5707 H         1 UNK         0.1426 
     74 H74        18.9706  -29.5087  -48.7366 H         1 UNK         0.0716 
     75 H75        20.3988  -30.0063  -47.8658 H         1 UNK         0.0716 
     76 H76        22.0413  -28.1849  -46.7917 H         1 UNK         0.0695 
     77 H77        20.9890  -28.7496  -45.5172 H         1 UNK         0.0695 
     78 H78        21.4712  -25.7831  -46.0680 H         1 UNK         0.0983 
     79 H79        19.7653  -27.1122  -44.1647 H         1 UNK         0.3095 
     80 H80        19.8532  -25.5096  -41.6765 H         1 UNK         0.0454 
     81 H81        18.2674  -23.2730  -43.0322 H         1 UNK         0.0851 
     82 H82        19.6294  -23.0853  -41.9410 H         1 UNK         0.0851 
     83 H83        18.1174  -23.7372  -41.3374 H         1 UNK         0.0851 
     84 H84        18.1010  -26.8019  -41.9178 H         1 UNK         0.2976 
     85 H85        22.0307  -27.2475  -42.9900 H         1 UNK         0.3116 
     86 H86        23.7245  -27.4496  -41.5900 H         1 UNK         0.0646 
     87 H87        24.9319  -25.1011  -43.1380 H         1 UNK         0.0847 
     88 H88        25.2789  -25.5413  -41.4720 H         1 UNK         0.0847 
     89 H89        23.6793  -24.9664  -41.9052 H         1 UNK         0.0847 
     90 H90        23.9763  -29.2741  -43.8431 H         1 UNK         0.3040 
     91 H91        26.7526  -29.5043  -44.5614 H         1 UNK         0.1015 
     92 H92        24.9206  -30.4861  -45.9312 H         1 UNK         0.0786 
     93 H93        24.5198  -31.6046  -44.6305 H         1 UNK         0.0786 
     94 H94        26.0726  -31.7188  -45.4431 H         1 UNK         0.0786 
     95 H95        24.8063  -30.8231  -41.8847 H         1 UNK         0.3172 
     96 H96        27.1284  -31.2925  -40.2611 H         1 UNK         0.0595 
     97 H97        25.4973  -33.7311  -41.1887 H         1 UNK         0.0839 
     98 H98        26.6596  -33.7415  -39.8694 H         1 UNK         0.0839 
     99 H99        27.2072  -33.4493  -41.5110 H         1 UNK         0.0839 
    100 H100       26.4545  -30.5626  -38.3450 H         1 UNK         0.2998 
    101 H101       25.2303  -29.8781  -36.6261 H         1 UNK         0.0822 
    102 H102       25.0562  -32.2873  -36.1359 H         1 UNK         0.0787 
    103 H103       23.5786  -31.4828  -35.6487 H         1 UNK         0.0787 
    104 H104       23.6145  -32.4436  -37.1268 H         1 UNK         0.0787 
    105 H105       22.1218  -31.0594  -37.3756 H         1 UNK         0.3055 
    106 H106       21.0127  -28.4278  -37.4621 H         1 UNK         0.1106 
    107 H107       18.8483  -29.6382  -37.6828 H         1 UNK         0.0828 
    108 H108       19.6946  -31.1451  -38.0036 H         1 UNK         0.0828 
    109 H109       19.8371  -30.3625  -36.4283 H         1 UNK         0.0828 
    110 H110       21.7315  -30.7709  -40.0746 H         1 UNK         0.2931 
    111 H111       21.4519  -28.7357  -42.0342 H         1 UNK         0.0412 
    112 H112       22.7453  -31.8646  -41.2597 H         1 UNK         0.3472 
    113 H113       23.2541  -32.2009  -42.8871 H         1 UNK         0.3472 
    114 H114       19.5772  -29.5659  -43.3896 H         1 UNK         0.0970 
    115 H115       19.0640  -29.0257  -41.8406 H         1 UNK         0.0970 
    116 H116       18.3831  -33.2327  -43.4824 H         1 UNK         0.0612 
    117 H117       19.9443  -32.5132  -43.7813 H         1 UNK         0.0612 
@<TRIPOS>BOND
     1    1    2 1    
     2    1   62 1    
     3    1   63 1    
     4    1   64 1    
     5    2    3 2    
     6    2    4 am   BACKBONE|DICT|INTERRES
     7    4    5 1    
     8    4   65 1    
     9    5    6 1    
    10    5   25 1    
    11    5   66 1    
    12    6    7 1    
    13    6   67 1    
    14    6   68 1    
    15    7    8 1    
    16    8    9 1    
    17    8   69 1    
    18    8   70 1    
    19    9   10 ar   
    20    9   14 ar   
    21   10   11 ar   
    22   10   71 1    
    23   11   12 ar   
    24   11   61 1    
    25   12   13 ar   
    26   12   72 1    
    27   13   14 ar   
    28   13   15 1    
    29   14   73 1    
    30   15   16 1    
    31   15   74 1    
    32   15   75 1    
    33   16   17 1    
    34   17   18 1    
    35   17   76 1    
    36   17   77 1    
    37   18   19 1    
    38   18   27 1    
    39   18   78 1    
    40   19   20 am   BACKBONE|DICT|INTERRES
    41   19   79 1    
    42   20   21 2    
    43   20   22 1    
    44   22   23 1    
    45   22   24 1    
    46   22   80 1    
    47   23   81 1    
    48   23   82 1    
    49   23   83 1    
    50   24   25 am   BACKBONE|DICT|INTERRES
    51   24   84 1    
    52   25   26 2    
    53   27   28 2    
    54   27   29 am   BACKBONE|DICT|INTERRES
    55   29   30 1    
    56   29   85 1    
    57   30   31 1    
    58   30   32 1    
    59   30   86 1    
    60   31   87 1    
    61   31   88 1    
    62   31   89 1    
    63   32   33 2    
    64   32   34 am   BACKBONE|DICT|INTERRES
    65   34   35 1    
    66   34   90 1    
    67   35   36 1    
    68   35   37 1    
    69   35   91 1    
    70   36   92 1    
    71   36   93 1    
    72   36   94 1    
    73   37   38 2    
    74   37   39 am   BACKBONE|DICT|INTERRES
    75   39   40 1    
    76   39   95 1    
    77   40   41 1    
    78   40   42 1    
    79   40   96 1    
    80   41   97 1    
    81   41   98 1    
    82   41   99 1    
    83   42   43 2    
    84   42   44 am   BACKBONE|DICT|INTERRES
    85   44   45 1    
    86   44  100 1    
    87   45   46 1    
    88   45   47 1    
    89   45  101 1    
    90   46  102 1    
    91   46  103 1    
    92   46  104 1    
    93   47   48 2    
    94   47   49 am   BACKBONE|DICT|INTERRES
    95   49   50 1    
    96   49  105 1    
    97   50   51 1    
    98   50   52 1    
    99   50  106 1    
   100   51  107 1    
   101   51  108 1    
   102   51  109 1    
   103   52   53 2    
   104   52   54 am   BACKBONE|DICT|INTERRES
   105   54   55 1    
   106   54  110 1    
   107   55   56 1    
   108   55   59 1    
   109   55  111 1    
   110   56   57 am   BACKBONE|DICT|INTERRES
   111   56   58 2    
   112   57  112 1    
   113   57  113 1    
   114   59   60 1    
   115   59  114 1    
   116   59  115 1    
   117   60   61 1    
   118   61  116 1    
   119   61  117 1    
@<TRIPOS>SUBSTRUCTURE
     1 UNK         1 GROUP             0       ****    0 ROOT    
