@<TRIPOS>MOLECULE
3R8
117   119    1
SMALL
USER_CHARGES


@<TRIPOS>ATOM
      1 CA         13.0100  -25.7852  -47.4407 C.3       0 UNK        -0.2013 
      2 C          14.4592  -25.5347  -47.0509 C.2       0 UNK         0.4866 
      3 O          14.8306  -24.3938  -46.7726 O.2       0 UNK        -0.5176 
      4 N          15.2824  -26.5898  -47.0413 N.am      1 UNK        -0.4884 
      5 CA         16.6882  -26.5598  -46.6254 C.3       1 UNK         0.0853 
      6 C6         17.4908  -27.7841  -47.1541 C.3       10 UNK        -0.0849 
      7 S7         16.6328  -29.4034  -47.1913 S.3       10 UNK        -0.2776 
      8 C8         16.3003  -29.8018  -45.4372 C.3       10 UNK         0.0316 
      9 C9         17.5132  -29.8129  -44.5058 C.ar      10 UNK        -0.0863 
     10 C10        17.3184  -29.5379  -43.1488 C.ar      10 UNK        -0.1009 
     11 C11        18.3869  -29.5668  -42.2488 C.ar      10 UNK        -0.0712 
     12 C12        19.6706  -29.8590  -42.7150 C.ar      10 UNK        -0.0894 
     13 C13        19.8818  -30.1376  -44.0680 C.ar      10 UNK        -0.0745 
     14 C14        18.8013  -30.1255  -44.9546 C.ar      10 UNK        -0.0972 
     15 C15        21.2736  -30.4628  -44.5806 C.3       10 UNK         0.0209 
     16 S16        22.1223  -28.9624  -45.1625 S.3       10 UNK        -0.2568 
     17 C17        22.7361  -28.2588  -43.5966 C.3       10 UNK        -0.0983 
     18 CA         22.2059  -26.8292  -43.3229 C.3       3 UNK         0.0876 
     19 N          20.7368  -26.7672  -43.2653 N.am      3 UNK        -0.4424 
     20 C          20.0250  -25.6357  -43.3507 C.2       2 UNK         0.4918 
     21 O          20.5275  -24.5201  -43.4913 O.2       2 UNK        -0.4875 
     22 CA         18.5000  -25.7792  -43.3239 C.3       2 UNK         0.0481 
     23 CB         17.8140  -24.5692  -42.6564 C.3       2 UNK        -0.1831 
     24 N          18.0580  -25.9376  -44.7045 N.am      2 UNK        -0.4498 
     25 C          16.8554  -26.3696  -45.1016 C.2       1 UNK         0.5027 
     26 O          15.9286  -26.6326  -44.3302 O.2       1 UNK        -0.4969 
     27 C          22.9020  -26.2474  -42.0723 C.2       3 UNK         0.5005 
     28 O          24.1097  -26.0168  -42.1251 O.2       3 UNK        -0.5279 
     29 N          22.1639  -26.0515  -40.9662 N.am      4 UNK        -0.4463 
     30 CA         22.6311  -25.4902  -39.6881 C.3       4 UNK         0.0283 
     31 CB         22.9332  -23.9842  -39.8400 C.3       4 UNK        -0.1875 
     32 C          23.8105  -26.2779  -39.0795 C.2       4 UNK         0.4949 
     33 O          24.7723  -25.6829  -38.5923 O.2       4 UNK        -0.5039 
     34 N          23.7093  -27.6127  -39.1561 N.am      5 UNK        -0.4663 
     35 CA         24.6803  -28.6205  -38.7110 C.3       5 UNK         0.0242 
     36 CB         24.9680  -28.5017  -37.1984 C.3       5 UNK        -0.1982 
     37 C          25.9725  -28.7003  -39.5504 C.2       5 UNK         0.5017 
     38 O          26.8808  -29.4357  -39.1605 O.2       5 UNK        -0.5012 
     39 N          26.0358  -28.0150  -40.7056 N.am      6 UNK        -0.4439 
     40 CA         27.1103  -28.1889  -41.6964 C.3       6 UNK         0.0297 
     41 CB         27.0955  -27.0236  -42.6978 C.3       6 UNK        -0.2006 
     42 C          27.0166  -29.5362  -42.4414 C.2       6 UNK         0.4892 
     43 O          28.0250  -30.0167  -42.9597 O.2       6 UNK        -0.5089 
     44 N          25.8157  -30.1223  -42.4574 N.am      7 UNK        -0.4243 
     45 CA         25.4973  -31.4697  -42.9068 C.3       7 UNK         0.0196 
     46 CB         25.1516  -31.4603  -44.4052 C.3       7 UNK        -0.2007 
     47 C          24.3274  -31.9666  -42.0464 C.2       7 UNK         0.5020 
     48 O          23.6808  -31.1596  -41.3694 O.2       7 UNK        -0.5147 
     49 N          24.0925  -33.2838  -42.0663 N.am      8 UNK        -0.4734 
     50 CA         23.0756  -33.9610  -41.2574 C.3       8 UNK         0.0238 
     51 CB         23.2360  -35.4832  -41.4073 C.3       8 UNK        -0.1912 
     52 C          21.6439  -33.5291  -41.6197 C.2       8 UNK         0.5038 
     53 O          21.2594  -33.6200  -42.7875 O.2       8 UNK        -0.5046 
     54 N          20.8921  -33.0896  -40.6057 N.am      9 UNK        -0.4200 
     55 CA         19.4711  -32.7383  -40.6941 C.3       9 UNK         0.0839 
     56 C          18.5791  -34.0048  -40.6073 C.2       9 UNK         0.5513 
     57 N          17.5224  -34.0806  -41.4040 N.am      9 UNK        -0.7519 
     58 O          18.8240  -34.9041  -39.8051 O.2       9 UNK        -0.4960 
     59 C59        19.1222  -31.6874  -39.6068 C.3       10 UNK        -0.0876 
     60 S60        17.5618  -30.7907  -39.9130 S.3       10 UNK        -0.2414 
     61 C61        18.1402  -29.2935  -40.7738 C.3       10 UNK         0.0169 
     62 H62        12.7482  -25.1909  -48.3158 H         1 UNK         0.0903 
     63 H63        12.8261  -26.8335  -47.6755 H         1 UNK         0.0903 
     64 H64        12.3478  -25.4998  -46.6238 H         1 UNK         0.0903 
     65 H65        14.9266  -27.5092  -47.2642 H         1 UNK         0.3096 
     66 H66        17.1278  -25.6692  -47.0817 H         1 UNK         0.1121 
     67 H67        18.4459  -27.8967  -46.6381 H         1 UNK         0.0849 
     68 H68        17.7680  -27.5783  -48.1891 H         1 UNK         0.0849 
     69 H69        15.5434  -29.1109  -45.0652 H         1 UNK         0.0865 
     70 H70        15.8411  -30.7904  -45.3988 H         1 UNK         0.0865 
     71 H71        16.3253  -29.3091  -42.7856 H         1 UNK         0.1346 
     72 H72        20.4990  -29.8968  -42.0208 H         1 UNK         0.1412 
     73 H73        18.9713  -30.3578  -45.9966 H         1 UNK         0.1426 
     74 H74        21.2058  -31.1713  -45.4075 H         1 UNK         0.0716 
     75 H75        21.8639  -30.9596  -43.8090 H         1 UNK         0.0716 
     76 H76        23.8255  -28.2512  -43.6693 H         1 UNK         0.0695 
     77 H77        22.5011  -28.9240  -42.7649 H         1 UNK         0.0695 
     78 H78        22.5217  -26.1996  -44.1581 H         1 UNK         0.0983 
     79 H79        20.2520  -27.6540  -43.2306 H         1 UNK         0.3095 
     80 H80        18.2452  -26.6787  -42.7607 H         1 UNK         0.0454 
     81 H81        17.9653  -23.6524  -43.2273 H         1 UNK         0.0851 
     82 H82        18.2104  -24.4000  -41.6546 H         1 UNK         0.0851 
     83 H83        16.7401  -24.7237  -42.5539 H         1 UNK         0.0851 
     84 H84        18.7662  -25.7433  -45.4004 H         1 UNK         0.2976 
     85 H85        21.1838  -26.2906  -41.0108 H         1 UNK         0.3116 
     86 H86        21.8035  -25.5900  -38.9841 H         1 UNK         0.0646 
     87 H87        22.0783  -23.4472  -40.2507 H         1 UNK         0.0847 
     88 H88        23.7863  -23.8072  -40.4959 H         1 UNK         0.0847 
     89 H89        23.1661  -23.5320  -38.8752 H         1 UNK         0.0847 
     90 H90        22.8767  -27.9849  -39.5918 H         1 UNK         0.3040 
     91 H91        24.1871  -29.5820  -38.8661 H         1 UNK         0.1015 
     92 H92        25.5465  -27.6084  -36.9621 H         1 UNK         0.0786 
     93 H93        25.5404  -29.3583  -36.8404 H         1 UNK         0.0786 
     94 H94        24.0451  -28.4684  -36.6194 H         1 UNK         0.0786 
     95 H95        25.2809  -27.3842  -40.9546 H         1 UNK         0.3172 
     96 H96        28.0663  -28.1662  -41.1691 H         1 UNK         0.0595 
     97 H97        26.2079  -27.0447  -43.3308 H         1 UNK         0.0839 
     98 H98        27.9623  -27.0702  -43.3583 H         1 UNK         0.0839 
     99 H99        27.1248  -26.0591  -42.1906 H         1 UNK         0.0839 
    100 H100       25.0587  -29.6872  -41.9454 H         1 UNK         0.2998 
    101 H101       26.3548  -32.1225  -42.7293 H         1 UNK         0.0822 
    102 H102       25.9935  -31.1092  -45.0022 H         1 UNK         0.0787 
    103 H103       24.8975  -32.4598  -44.7595 H         1 UNK         0.0787 
    104 H104       24.3026  -30.8128  -44.6167 H         1 UNK         0.0787 
    105 H105       24.6476  -33.8687  -42.6744 H         1 UNK         0.3055 
    106 H106       23.2670  -33.7033  -40.2131 H         1 UNK         0.1106 
    107 H107       23.0951  -35.8043  -42.4403 H         1 UNK         0.0828 
    108 H108       22.5019  -36.0143  -40.7995 H         1 UNK         0.0828 
    109 H109       24.2227  -35.8145  -41.0830 H         1 UNK         0.0828 
    110 H110       21.2835  -33.0898  -39.6756 H         1 UNK         0.2931 
    111 H111       19.3068  -32.2864  -41.6724 H         1 UNK         0.0412 
    112 H112       17.3061  -33.3321  -42.0443 H         1 UNK         0.3472 
    113 H113       16.9236  -34.8900  -41.3548 H         1 UNK         0.3472 
    114 H114       19.9234  -30.9509  -39.5283 H         1 UNK         0.0970 
    115 H115       19.0639  -32.1564  -38.6227 H         1 UNK         0.0970 
    116 H116       19.0373  -28.9015  -40.2925 H         1 UNK         0.0612 
    117 H117       17.3797  -28.5177  -40.6720 H         1 UNK         0.0612 
@<TRIPOS>BOND
     1    1    2 1    
     2    1   62 1    
     3    1   63 1    
     4    1   64 1    
     5    2    3 2    
     6    2    4 am   BACKBONE|DICT|INTERRES
     7    4    5 1    
     8    4   65 1    
     9    5    6 1    
    10    5   25 1    
    11    5   66 1    
    12    6    7 1    
    13    6   67 1    
    14    6   68 1    
    15    7    8 1    
    16    8    9 1    
    17    8   69 1    
    18    8   70 1    
    19    9   10 ar   
    20    9   14 ar   
    21   10   11 ar   
    22   10   71 1    
    23   11   12 ar   
    24   11   61 1    
    25   12   13 ar   
    26   12   72 1    
    27   13   14 ar   
    28   13   15 1    
    29   14   73 1    
    30   15   16 1    
    31   15   74 1    
    32   15   75 1    
    33   16   17 1    
    34   17   18 1    
    35   17   76 1    
    36   17   77 1    
    37   18   19 1    
    38   18   27 1    
    39   18   78 1    
    40   19   20 am   BACKBONE|DICT|INTERRES
    41   19   79 1    
    42   20   21 2    
    43   20   22 1    
    44   22   23 1    
    45   22   24 1    
    46   22   80 1    
    47   23   81 1    
    48   23   82 1    
    49   23   83 1    
    50   24   25 am   BACKBONE|DICT|INTERRES
    51   24   84 1    
    52   25   26 2    
    53   27   28 2    
    54   27   29 am   BACKBONE|DICT|INTERRES
    55   29   30 1    
    56   29   85 1    
    57   30   31 1    
    58   30   32 1    
    59   30   86 1    
    60   31   87 1    
    61   31   88 1    
    62   31   89 1    
    63   32   33 2    
    64   32   34 am   BACKBONE|DICT|INTERRES
    65   34   35 1    
    66   34   90 1    
    67   35   36 1    
    68   35   37 1    
    69   35   91 1    
    70   36   92 1    
    71   36   93 1    
    72   36   94 1    
    73   37   38 2    
    74   37   39 am   BACKBONE|DICT|INTERRES
    75   39   40 1    
    76   39   95 1    
    77   40   41 1    
    78   40   42 1    
    79   40   96 1    
    80   41   97 1    
    81   41   98 1    
    82   41   99 1    
    83   42   43 2    
    84   42   44 am   BACKBONE|DICT|INTERRES
    85   44   45 1    
    86   44  100 1    
    87   45   46 1    
    88   45   47 1    
    89   45  101 1    
    90   46  102 1    
    91   46  103 1    
    92   46  104 1    
    93   47   48 2    
    94   47   49 am   BACKBONE|DICT|INTERRES
    95   49   50 1    
    96   49  105 1    
    97   50   51 1    
    98   50   52 1    
    99   50  106 1    
   100   51  107 1    
   101   51  108 1    
   102   51  109 1    
   103   52   53 2    
   104   52   54 am   BACKBONE|DICT|INTERRES
   105   54   55 1    
   106   54  110 1    
   107   55   56 1    
   108   55   59 1    
   109   55  111 1    
   110   56   57 am   BACKBONE|DICT|INTERRES
   111   56   58 2    
   112   57  112 1    
   113   57  113 1    
   114   59   60 1    
   115   59  114 1    
   116   59  115 1    
   117   60   61 1    
   118   61  116 1    
   119   61  117 1    
@<TRIPOS>SUBSTRUCTURE
     1 UNK         1 GROUP             0       ****    0 ROOT    
