@<TRIPOS>MOLECULE
3R8
117   119    1
SMALL
USER_CHARGES


@<TRIPOS>ATOM
      1 CA         13.9876  -22.3332  -44.1496 C.3       0 UNK        -0.2013 
      2 C          14.7938  -23.3200  -44.9807 C.2       0 UNK         0.4866 
      3 O          14.9931  -23.0959  -46.1753 O.2       0 UNK        -0.5176 
      4 N          15.2500  -24.4153  -44.3616 N.am      1 UNK        -0.4884 
      5 CA         16.0792  -25.4488  -44.9906 C.3       1 UNK         0.0853 
      6 C6         16.1837  -26.7236  -44.1175 C.3       10 UNK        -0.0849 
      7 S7         14.5913  -27.4054  -43.5300 S.3       10 UNK        -0.2776 
      8 C8         14.9596  -29.1833  -43.2500 C.3       10 UNK         0.0316 
      9 C9         16.3778  -29.4736  -42.7566 C.ar      10 UNK        -0.0863 
     10 C10        17.1302  -30.4886  -43.3587 C.ar      10 UNK        -0.1009 
     11 C11        18.4618  -30.7023  -42.9884 C.ar      10 UNK        -0.0712 
     12 C12        19.0449  -29.8874  -42.0146 C.ar      10 UNK        -0.0894 
     13 C13        18.3067  -28.8682  -41.4117 C.ar      10 UNK        -0.0745 
     14 C14        16.9612  -28.7013  -41.7464 C.ar      10 UNK        -0.0972 
     15 C15        18.9771  -27.8877  -40.4663 C.3       10 UNK         0.0209 
     16 S16        19.5347  -26.4098  -41.3814 S.3       10 UNK        -0.2568 
     17 C17        21.1376  -26.9513  -42.0651 C.3       10 UNK        -0.0983 
     18 CA         21.1035  -27.3901  -43.5517 C.3       3 UNK         0.0876 
     19 N          20.5606  -26.3568  -44.4449 N.am      3 UNK        -0.4424 
     20 C          20.2900  -26.5420  -45.7454 C.2       2 UNK         0.4918 
     21 O          20.4911  -27.5982  -46.3466 O.2       2 UNK        -0.4875 
     22 CA         19.6112  -25.3740  -46.4787 C.3       2 UNK         0.0481 
     23 CB         19.9091  -25.3805  -47.9893 C.3       2 UNK        -0.1831 
     24 N          18.1692  -25.4917  -46.2711 N.am      2 UNK        -0.4498 
     25 C          17.5093  -24.9296  -45.2518 C.2       1 UNK         0.5027 
     26 O          18.0169  -24.1090  -44.4816 O.2       1 UNK        -0.4969 
     27 C          22.5069  -27.8745  -43.9734 C.2       3 UNK         0.5005 
     28 O          22.7949  -29.0682  -43.8741 O.2       3 UNK        -0.5279 
     29 N          23.3579  -26.9345  -44.4138 N.am      4 UNK        -0.4463 
     30 CA         24.7413  -27.0844  -44.8957 C.3       4 UNK         0.0283 
     31 CB         24.8045  -27.9773  -46.1498 C.3       4 UNK        -0.1875 
     32 C          25.7698  -27.5389  -43.8397 C.2       4 UNK         0.4949 
     33 O          26.8779  -27.0030  -43.8218 O.2       4 UNK        -0.5039 
     34 N          25.3979  -28.4904  -42.9778 N.am      5 UNK        -0.4663 
     35 CA         26.2221  -29.0398  -41.8982 C.3       5 UNK         0.0242 
     36 CB         26.8923  -30.3461  -42.3655 C.3       5 UNK        -0.1982 
     37 C          25.3867  -29.2235  -40.6211 C.2       5 UNK         0.5017 
     38 O          25.5911  -30.1914  -39.8867 O.2       5 UNK        -0.5012 
     39 N          24.4520  -28.2906  -40.3838 N.am      6 UNK        -0.4439 
     40 CA         23.4930  -28.2704  -39.2724 C.3       6 UNK         0.0297 
     41 CB         24.2211  -28.0113  -37.9331 C.3       6 UNK        -0.2006 
     42 C          22.5924  -29.5243  -39.2665 C.2       6 UNK         0.4892 
     43 O          22.2405  -30.0221  -40.3374 O.2       6 UNK        -0.5089 
     44 N          22.2343  -30.0182  -38.0743 N.am      7 UNK        -0.4243 
     45 CA         21.3576  -31.1755  -37.8596 C.3       7 UNK         0.0196 
     46 CB         21.0565  -31.2974  -36.3569 C.3       7 UNK        -0.2007 
     47 C          21.8916  -32.5119  -38.4134 C.2       7 UNK         0.5020 
     48 O          21.1108  -33.4540  -38.5479 O.2       7 UNK        -0.5147 
     49 N          23.1926  -32.5829  -38.7304 N.am      8 UNK        -0.4734 
     50 CA         23.8148  -33.7294  -39.3977 C.3       8 UNK         0.0238 
     51 CB         25.3377  -33.6718  -39.1955 C.3       8 UNK        -0.1912 
     52 C          23.4706  -33.8208  -40.8972 C.2       8 UNK         0.5038 
     53 O          23.6208  -34.9042  -41.4623 O.2       8 UNK        -0.5046 
     54 N          23.0130  -32.7079  -41.4923 N.am      9 UNK        -0.4200 
     55 CA         22.6448  -32.5199  -42.9033 C.3       9 UNK         0.0839 
     56 C          23.8630  -32.5859  -43.8608 C.2       9 UNK         0.5513 
     57 N          24.1720  -31.4863  -44.5324 N.am      9 UNK        -0.7519 
     58 O          24.4943  -33.6232  -44.0441 O.2       9 UNK        -0.4960 
     59 C59        21.4881  -33.4417  -43.3805 C.3       10 UNK        -0.0876 
     60 S60        19.9189  -33.0249  -42.5527 S.3       10 UNK        -0.2414 
     61 C61        19.3047  -31.7492  -43.6976 C.3       10 UNK         0.0169 
     62 H62        14.4798  -21.3611  -44.1406 H         1 UNK         0.0903 
     63 H63        12.9926  -22.2080  -44.5759 H         1 UNK         0.0903 
     64 H64        13.8746  -22.6656  -43.1178 H         1 UNK         0.0903 
     65 H65        15.0624  -24.5507  -43.3785 H         1 UNK         0.3096 
     66 H66        15.6206  -25.7125  -45.9463 H         1 UNK         0.1121 
     67 H67        16.7122  -27.5051  -44.6674 H         1 UNK         0.0849 
     68 H68        16.7902  -26.5087  -43.2356 H         1 UNK         0.0849 
     69 H69        14.7724  -29.7126  -44.1857 H         1 UNK         0.0865 
     70 H70        14.2459  -29.5818  -42.5279 H         1 UNK         0.0865 
     71 H71        16.6905  -31.0921  -44.1412 H         1 UNK         0.1346 
     72 H72        20.0880  -30.0212  -41.7616 H         1 UNK         0.1412 
     73 H73        16.3921  -27.9070  -41.2828 H         1 UNK         0.1426 
     74 H74        19.8121  -28.3554  -39.9434 H         1 UNK         0.0716 
     75 H75        18.2697  -27.5790  -39.6953 H         1 UNK         0.0716 
     76 H76        21.5135  -27.7670  -41.4500 H         1 UNK         0.0695 
     77 H77        21.8401  -26.1269  -41.9287 H         1 UNK         0.0695 
     78 H78        20.4414  -28.2522  -43.6394 H         1 UNK         0.0983 
     79 H79        20.2977  -25.4822  -44.0112 H         1 UNK         0.3095 
     80 H80        19.9881  -24.4346  -46.0686 H         1 UNK         0.0454 
     81 H81        19.4537  -24.5229  -48.4845 H         1 UNK         0.0851 
     82 H82        19.5384  -26.2826  -48.4776 H         1 UNK         0.0851 
     83 H83        20.9829  -25.3282  -48.1737 H         1 UNK         0.0851 
     84 H84        17.6974  -26.1841  -46.8362 H         1 UNK         0.2976 
     85 H85        23.0125  -25.9845  -44.4213 H         1 UNK         0.3116 
     86 H86        25.0456  -26.0823  -45.2027 H         1 UNK         0.0646 
     87 H87        25.8163  -28.0064  -46.5561 H         1 UNK         0.0847 
     88 H88        24.1499  -27.6017  -46.9363 H         1 UNK         0.0847 
     89 H89        24.5131  -29.0052  -45.9373 H         1 UNK         0.0847 
     90 H90        24.4631  -28.8797  -43.0853 H         1 UNK         0.3040 
     91 H91        27.0095  -28.3283  -41.6399 H         1 UNK         0.1015 
     92 H92        27.4569  -30.1974  -43.2859 H         1 UNK         0.0786 
     93 H93        26.1585  -31.1317  -42.5435 H         1 UNK         0.0786 
     94 H94        27.5900  -30.7181  -41.6143 H         1 UNK         0.0786 
     95 H95        24.3601  -27.5479  -41.0615 H         1 UNK         0.3172 
     96 H96        22.8319  -27.4223  -39.4538 H         1 UNK         0.0595 
     97 H97        24.8332  -28.8607  -37.6275 H         1 UNK         0.0839 
     98 H98        23.5167  -27.7996  -37.1281 H         1 UNK         0.0839 
     99 H99        24.8783  -27.1449  -38.0073 H         1 UNK         0.0839 
    100 H100       22.5819  -29.5590  -37.2450 H         1 UNK         0.2998 
    101 H101       20.4198  -30.9735  -38.3812 H         1 UNK         0.0822 
    102 H102       20.5821  -30.3949  -35.9712 H         1 UNK         0.0787 
    103 H103       20.3755  -32.1266  -36.1603 H         1 UNK         0.0787 
    104 H104       21.9630  -31.4764  -35.7778 H         1 UNK         0.0787 
    105 H105       23.7676  -31.7605  -38.6054 H         1 UNK         0.3055 
    106 H106       23.4451  -34.6430  -38.9264 H         1 UNK         0.1106 
    107 H107       25.8188  -34.5545  -39.6189 H         1 UNK         0.0828 
    108 H108       25.7783  -32.8010  -39.6809 H         1 UNK         0.0828 
    109 H109       25.5993  -33.6374  -38.1380 H         1 UNK         0.0828 
    110 H110       22.9101  -31.8741  -40.9239 H         1 UNK         0.2931 
    111 H111       22.2686  -31.4967  -42.9392 H         1 UNK         0.0412 
    112 H112       23.6381  -30.6321  -44.3907 H         1 UNK         0.3472 
    113 H113       24.9425  -31.5037  -45.1803 H         1 UNK         0.3472 
    114 H114       21.3431  -33.3577  -44.4594 H         1 UNK         0.0970 
    115 H115       21.7186  -34.4919  -43.1985 H         1 UNK         0.0970 
    116 H116       20.1431  -31.2381  -44.1736 H         1 UNK         0.0612 
    117 H117       18.7435  -32.2339  -44.4979 H         1 UNK         0.0612 
@<TRIPOS>BOND
     1    1    2 1    
     2    1   62 1    
     3    1   63 1    
     4    1   64 1    
     5    2    3 2    
     6    2    4 am   BACKBONE|DICT|INTERRES
     7    4    5 1    
     8    4   65 1    
     9    5    6 1    
    10    5   25 1    
    11    5   66 1    
    12    6    7 1    
    13    6   67 1    
    14    6   68 1    
    15    7    8 1    
    16    8    9 1    
    17    8   69 1    
    18    8   70 1    
    19    9   10 ar   
    20    9   14 ar   
    21   10   11 ar   
    22   10   71 1    
    23   11   12 ar   
    24   11   61 1    
    25   12   13 ar   
    26   12   72 1    
    27   13   14 ar   
    28   13   15 1    
    29   14   73 1    
    30   15   16 1    
    31   15   74 1    
    32   15   75 1    
    33   16   17 1    
    34   17   18 1    
    35   17   76 1    
    36   17   77 1    
    37   18   19 1    
    38   18   27 1    
    39   18   78 1    
    40   19   20 am   BACKBONE|DICT|INTERRES
    41   19   79 1    
    42   20   21 2    
    43   20   22 1    
    44   22   23 1    
    45   22   24 1    
    46   22   80 1    
    47   23   81 1    
    48   23   82 1    
    49   23   83 1    
    50   24   25 am   BACKBONE|DICT|INTERRES
    51   24   84 1    
    52   25   26 2    
    53   27   28 2    
    54   27   29 am   BACKBONE|DICT|INTERRES
    55   29   30 1    
    56   29   85 1    
    57   30   31 1    
    58   30   32 1    
    59   30   86 1    
    60   31   87 1    
    61   31   88 1    
    62   31   89 1    
    63   32   33 2    
    64   32   34 am   BACKBONE|DICT|INTERRES
    65   34   35 1    
    66   34   90 1    
    67   35   36 1    
    68   35   37 1    
    69   35   91 1    
    70   36   92 1    
    71   36   93 1    
    72   36   94 1    
    73   37   38 2    
    74   37   39 am   BACKBONE|DICT|INTERRES
    75   39   40 1    
    76   39   95 1    
    77   40   41 1    
    78   40   42 1    
    79   40   96 1    
    80   41   97 1    
    81   41   98 1    
    82   41   99 1    
    83   42   43 2    
    84   42   44 am   BACKBONE|DICT|INTERRES
    85   44   45 1    
    86   44  100 1    
    87   45   46 1    
    88   45   47 1    
    89   45  101 1    
    90   46  102 1    
    91   46  103 1    
    92   46  104 1    
    93   47   48 2    
    94   47   49 am   BACKBONE|DICT|INTERRES
    95   49   50 1    
    96   49  105 1    
    97   50   51 1    
    98   50   52 1    
    99   50  106 1    
   100   51  107 1    
   101   51  108 1    
   102   51  109 1    
   103   52   53 2    
   104   52   54 am   BACKBONE|DICT|INTERRES
   105   54   55 1    
   106   54  110 1    
   107   55   56 1    
   108   55   59 1    
   109   55  111 1    
   110   56   57 am   BACKBONE|DICT|INTERRES
   111   56   58 2    
   112   57  112 1    
   113   57  113 1    
   114   59   60 1    
   115   59  114 1    
   116   59  115 1    
   117   60   61 1    
   118   61  116 1    
   119   61  117 1    
@<TRIPOS>SUBSTRUCTURE
     1 UNK         1 GROUP             0       ****    0 ROOT    
