@<TRIPOS>MOLECULE
3R8
117   119    1
SMALL
USER_CHARGES


@<TRIPOS>ATOM
      1 CA         15.7623  -26.8082  -41.5515 C.3       0 UNK        -0.2013 
      2 C          16.1033  -25.9896  -42.7873 C.2       0 UNK         0.4866 
      3 O          15.8899  -24.7764  -42.7965 O.2       0 UNK        -0.5176 
      4 N          16.6141  -26.6494  -43.8339 N.am      1 UNK        -0.4884 
      5 CA         17.0025  -26.0337  -45.1095 C.3       1 UNK         0.0853 
      6 C6         16.8540  -27.0121  -46.3113 C.3       10 UNK        -0.0849 
      7 S7         15.2968  -27.9850  -46.2632 S.3       10 UNK        -0.2776 
      8 C8         15.8296  -29.7368  -46.2461 C.3       10 UNK         0.0316 
      9 C9         17.0450  -29.9944  -45.3650 C.ar      10 UNK        -0.0863 
     10 C10        16.9345  -30.0304  -43.9715 C.ar      10 UNK        -0.1009 
     11 C11        18.0740  -30.1979  -43.1757 C.ar      10 UNK        -0.0712 
     12 C12        19.3285  -30.3112  -43.7874 C.ar      10 UNK        -0.0894 
     13 C13        19.4444  -30.3215  -45.1796 C.ar      10 UNK        -0.0745 
     14 C14        18.2948  -30.1828  -45.9597 C.ar      10 UNK        -0.0972 
     15 C15        20.8017  -30.5012  -45.8473 C.3       10 UNK         0.0209 
     16 S16        21.1561  -29.1570  -47.0251 S.3       10 UNK        -0.2568 
     17 C17        22.6821  -28.4198  -46.3461 C.3       10 UNK        -0.0983 
     18 CA         22.4553  -27.2687  -45.3284 C.3       3 UNK         0.0876 
     19 N          21.4180  -26.3351  -45.7776 N.am      3 UNK        -0.4424 
     20 C          21.4764  -25.0012  -45.6943 C.2       2 UNK         0.4918 
     21 O          22.4389  -24.3849  -45.2368 O.2       2 UNK        -0.4875 
     22 CA         20.2509  -24.2106  -46.2022 C.3       2 UNK         0.0481 
     23 CB         20.4856  -23.7466  -47.6487 C.3       2 UNK        -0.1831 
     24 N          18.9575  -24.9102  -46.1247 N.am      2 UNK        -0.4498 
     25 C          18.4250  -25.4302  -45.0081 C.2       1 UNK         0.5027 
     26 O          19.0319  -25.4512  -43.9351 O.2       1 UNK        -0.4969 
     27 C          22.2334  -27.7847  -43.8882 C.2       3 UNK         0.5005 
     28 O          23.0160  -28.6232  -43.4337 O.2       3 UNK        -0.5279 
     29 N          21.2134  -27.2910  -43.1669 N.am      4 UNK        -0.4463 
     30 CA         20.9982  -27.6030  -41.7494 C.3       4 UNK         0.0283 
     31 CB         19.6720  -26.9952  -41.2717 C.3       4 UNK        -0.1875 
     32 C          22.1642  -27.1095  -40.8769 C.2       4 UNK         0.4949 
     33 O          22.7388  -26.0565  -41.1581 O.2       4 UNK        -0.5039 
     34 N          22.5127  -27.9103  -39.8632 N.am      5 UNK        -0.4663 
     35 CA         23.6470  -27.7751  -38.9340 C.3       5 UNK         0.0242 
     36 CB         23.6301  -26.4260  -38.1873 C.3       5 UNK        -0.1982 
     37 C          25.0262  -28.0596  -39.5612 C.2       5 UNK         0.5017 
     38 O          25.9279  -28.4755  -38.8323 O.2       5 UNK        -0.5012 
     39 N          25.1723  -27.8759  -40.8815 N.am      6 UNK        -0.4439 
     40 CA         26.3063  -28.3737  -41.6631 C.3       6 UNK         0.0297 
     41 CB         26.3874  -27.6400  -43.0121 C.3       6 UNK        -0.2006 
     42 C          26.1921  -29.8956  -41.8518 C.2       6 UNK         0.4892 
     43 O          27.1544  -30.6166  -41.5845 O.2       6 UNK        -0.5089 
     44 N          25.0003  -30.3536  -42.2583 N.am      7 UNK        -0.4243 
     45 CA         24.5903  -31.7558  -42.2218 C.3       7 UNK         0.0196 
     46 CB         23.4367  -31.9556  -43.2186 C.3       7 UNK        -0.2007 
     47 C          24.1392  -32.1497  -40.8053 C.2       7 UNK         0.5020 
     48 O          23.7591  -31.2842  -40.0118 O.2       7 UNK        -0.5147 
     49 N          24.1104  -33.4635  -40.5374 N.am      8 UNK        -0.4734 
     50 CA         23.6821  -34.0702  -39.2646 C.3       8 UNK         0.0238 
     51 CB         23.9199  -35.5881  -39.3269 C.3       8 UNK        -0.1912 
     52 C          22.2239  -33.7698  -38.8582 C.2       8 UNK         0.5038 
     53 O          21.8830  -33.9075  -37.6829 O.2       8 UNK        -0.5046 
     54 N          21.4086  -33.3426  -39.8300 N.am      9 UNK        -0.4200 
     55 CA         20.0817  -32.7388  -39.6491 C.3       9 UNK         0.0839 
     56 C          20.1036  -31.4126  -38.8229 C.2       9 UNK         0.5513 
     57 N          21.2119  -30.6811  -38.7572 N.am      9 UNK        -0.7519 
     58 O          19.1093  -31.0587  -38.1958 O.2       9 UNK        -0.4960 
     59 C59        19.4111  -32.5813  -41.0408 C.3       10 UNK        -0.0876 
     60 S60        17.6978  -31.9459  -41.0471 S.3       10 UNK        -0.2414 
     61 C61        17.9449  -30.2469  -41.6582 C.3       10 UNK         0.0169 
     62 H62        16.5648  -26.7389  -40.8179 H         1 UNK         0.0903 
     63 H63        14.8478  -26.4346  -41.0916 H         1 UNK         0.0903 
     64 H64        15.6040  -27.8572  -41.7980 H         1 UNK         0.0903 
     65 H65        16.7837  -27.6432  -43.7732 H         1 UNK         0.3096 
     66 H66        16.3274  -25.1947  -45.2936 H         1 UNK         0.1121 
     67 H67        17.7178  -27.6694  -46.3826 H         1 UNK         0.0849 
     68 H68        16.8486  -26.4509  -47.2469 H         1 UNK         0.0849 
     69 H69        14.9977  -30.3557  -45.9069 H         1 UNK         0.0865 
     70 H70        16.0324  -30.0471  -47.2725 H         1 UNK         0.0865 
     71 H71        15.9631  -29.9205  -43.5084 H         1 UNK         0.1346 
     72 H72        20.2197  -30.4037  -43.1856 H         1 UNK         0.1412 
     73 H73        18.3827  -30.1801  -47.0378 H         1 UNK         0.1426 
     74 H74        20.8087  -31.4507  -46.3840 H         1 UNK         0.0716 
     75 H75        21.5936  -30.5656  -45.1014 H         1 UNK         0.0716 
     76 H76        23.2290  -28.0168  -47.1997 H         1 UNK         0.0695 
     77 H77        23.3306  -29.2018  -45.9464 H         1 UNK         0.0695 
     78 H78        23.4014  -26.7260  -45.2706 H         1 UNK         0.0983 
     79 H79        20.5956  -26.7623  -46.1784 H         1 UNK         0.3095 
     80 H80        20.1668  -23.3214  -45.5742 H         1 UNK         0.0454 
     81 H81        20.5363  -24.5891  -48.3396 H         1 UNK         0.0851 
     82 H82        21.4244  -23.1977  -47.7363 H         1 UNK         0.0851 
     83 H83        19.6929  -23.0795  -47.9876 H         1 UNK         0.0851 
     84 H84        18.4130  -24.9282  -46.9750 H         1 UNK         0.2976 
     85 H85        20.6078  -26.5828  -43.5711 H         1 UNK         0.3116 
     86 H86        20.9329  -28.6886  -41.6584 H         1 UNK         0.0646 
     87 H87        18.8390  -27.3407  -41.8825 H         1 UNK         0.0847 
     88 H88        19.6897  -25.9055  -41.3168 H         1 UNK         0.0847 
     89 H89        19.4594  -27.2768  -40.2396 H         1 UNK         0.0847 
     90 H90        21.9978  -28.7757  -39.7660 H         1 UNK         0.3040 
     91 H91        23.4993  -28.5580  -38.1879 H         1 UNK         0.1015 
     92 H92        23.8457  -25.5869  -38.8490 H         1 UNK         0.0786 
     93 H93        24.3835  -26.4123  -37.3987 H         1 UNK         0.0786 
     94 H94        22.6643  -26.2445  -37.7159 H         1 UNK         0.0786 
     95 H95        24.3855  -27.4942  -41.3917 H         1 UNK         0.3172 
     96 H96        27.2268  -28.1666  -41.1131 H         1 UNK         0.0595 
     97 H97        25.5055  -27.8104  -43.6288 H         1 UNK         0.0839 
     98 H98        27.2519  -27.9790  -43.5844 H         1 UNK         0.0839 
     99 H99        26.4943  -26.5643  -42.8717 H         1 UNK         0.0839 
    100 H100       24.2710  -29.6826  -42.4886 H         1 UNK         0.2998 
    101 H101       25.4326  -32.3853  -42.5166 H         1 UNK         0.0822 
    102 H102       23.7283  -31.6514  -44.2242 H         1 UNK         0.0787 
    103 H103       23.1342  -33.0020  -43.2729 H         1 UNK         0.0787 
    104 H104       22.5587  -31.3733  -42.9363 H         1 UNK         0.0787 
    105 H105       24.4209  -34.1055  -41.2536 H         1 UNK         0.3055 
    106 H106       24.3155  -33.6551  -38.4774 H         1 UNK         0.1106 
    107 H107       23.3314  -36.0572  -40.1163 H         1 UNK         0.0828 
    108 H108       23.6423  -36.0667  -38.3864 H         1 UNK         0.0828 
    109 H109       24.9700  -35.8198  -39.5056 H         1 UNK         0.0828 
    110 H110       21.8009  -33.2799  -40.7563 H         1 UNK         0.2931 
    111 H111       19.4870  -33.4515  -39.0746 H         1 UNK         0.0412 
    112 H112       21.2103  -29.8871  -38.1380 H         1 UNK         0.3472 
    113 H113       22.0743  -30.9925  -39.1977 H         1 UNK         0.3472 
    114 H114       19.3828  -33.5527  -41.5372 H         1 UNK         0.0970 
    115 H115       20.0378  -31.9559  -41.6719 H         1 UNK         0.0970 
    116 H116       18.8228  -29.8116  -41.1810 H         1 UNK         0.0612 
    117 H117       17.0975  -29.6410  -41.3379 H         1 UNK         0.0612 
@<TRIPOS>BOND
     1    1    2 1    
     2    1   62 1    
     3    1   63 1    
     4    1   64 1    
     5    2    3 2    
     6    2    4 am   BACKBONE|DICT|INTERRES
     7    4    5 1    
     8    4   65 1    
     9    5    6 1    
    10    5   25 1    
    11    5   66 1    
    12    6    7 1    
    13    6   67 1    
    14    6   68 1    
    15    7    8 1    
    16    8    9 1    
    17    8   69 1    
    18    8   70 1    
    19    9   10 ar   
    20    9   14 ar   
    21   10   11 ar   
    22   10   71 1    
    23   11   12 ar   
    24   11   61 1    
    25   12   13 ar   
    26   12   72 1    
    27   13   14 ar   
    28   13   15 1    
    29   14   73 1    
    30   15   16 1    
    31   15   74 1    
    32   15   75 1    
    33   16   17 1    
    34   17   18 1    
    35   17   76 1    
    36   17   77 1    
    37   18   19 1    
    38   18   27 1    
    39   18   78 1    
    40   19   20 am   BACKBONE|DICT|INTERRES
    41   19   79 1    
    42   20   21 2    
    43   20   22 1    
    44   22   23 1    
    45   22   24 1    
    46   22   80 1    
    47   23   81 1    
    48   23   82 1    
    49   23   83 1    
    50   24   25 am   BACKBONE|DICT|INTERRES
    51   24   84 1    
    52   25   26 2    
    53   27   28 2    
    54   27   29 am   BACKBONE|DICT|INTERRES
    55   29   30 1    
    56   29   85 1    
    57   30   31 1    
    58   30   32 1    
    59   30   86 1    
    60   31   87 1    
    61   31   88 1    
    62   31   89 1    
    63   32   33 2    
    64   32   34 am   BACKBONE|DICT|INTERRES
    65   34   35 1    
    66   34   90 1    
    67   35   36 1    
    68   35   37 1    
    69   35   91 1    
    70   36   92 1    
    71   36   93 1    
    72   36   94 1    
    73   37   38 2    
    74   37   39 am   BACKBONE|DICT|INTERRES
    75   39   40 1    
    76   39   95 1    
    77   40   41 1    
    78   40   42 1    
    79   40   96 1    
    80   41   97 1    
    81   41   98 1    
    82   41   99 1    
    83   42   43 2    
    84   42   44 am   BACKBONE|DICT|INTERRES
    85   44   45 1    
    86   44  100 1    
    87   45   46 1    
    88   45   47 1    
    89   45  101 1    
    90   46  102 1    
    91   46  103 1    
    92   46  104 1    
    93   47   48 2    
    94   47   49 am   BACKBONE|DICT|INTERRES
    95   49   50 1    
    96   49  105 1    
    97   50   51 1    
    98   50   52 1    
    99   50  106 1    
   100   51  107 1    
   101   51  108 1    
   102   51  109 1    
   103   52   53 2    
   104   52   54 am   BACKBONE|DICT|INTERRES
   105   54   55 1    
   106   54  110 1    
   107   55   56 1    
   108   55   59 1    
   109   55  111 1    
   110   56   57 am   BACKBONE|DICT|INTERRES
   111   56   58 2    
   112   57  112 1    
   113   57  113 1    
   114   59   60 1    
   115   59  114 1    
   116   59  115 1    
   117   60   61 1    
   118   61  116 1    
   119   61  117 1    
@<TRIPOS>SUBSTRUCTURE
     1 UNK         1 GROUP             0       ****    0 ROOT    
