@<TRIPOS>MOLECULE
3R8
117   119    1
SMALL
USER_CHARGES


@<TRIPOS>ATOM
      1 CA         23.0989  -30.5209  -46.9810 C.3       0 UNK        -0.2013 
      2 C          21.7288  -30.4652  -46.3216 C.2       0 UNK         0.4866 
      3 O          21.0158  -31.4680  -46.3149 O.2       0 UNK        -0.5176 
      4 N          21.3661  -29.3005  -45.7733 N.am      1 UNK        -0.4884 
      5 CA         20.1176  -29.0558  -45.0543 C.3       1 UNK         0.0853 
      6 C6         19.1473  -28.1582  -45.8688 C.3       10 UNK        -0.0849 
      7 S7         18.0947  -29.1653  -46.9650 S.3       10 UNK        -0.2776 
      8 C8         16.4525  -29.0085  -46.1761 C.3       10 UNK         0.0316 
      9 C9         16.4678  -29.2452  -44.6674 C.ar      10 UNK        -0.0863 
     10 C10        17.0398  -30.4022  -44.1303 C.ar      10 UNK        -0.1009 
     11 C11        17.0750  -30.6110  -42.7468 C.ar      10 UNK        -0.0712 
     12 C12        16.4953  -29.6567  -41.9012 C.ar      10 UNK        -0.0894 
     13 C13        15.9013  -28.5016  -42.4243 C.ar      10 UNK        -0.0745 
     14 C14        15.9018  -28.2994  -43.8073 C.ar      10 UNK        -0.0972 
     15 C15        15.1935  -27.5035  -41.5120 C.3       10 UNK         0.0209 
     16 S16        16.2728  -26.7616  -40.2449 S.3       10 UNK        -0.2568 
     17 C17        17.2545  -25.5423  -41.1890 C.3       10 UNK        -0.0983 
     18 CA         18.7524  -25.6257  -40.8066 C.3       3 UNK         0.0876 
     19 N          19.2953  -26.9451  -41.1268 N.am      3 UNK        -0.4424 
     20 C          20.4892  -27.4156  -40.7565 C.2       2 UNK         0.4918 
     21 O          21.3179  -26.7943  -40.0919 O.2       2 UNK        -0.4875 
     22 CA         20.8397  -28.8146  -41.2658 C.3       2 UNK         0.0481 
     23 CB         20.3271  -29.8607  -40.2617 C.3       2 UNK        -0.1831 
     24 N          20.3776  -29.1422  -42.6201 N.am      2 UNK        -0.4498 
     25 C          20.5011  -28.3960  -43.7273 C.2       1 UNK         0.5027 
     26 O          20.9245  -27.2390  -43.7397 O.2       1 UNK        -0.4969 
     27 C          19.5754  -24.4561  -41.3994 C.2       3 UNK         0.5005 
     28 O          19.4501  -23.3346  -40.9039 O.2       3 UNK        -0.5279 
     29 N          20.4160  -24.7297  -42.4087 N.am      4 UNK        -0.4463 
     30 CA         21.4086  -23.8046  -42.9574 C.3       4 UNK         0.0283 
     31 CB         21.1131  -23.5736  -44.4487 C.3       4 UNK        -0.1875 
     32 C          22.8429  -24.3332  -42.7748 C.2       4 UNK         0.4949 
     33 O          23.7400  -23.5404  -42.4891 O.2       4 UNK        -0.5039 
     34 N          23.0478  -25.6440  -42.9733 N.am      5 UNK        -0.4663 
     35 CA         24.3649  -26.2851  -43.0304 C.3       5 UNK         0.0242 
     36 CB         24.2313  -27.6673  -43.6943 C.3       5 UNK        -0.1982 
     37 C          25.0772  -26.4186  -41.6755 C.2       5 UNK         0.5017 
     38 O          26.3004  -26.2842  -41.6425 O.2       5 UNK        -0.5012 
     39 N          24.3134  -26.7024  -40.6079 N.am      6 UNK        -0.4439 
     40 CA         24.7657  -26.9907  -39.2371 C.3       6 UNK         0.0297 
     41 CB         25.1549  -25.6717  -38.5374 C.3       6 UNK        -0.2006 
     42 C          25.8935  -28.0571  -39.1552 C.2       6 UNK         0.4892 
     43 O          27.0274  -27.7067  -38.8278 O.2       6 UNK        -0.5089 
     44 N          25.6336  -29.3390  -39.4548 N.am      7 UNK        -0.4243 
     45 CA         24.3561  -29.9478  -39.8122 C.3       7 UNK         0.0196 
     46 CB         23.6085  -30.3794  -38.5370 C.3       7 UNK        -0.2007 
     47 C          24.5886  -31.1485  -40.7388 C.2       7 UNK         0.5020 
     48 O          25.6486  -31.7748  -40.6749 O.2       7 UNK        -0.5147 
     49 N          23.5768  -31.4605  -41.5547 N.am      8 UNK        -0.4734 
     50 CA         23.4986  -32.5941  -42.4753 C.3       8 UNK         0.0238 
     51 CB         24.3894  -32.3427  -43.7063 C.3       8 UNK        -0.1912 
     52 C          22.0285  -32.7444  -42.8911 C.2       8 UNK         0.5038 
     53 O          21.2989  -31.7537  -42.8559 O.2       8 UNK        -0.5046 
     54 N          21.6051  -33.9478  -43.2829 N.am      9 UNK        -0.4200 
     55 CA         20.2464  -34.2193  -43.7750 C.3       9 UNK         0.0839 
     56 C          20.2148  -35.4930  -44.6599 C.2       9 UNK         0.5513 
     57 N          19.0734  -35.8052  -45.2568 N.am      9 UNK        -0.7519 
     58 O          21.2079  -36.2044  -44.8061 O.2       9 UNK        -0.4960 
     59 C59        19.1773  -34.2316  -42.6352 C.3       10 UNK        -0.0876 
     60 S60        17.6421  -33.3599  -43.1145 S.3       10 UNK        -0.2414 
     61 C61        17.7942  -31.8184  -42.1461 C.3       10 UNK         0.0169 
     62 H62        23.6285  -31.4227  -46.6753 H         1 UNK         0.0903 
     63 H63        22.9908  -30.5429  -48.0650 H         1 UNK         0.0903 
     64 H64        23.7148  -29.6617  -46.7156 H         1 UNK         0.0903 
     65 H65        22.0010  -28.5145  -45.7921 H         1 UNK         0.3096 
     66 H66        19.6330  -30.0046  -44.8177 H         1 UNK         0.1121 
     67 H67        19.6979  -27.4342  -46.4721 H         1 UNK         0.0849 
     68 H68        18.5059  -27.5590  -45.2195 H         1 UNK         0.0849 
     69 H69        16.0574  -28.0175  -46.4053 H         1 UNK         0.0865 
     70 H70        15.7698  -29.7227  -46.6383 H         1 UNK         0.0865 
     71 H71        17.4853  -31.1270  -44.7978 H         1 UNK         0.1346 
     72 H72        16.5042  -29.8095  -40.8305 H         1 UNK         0.1412 
     73 H73        15.4415  -27.4105  -44.2173 H         1 UNK         0.1426 
     74 H74        14.3793  -28.0232  -41.0053 H         1 UNK         0.0716 
     75 H75        14.7260  -26.7041  -42.0892 H         1 UNK         0.0716 
     76 H76        16.8527  -24.5511  -40.9699 H         1 UNK         0.0695 
     77 H77        17.1203  -25.7018  -42.2606 H         1 UNK         0.0695 
     78 H78        18.8263  -25.5120  -39.7226 H         1 UNK         0.0983 
     79 H79        18.6920  -27.5489  -41.6661 H         1 UNK         0.3095 
     80 H80        21.9223  -28.8694  -41.3116 H         1 UNK         0.0454 
     81 H81        20.6553  -29.6248  -39.2484 H         1 UNK         0.0851 
     82 H82        20.6894  -30.8621  -40.4874 H         1 UNK         0.0851 
     83 H83        19.2374  -29.8953  -40.2415 H         1 UNK         0.0851 
     84 H84        20.1558  -30.1224  -42.7610 H         1 UNK         0.2976 
     85 H85        20.4484  -25.6809  -42.7637 H         1 UNK         0.3116 
     86 H86        21.3540  -22.8398  -42.4488 H         1 UNK         0.0646 
     87 H87        21.1440  -24.5045  -45.0168 H         1 UNK         0.0847 
     88 H88        21.8433  -22.8950  -44.8918 H         1 UNK         0.0847 
     89 H89        20.1287  -23.1280  -44.5912 H         1 UNK         0.0847 
     90 H90        22.2568  -26.2245  -43.2443 H         1 UNK         0.3040 
     91 H91        25.0036  -25.6692  -43.6680 H         1 UNK         0.1015 
     92 H92        23.8265  -27.5829  -44.7024 H         1 UNK         0.0786 
     93 H93        23.5826  -28.3327  -43.1243 H         1 UNK         0.0786 
     94 H94        25.2030  -28.1564  -43.7782 H         1 UNK         0.0786 
     95 H95        23.3082  -26.7287  -40.7398 H         1 UNK         0.3172 
     96 H96        23.9036  -27.3887  -38.7021 H         1 UNK         0.0595 
     97 H97        25.9956  -25.1831  -39.0315 H         1 UNK         0.0839 
     98 H98        25.4437  -25.8490  -37.5006 H         1 UNK         0.0839 
     99 H99        24.3211  -24.9697  -38.5258 H         1 UNK         0.0839 
    100 H100       26.4028  -29.9966  -39.4704 H         1 UNK         0.2998 
    101 H101       23.7618  -29.2266  -40.3606 H         1 UNK         0.0822 
    102 H102       23.3277  -29.5256  -37.9213 H         1 UNK         0.0787 
    103 H103       22.6920  -30.9187  -38.7772 H         1 UNK         0.0787 
    104 H104       24.2188  -31.0440  -37.9242 H         1 UNK         0.0787 
    105 H105       22.7211  -30.9197  -41.5394 H         1 UNK         0.3055 
    106 H106       23.8175  -33.5017  -41.9580 H         1 UNK         0.1106 
    107 H107       24.2860  -33.1440  -44.4390 H         1 UNK         0.0828 
    108 H108       24.1277  -31.4075  -44.2022 H         1 UNK         0.0828 
    109 H109       25.4432  -32.2909  -43.4327 H         1 UNK         0.0828 
    110 H110       22.2441  -34.7294  -43.3472 H         1 UNK         0.2931 
    111 H111       20.0207  -33.4021  -44.4639 H         1 UNK         0.0412 
    112 H112       18.2548  -35.2291  -45.1293 H         1 UNK         0.3472 
    113 H113       19.0263  -36.6293  -45.8357 H         1 UNK         0.3472 
    114 H114       18.9232  -35.2508  -42.3378 H         1 UNK         0.0970 
    115 H115       19.5681  -33.7708  -41.7272 H         1 UNK         0.0970 
    116 H116       18.8466  -31.5593  -42.0611 H         1 UNK         0.0612 
    117 H117       17.4388  -32.0130  -41.1331 H         1 UNK         0.0612 
@<TRIPOS>BOND
     1    1    2 1    
     2    1   62 1    
     3    1   63 1    
     4    1   64 1    
     5    2    3 2    
     6    2    4 am   BACKBONE|DICT|INTERRES
     7    4    5 1    
     8    4   65 1    
     9    5    6 1    
    10    5   25 1    
    11    5   66 1    
    12    6    7 1    
    13    6   67 1    
    14    6   68 1    
    15    7    8 1    
    16    8    9 1    
    17    8   69 1    
    18    8   70 1    
    19    9   10 ar   
    20    9   14 ar   
    21   10   11 ar   
    22   10   71 1    
    23   11   12 ar   
    24   11   61 1    
    25   12   13 ar   
    26   12   72 1    
    27   13   14 ar   
    28   13   15 1    
    29   14   73 1    
    30   15   16 1    
    31   15   74 1    
    32   15   75 1    
    33   16   17 1    
    34   17   18 1    
    35   17   76 1    
    36   17   77 1    
    37   18   19 1    
    38   18   27 1    
    39   18   78 1    
    40   19   20 am   BACKBONE|DICT|INTERRES
    41   19   79 1    
    42   20   21 2    
    43   20   22 1    
    44   22   23 1    
    45   22   24 1    
    46   22   80 1    
    47   23   81 1    
    48   23   82 1    
    49   23   83 1    
    50   24   25 am   BACKBONE|DICT|INTERRES
    51   24   84 1    
    52   25   26 2    
    53   27   28 2    
    54   27   29 am   BACKBONE|DICT|INTERRES
    55   29   30 1    
    56   29   85 1    
    57   30   31 1    
    58   30   32 1    
    59   30   86 1    
    60   31   87 1    
    61   31   88 1    
    62   31   89 1    
    63   32   33 2    
    64   32   34 am   BACKBONE|DICT|INTERRES
    65   34   35 1    
    66   34   90 1    
    67   35   36 1    
    68   35   37 1    
    69   35   91 1    
    70   36   92 1    
    71   36   93 1    
    72   36   94 1    
    73   37   38 2    
    74   37   39 am   BACKBONE|DICT|INTERRES
    75   39   40 1    
    76   39   95 1    
    77   40   41 1    
    78   40   42 1    
    79   40   96 1    
    80   41   97 1    
    81   41   98 1    
    82   41   99 1    
    83   42   43 2    
    84   42   44 am   BACKBONE|DICT|INTERRES
    85   44   45 1    
    86   44  100 1    
    87   45   46 1    
    88   45   47 1    
    89   45  101 1    
    90   46  102 1    
    91   46  103 1    
    92   46  104 1    
    93   47   48 2    
    94   47   49 am   BACKBONE|DICT|INTERRES
    95   49   50 1    
    96   49  105 1    
    97   50   51 1    
    98   50   52 1    
    99   50  106 1    
   100   51  107 1    
   101   51  108 1    
   102   51  109 1    
   103   52   53 2    
   104   52   54 am   BACKBONE|DICT|INTERRES
   105   54   55 1    
   106   54  110 1    
   107   55   56 1    
   108   55   59 1    
   109   55  111 1    
   110   56   57 am   BACKBONE|DICT|INTERRES
   111   56   58 2    
   112   57  112 1    
   113   57  113 1    
   114   59   60 1    
   115   59  114 1    
   116   59  115 1    
   117   60   61 1    
   118   61  116 1    
   119   61  117 1    
@<TRIPOS>SUBSTRUCTURE
     1 UNK         1 GROUP             0       ****    0 ROOT    
