@<TRIPOS>MOLECULE
3R8
117   119    1
SMALL
USER_CHARGES


@<TRIPOS>ATOM
      1 CA         15.3098  -27.3069  -39.8034 C.3       0 UNK        -0.2013 
      2 C          15.3633  -27.0633  -41.3040 C.2       0 UNK         0.4866 
      3 O          14.3407  -26.7333  -41.9055 O.2       0 UNK        -0.5176 
      4 N          16.5449  -27.2177  -41.9084 N.am      1 UNK        -0.4884 
      5 CA         16.8079  -26.9729  -43.3267 C.3       1 UNK         0.0853 
      6 C6         16.7667  -28.2918  -44.1384 C.3       10 UNK        -0.0849 
      7 S7         16.4111  -28.0107  -45.9063 S.3       10 UNK        -0.2776 
      8 C8         16.2170  -29.7189  -46.5094 C.3       10 UNK         0.0316 
      9 C9         17.4861  -30.5333  -46.3075 C.ar      10 UNK        -0.0863 
     10 C10        17.5273  -31.5520  -45.3507 C.ar      10 UNK        -0.1009 
     11 C11        18.7034  -32.2774  -45.1391 C.ar      10 UNK        -0.0712 
     12 C12        19.8421  -31.9786  -45.8922 C.ar      10 UNK        -0.0894 
     13 C13        19.8144  -30.9554  -46.8442 C.ar      10 UNK        -0.0745 
     14 C14        18.6285  -30.2485  -47.0606 C.ar      10 UNK        -0.0972 
     15 C15        21.0761  -30.5886  -47.6114 C.3       10 UNK         0.0209 
     16 S16        21.6807  -28.9249  -47.1761 S.3       10 UNK        -0.2568 
     17 C17        21.9994  -29.0958  -45.3862 C.3       10 UNK        -0.0983 
     18 CA         22.1463  -27.7253  -44.6813 C.3       3 UNK         0.0876 
     19 N          20.9624  -26.8818  -44.8692 N.am      3 UNK        -0.4424 
     20 C          20.9461  -25.5466  -44.7748 C.2       2 UNK         0.4918 
     21 O          21.9411  -24.8684  -44.5186 O.2       2 UNK        -0.4875 
     22 CA         19.5873  -24.8473  -44.9736 C.3       2 UNK         0.0481 
     23 CB         19.4618  -24.3380  -46.4181 C.3       2 UNK        -0.1831 
     24 N          18.4109  -25.6664  -44.6494 N.am      2 UNK        -0.4498 
     25 C          18.1539  -26.2356  -43.4632 C.2       1 UNK         0.5027 
     26 O          18.9393  -26.2025  -42.5134 O.2       1 UNK        -0.4969 
     27 C          22.5327  -27.9149  -43.1969 C.2       3 UNK         0.5005 
     28 O          23.5563  -28.5516  -42.9407 O.2       3 UNK        -0.5279 
     29 N          21.7528  -27.3745  -42.2418 N.am      4 UNK        -0.4463 
     30 CA         21.9527  -27.4852  -40.7867 C.3       4 UNK         0.0283 
     31 CB         20.9118  -26.6289  -40.0496 C.3       4 UNK        -0.1875 
     32 C          23.3582  -27.1252  -40.2715 C.2       4 UNK         0.4949 
     33 O          23.7747  -27.6638  -39.2474 O.2       4 UNK        -0.5039 
     34 N          24.0737  -26.2564  -40.9968 N.am      5 UNK        -0.4663 
     35 CA         25.4624  -25.8802  -40.7233 C.3       5 UNK         0.0242 
     36 CB         25.8412  -24.6959  -41.6278 C.3       5 UNK        -0.1982 
     37 C          26.4787  -27.0288  -40.8903 C.2       5 UNK         0.5017 
     38 O          27.5727  -26.9269  -40.3332 O.2       5 UNK        -0.5012 
     39 N          26.1231  -28.0769  -41.6486 N.am      6 UNK        -0.4439 
     40 CA         26.9824  -29.2300  -41.9294 C.3       6 UNK         0.0297 
     41 CB         27.4512  -29.1719  -43.3933 C.3       6 UNK        -0.2006 
     42 C          26.2828  -30.5659  -41.6399 C.2       6 UNK         0.4892 
     43 O          26.8973  -31.4448  -41.0347 O.2       6 UNK        -0.5089 
     44 N          25.0290  -30.7110  -42.0877 N.am      7 UNK        -0.4243 
     45 CA         24.2573  -31.9538  -42.0080 C.3       7 UNK         0.0196 
     46 CB         23.3125  -32.0219  -43.2197 C.3       7 UNK        -0.2007 
     47 C          23.4580  -32.0939  -40.7019 C.2       7 UNK         0.5020 
     48 O          23.0254  -33.2026  -40.3891 O.2       7 UNK        -0.5147 
     49 N          23.2544  -30.9800  -39.9802 N.am      8 UNK        -0.4734 
     50 CA         22.4765  -30.8527  -38.7351 C.3       8 UNK         0.0238 
     51 CB         23.1232  -31.6686  -37.5949 C.3       8 UNK        -0.1912 
     52 C          20.9670  -31.1463  -38.8896 C.2       8 UNK         0.5038 
     53 O          20.2982  -31.4116  -37.8894 O.2       8 UNK        -0.5046 
     54 N          20.4560  -31.0879  -40.1264 N.am      9 UNK        -0.4200 
     55 CA         19.0476  -31.3056  -40.4819 C.3       9 UNK         0.0839 
     56 C          18.1354  -30.1757  -39.9403 C.2       9 UNK         0.5513 
     57 N          17.1229  -30.5114  -39.1533 N.am      9 UNK        -0.7519 
     58 O          18.3144  -29.0065  -40.2701 O.2       9 UNK        -0.4960 
     59 C59        18.8713  -31.4592  -42.0130 C.3       10 UNK        -0.0876 
     60 S60        19.7845  -32.8968  -42.6653 S.3       10 UNK        -0.2414 
     61 C61        18.7526  -33.3740  -44.0858 C.3       10 UNK         0.0169 
     62 H62        14.7737  -28.2317  -39.5931 H         1 UNK         0.0903 
     63 H63        16.3067  -27.3785  -39.3691 H         1 UNK         0.0903 
     64 H64        14.7873  -26.4890  -39.3079 H         1 UNK         0.0903 
     65 H65        17.3637  -27.4832  -41.3665 H         1 UNK         0.3096 
     66 H66        16.0426  -26.2927  -43.7084 H         1 UNK         0.1121 
     67 H67        15.9773  -28.9398  -43.7533 H         1 UNK         0.0849 
     68 H68        17.6957  -28.8548  -44.0268 H         1 UNK         0.0849 
     69 H69        15.3682  -30.1850  -46.0062 H         1 UNK         0.0865 
     70 H70        15.9676  -29.6959  -47.5712 H         1 UNK         0.0865 
     71 H71        16.6477  -31.7721  -44.7613 H         1 UNK         0.1346 
     72 H72        20.7570  -32.5273  -45.7137 H         1 UNK         0.1412 
     73 H73        18.6060  -29.4495  -47.7894 H         1 UNK         0.1426 
     74 H74        21.8704  -31.3141  -47.4281 H         1 UNK         0.0716 
     75 H75        20.8683  -30.6223  -48.6817 H         1 UNK         0.0716 
     76 H76        21.1944  -29.6656  -44.9202 H         1 UNK         0.0695 
     77 H77        22.9068  -29.6920  -45.2723 H         1 UNK         0.0695 
     78 H78        22.9939  -27.2135  -45.1426 H         1 UNK         0.0983 
     79 H79        20.1055  -27.3593  -45.1062 H         1 UNK         0.3095 
     80 H80        19.5711  -23.9834  -44.3062 H         1 UNK         0.0454 
     81 H81        19.4355  -25.1599  -47.1348 H         1 UNK         0.0851 
     82 H82        18.5586  -23.7431  -46.5541 H         1 UNK         0.0851 
     83 H83        20.3075  -23.7018  -46.6837 H         1 UNK         0.0851 
     84 H84        17.7296  -25.7847  -45.3875 H         1 UNK         0.2976 
     85 H85        20.9139  -26.8807  -42.5299 H         1 UNK         0.3116 
     86 H86        21.7728  -28.5278  -40.5268 H         1 UNK         0.0646 
     87 H87        20.9653  -25.5816  -40.3489 H         1 UNK         0.0847 
     88 H88        19.8995  -26.9790  -40.2404 H         1 UNK         0.0847 
     89 H89        21.0588  -26.6695  -38.9693 H         1 UNK         0.0847 
     90 H90        23.6475  -25.8636  -41.8242 H         1 UNK         0.3040 
     91 H91        25.5202  -25.5514  -39.6832 H         1 UNK         0.1015 
     92 H92        25.7826  -24.9606  -42.6844 H         1 UNK         0.0786 
     93 H93        26.8618  -24.3640  -41.4311 H         1 UNK         0.0786 
     94 H94        25.1869  -23.8405  -41.4579 H         1 UNK         0.0786 
     95 H95        25.1934  -28.0849  -42.0599 H         1 UNK         0.3172 
     96 H96        27.8705  -29.2020  -41.2946 H         1 UNK         0.0595 
     97 H97        28.0820  -30.0280  -43.6371 H         1 UNK         0.0839 
     98 H98        28.0381  -28.2733  -43.5839 H         1 UNK         0.0839 
     99 H99        26.6107  -29.1756  -44.0887 H         1 UNK         0.0839 
    100 H100       24.5682  -29.9282  -42.5500 H         1 UNK         0.2998 
    101 H101       24.9404  -32.8042  -42.0664 H         1 UNK         0.0822 
    102 H102       22.7848  -32.9761  -43.2471 H         1 UNK         0.0787 
    103 H103       22.5591  -31.2340  -43.1912 H         1 UNK         0.0787 
    104 H104       23.8597  -31.9305  -44.1580 H         1 UNK         0.0787 
    105 H105       23.6803  -30.1272  -40.3169 H         1 UNK         0.3055 
    106 H106       22.5340  -29.8037  -38.4439 H         1 UNK         0.1106 
    107 H107       24.1828  -31.4351  -37.4919 H         1 UNK         0.0828 
    108 H108       22.6511  -31.4465  -36.6371 H         1 UNK         0.0828 
    109 H109       23.0295  -32.7424  -37.7591 H         1 UNK         0.0828 
    110 H110       21.0787  -30.8839  -40.8916 H         1 UNK         0.2931 
    111 H111       18.7414  -32.2458  -40.0179 H         1 UNK         0.0412 
    112 H112       16.5181  -29.7911  -38.7947 H         1 UNK         0.3472 
    113 H113       16.9754  -31.4707  -38.8799 H         1 UNK         0.3472 
    114 H114       17.8140  -31.5788  -42.2572 H         1 UNK         0.0970 
    115 H115       19.2066  -30.5627  -42.5387 H         1 UNK         0.0970 
    116 H116       19.1629  -34.2817  -44.5304 H         1 UNK         0.0612 
    117 H117       17.7510  -33.6285  -43.7357 H         1 UNK         0.0612 
@<TRIPOS>BOND
     1    1    2 1    
     2    1   62 1    
     3    1   63 1    
     4    1   64 1    
     5    2    3 2    
     6    2    4 am   BACKBONE|DICT|INTERRES
     7    4    5 1    
     8    4   65 1    
     9    5    6 1    
    10    5   25 1    
    11    5   66 1    
    12    6    7 1    
    13    6   67 1    
    14    6   68 1    
    15    7    8 1    
    16    8    9 1    
    17    8   69 1    
    18    8   70 1    
    19    9   10 ar   
    20    9   14 ar   
    21   10   11 ar   
    22   10   71 1    
    23   11   12 ar   
    24   11   61 1    
    25   12   13 ar   
    26   12   72 1    
    27   13   14 ar   
    28   13   15 1    
    29   14   73 1    
    30   15   16 1    
    31   15   74 1    
    32   15   75 1    
    33   16   17 1    
    34   17   18 1    
    35   17   76 1    
    36   17   77 1    
    37   18   19 1    
    38   18   27 1    
    39   18   78 1    
    40   19   20 am   BACKBONE|DICT|INTERRES
    41   19   79 1    
    42   20   21 2    
    43   20   22 1    
    44   22   23 1    
    45   22   24 1    
    46   22   80 1    
    47   23   81 1    
    48   23   82 1    
    49   23   83 1    
    50   24   25 am   BACKBONE|DICT|INTERRES
    51   24   84 1    
    52   25   26 2    
    53   27   28 2    
    54   27   29 am   BACKBONE|DICT|INTERRES
    55   29   30 1    
    56   29   85 1    
    57   30   31 1    
    58   30   32 1    
    59   30   86 1    
    60   31   87 1    
    61   31   88 1    
    62   31   89 1    
    63   32   33 2    
    64   32   34 am   BACKBONE|DICT|INTERRES
    65   34   35 1    
    66   34   90 1    
    67   35   36 1    
    68   35   37 1    
    69   35   91 1    
    70   36   92 1    
    71   36   93 1    
    72   36   94 1    
    73   37   38 2    
    74   37   39 am   BACKBONE|DICT|INTERRES
    75   39   40 1    
    76   39   95 1    
    77   40   41 1    
    78   40   42 1    
    79   40   96 1    
    80   41   97 1    
    81   41   98 1    
    82   41   99 1    
    83   42   43 2    
    84   42   44 am   BACKBONE|DICT|INTERRES
    85   44   45 1    
    86   44  100 1    
    87   45   46 1    
    88   45   47 1    
    89   45  101 1    
    90   46  102 1    
    91   46  103 1    
    92   46  104 1    
    93   47   48 2    
    94   47   49 am   BACKBONE|DICT|INTERRES
    95   49   50 1    
    96   49  105 1    
    97   50   51 1    
    98   50   52 1    
    99   50  106 1    
   100   51  107 1    
   101   51  108 1    
   102   51  109 1    
   103   52   53 2    
   104   52   54 am   BACKBONE|DICT|INTERRES
   105   54   55 1    
   106   54  110 1    
   107   55   56 1    
   108   55   59 1    
   109   55  111 1    
   110   56   57 am   BACKBONE|DICT|INTERRES
   111   56   58 2    
   112   57  112 1    
   113   57  113 1    
   114   59   60 1    
   115   59  114 1    
   116   59  115 1    
   117   60   61 1    
   118   61  116 1    
   119   61  117 1    
@<TRIPOS>SUBSTRUCTURE
     1 UNK         1 GROUP             0       ****    0 ROOT    
