@<TRIPOS>MOLECULE
3R8
117   119    1
SMALL
USER_CHARGES


@<TRIPOS>ATOM
      1 CA         20.3165  -23.4684  -45.1036 C.3       0 UNK        -0.2013 
      2 C          18.7938  -23.5895  -45.0912 C.2       0 UNK         0.4866 
      3 O          18.1156  -22.6085  -44.7920 O.2       0 UNK        -0.5176 
      4 N          18.2052  -24.7490  -45.4181 N.am      1 UNK        -0.4884 
      5 CA         18.8484  -26.0327  -45.7303 C.3       1 UNK         0.0853 
      6 C6         17.9100  -26.9622  -46.5469 C.3       10 UNK        -0.0849 
      7 S7         16.2450  -27.1840  -45.8339 S.3       10 UNK        -0.2776 
      8 C8         15.9877  -28.9798  -46.0247 C.3       10 UNK         0.0316 
      9 C9         16.4995  -29.7812  -44.8343 C.ar      10 UNK        -0.0863 
     10 C10        17.3640  -30.8669  -45.0163 C.ar      10 UNK        -0.1009 
     11 C11        17.7530  -31.6589  -43.9281 C.ar      10 UNK        -0.0712 
     12 C12        17.2786  -31.3452  -42.6499 C.ar      10 UNK        -0.0894 
     13 C13        16.4347  -30.2499  -42.4544 C.ar      10 UNK        -0.0745 
     14 C14        16.0426  -29.4793  -43.5492 C.ar      10 UNK        -0.0972 
     15 C15        15.9225  -29.9009  -41.0684 C.3       10 UNK         0.0209 
     16 S16        16.8485  -28.5069  -40.3604 S.3       10 UNK        -0.2568 
     17 C17        18.4003  -29.3202  -39.8443 C.3       10 UNK        -0.0983 
     18 CA         19.6926  -28.6089  -40.3141 C.3       3 UNK         0.0876 
     19 N          19.8925  -28.6647  -41.7722 N.am      3 UNK        -0.4424 
     20 C          21.0624  -28.3830  -42.3657 C.2       2 UNK         0.4918 
     21 O          22.0619  -28.0208  -41.7456 O.2       2 UNK        -0.4875 
     22 CA         21.1726  -28.5009  -43.8952 C.3       2 UNK         0.0481 
     23 CB         21.2915  -29.9707  -44.3213 C.3       2 UNK        -0.1831 
     24 N          20.1709  -27.8271  -44.7314 N.am      2 UNK        -0.4498 
     25 C          19.4663  -26.7120  -44.4852 C.2       1 UNK         0.5027 
     26 O          19.3449  -26.1941  -43.3732 O.2       1 UNK        -0.4969 
     27 C          19.8328  -27.1946  -39.7031 C.2       3 UNK         0.5005 
     28 O          20.1444  -27.0869  -38.5158 O.2       3 UNK        -0.5279 
     29 N          19.6356  -26.1421  -40.5112 N.am      4 UNK        -0.4463 
     30 CA         19.8765  -24.7480  -40.1276 C.3       4 UNK         0.0283 
     31 CB         19.0061  -23.8286  -41.0002 C.3       4 UNK        -0.1875 
     32 C          21.3619  -24.3509  -40.2366 C.2       4 UNK         0.4949 
     33 O          21.7247  -23.2675  -39.7769 O.2       4 UNK        -0.5039 
     34 N          22.1850  -25.2124  -40.8471 N.am      5 UNK        -0.4663 
     35 CA         23.6219  -25.0478  -41.0303 C.3       5 UNK         0.0242 
     36 CB         23.9286  -25.0701  -42.5435 C.3       5 UNK        -0.1982 
     37 C          24.3494  -26.1332  -40.2153 C.2       5 UNK         0.5017 
     38 O          24.1516  -26.2088  -39.0018 O.2       5 UNK        -0.5012 
     39 N          25.1877  -26.9402  -40.8785 N.am      6 UNK        -0.4439 
     40 CA         26.0513  -27.9553  -40.2671 C.3       6 UNK         0.0297 
     41 CB         27.2458  -28.2031  -41.2059 C.3       6 UNK        -0.2006 
     42 C          25.3523  -29.2885  -39.9331 C.2       6 UNK         0.4892 
     43 O          25.9984  -30.1509  -39.3368 O.2       6 UNK        -0.5089 
     44 N          24.0863  -29.4618  -40.3472 N.am      7 UNK        -0.4243 
     45 CA         23.2919  -30.6991  -40.2743 C.3       7 UNK         0.0196 
     46 CB         23.0323  -31.1257  -38.8142 C.3       7 UNK        -0.2007 
     47 C          23.8591  -31.8328  -41.1506 C.2       7 UNK         0.5020 
     48 O          23.6571  -33.0104  -40.8506 O.2       7 UNK        -0.5147 
     49 N          24.5358  -31.4609  -42.2459 N.am      8 UNK        -0.4734 
     50 CA         25.1671  -32.3605  -43.2153 C.3       8 UNK         0.0238 
     51 CB         26.3187  -31.6059  -43.9068 C.3       8 UNK        -0.1912 
     52 C          24.1520  -32.9468  -44.2176 C.2       8 UNK         0.5038 
     53 O          24.3426  -32.8311  -45.4299 O.2       8 UNK        -0.5046 
     54 N          23.0792  -33.5456  -43.6905 N.am      9 UNK        -0.4200 
     55 CA         22.0331  -34.2424  -44.4492 C.3       9 UNK         0.0839 
     56 C          22.5600  -35.5394  -45.1210 C.2       9 UNK         0.5513 
     57 N          22.0470  -35.8808  -46.2949 N.am      9 UNK        -0.7519 
     58 O          23.3923  -36.2575  -44.5699 O.2       9 UNK        -0.4960 
     59 C59        20.8037  -34.5494  -43.5576 C.3       10 UNK        -0.0876 
     60 S60        19.9955  -33.0318  -42.9488 S.3       10 UNK        -0.2414 
     61 C61        18.6301  -32.8873  -44.1503 C.3       10 UNK         0.0169 
     62 H62        20.6149  -22.4330  -44.9395 H         1 UNK         0.0903 
     63 H63        20.7643  -24.0666  -44.3110 H         1 UNK         0.0903 
     64 H64        20.7321  -23.7782  -46.0615 H         1 UNK         0.0903 
     65 H65        17.1971  -24.8012  -45.3714 H         1 UNK         0.3096 
     66 H66        19.6951  -25.8152  -46.3839 H         1 UNK         0.1121 
     67 H67        17.7699  -26.5324  -47.5402 H         1 UNK         0.0849 
     68 H68        18.3705  -27.9348  -46.7266 H         1 UNK         0.0849 
     69 H69        14.9167  -29.1637  -46.1211 H         1 UNK         0.0865 
     70 H70        16.4348  -29.3234  -46.9588 H         1 UNK         0.0865 
     71 H71        17.7064  -31.1181  -46.0110 H         1 UNK         0.1346 
     72 H72        17.5618  -31.9610  -41.8074 H         1 UNK         0.1412 
     73 H73        15.3712  -28.6442  -43.4004 H         1 UNK         0.1426 
     74 H74        14.8678  -29.6283  -41.1287 H         1 UNK         0.0716 
     75 H75        15.9763  -30.7615  -40.3996 H         1 UNK         0.0716 
     76 H76        18.3894  -29.3896  -38.7549 H         1 UNK         0.0695 
     77 H77        18.4129  -30.3525  -40.1940 H         1 UNK         0.0695 
     78 H78        20.5168  -29.1780  -39.8794 H         1 UNK         0.0983 
     79 H79        19.0909  -28.9129  -42.3354 H         1 UNK         0.3095 
     80 H80        22.1195  -28.0241  -44.1552 H         1 UNK         0.0454 
     81 H81        20.3233  -30.4664  -44.2904 H         1 UNK         0.0851 
     82 H82        21.6793  -30.0634  -45.3357 H         1 UNK         0.0851 
     83 H83        21.9666  -30.5269  -43.6694 H         1 UNK         0.0851 
     84 H84        20.1501  -28.1637  -45.6827 H         1 UNK         0.2976 
     85 H85        19.4040  -26.3064  -41.4898 H         1 UNK         0.3116 
     86 H86        19.5744  -24.6092  -39.0875 H         1 UNK         0.0646 
     87 H87        19.0952  -22.7892  -40.6817 H         1 UNK         0.0847 
     88 H88        17.9519  -24.0981  -40.9360 H         1 UNK         0.0847 
     89 H89        19.2996  -23.8711  -42.0490 H         1 UNK         0.0847 
     90 H90        21.8155  -26.1123  -41.1331 H         1 UNK         0.3040 
     91 H91        23.9522  -24.0865  -40.6309 H         1 UNK         0.1015 
     92 H92        23.3943  -24.2703  -43.0570 H         1 UNK         0.0786 
     93 H93        23.6309  -26.0099  -43.0108 H         1 UNK         0.0786 
     94 H94        24.9903  -24.9128  -42.7387 H         1 UNK         0.0786 
     95 H95        25.2718  -26.8161  -41.8771 H         1 UNK         0.3172 
     96 H96        26.4400  -27.5564  -39.3276 H         1 UNK         0.0595 
     97 H97        27.9489  -28.9139  -40.7691 H         1 UNK         0.0839 
     98 H98        27.8001  -27.2837  -41.3959 H         1 UNK         0.0839 
     99 H99        26.9289  -28.6103  -42.1668 H         1 UNK         0.0839 
    100 H100       23.6234  -28.6890  -40.8180 H         1 UNK         0.2998 
    101 H101       22.3223  -30.4684  -40.7123 H         1 UNK         0.0822 
    102 H102       22.6232  -30.3026  -38.2283 H         1 UNK         0.0787 
    103 H103       22.3122  -31.9437  -38.7694 H         1 UNK         0.0787 
    104 H104       23.9422  -31.4700  -38.3222 H         1 UNK         0.0787 
    105 H105       24.6251  -30.4725  -42.4292 H         1 UNK         0.3055 
    106 H106       25.6015  -33.2062  -42.6768 H         1 UNK         0.1106 
    107 H107       26.8524  -32.2570  -44.6005 H         1 UNK         0.0828 
    108 H108       25.9570  -30.7490  -44.4764 H         1 UNK         0.0828 
    109 H109       27.0483  -31.2444  -43.1817 H         1 UNK         0.0828 
    110 H110       23.0144  -33.5921  -42.6797 H         1 UNK         0.2931 
    111 H111       21.7109  -33.5661  -45.2442 H         1 UNK         0.0412 
    112 H112       22.3639  -36.7281  -46.7407 H         1 UNK         0.3472 
    113 H113       21.3585  -35.3031  -46.7522 H         1 UNK         0.3472 
    114 H114       21.0986  -35.1516  -42.6962 H         1 UNK         0.0970 
    115 H115       20.0696  -35.1481  -44.1007 H         1 UNK         0.0970 
    116 H116       18.0021  -33.7768  -44.0868 H         1 UNK         0.0612 
    117 H117       19.0556  -32.8733  -45.1551 H         1 UNK         0.0612 
@<TRIPOS>BOND
     1    1    2 1    
     2    1   62 1    
     3    1   63 1    
     4    1   64 1    
     5    2    3 2    
     6    2    4 am   BACKBONE|DICT|INTERRES
     7    4    5 1    
     8    4   65 1    
     9    5    6 1    
    10    5   25 1    
    11    5   66 1    
    12    6    7 1    
    13    6   67 1    
    14    6   68 1    
    15    7    8 1    
    16    8    9 1    
    17    8   69 1    
    18    8   70 1    
    19    9   10 ar   
    20    9   14 ar   
    21   10   11 ar   
    22   10   71 1    
    23   11   12 ar   
    24   11   61 1    
    25   12   13 ar   
    26   12   72 1    
    27   13   14 ar   
    28   13   15 1    
    29   14   73 1    
    30   15   16 1    
    31   15   74 1    
    32   15   75 1    
    33   16   17 1    
    34   17   18 1    
    35   17   76 1    
    36   17   77 1    
    37   18   19 1    
    38   18   27 1    
    39   18   78 1    
    40   19   20 am   BACKBONE|DICT|INTERRES
    41   19   79 1    
    42   20   21 2    
    43   20   22 1    
    44   22   23 1    
    45   22   24 1    
    46   22   80 1    
    47   23   81 1    
    48   23   82 1    
    49   23   83 1    
    50   24   25 am   BACKBONE|DICT|INTERRES
    51   24   84 1    
    52   25   26 2    
    53   27   28 2    
    54   27   29 am   BACKBONE|DICT|INTERRES
    55   29   30 1    
    56   29   85 1    
    57   30   31 1    
    58   30   32 1    
    59   30   86 1    
    60   31   87 1    
    61   31   88 1    
    62   31   89 1    
    63   32   33 2    
    64   32   34 am   BACKBONE|DICT|INTERRES
    65   34   35 1    
    66   34   90 1    
    67   35   36 1    
    68   35   37 1    
    69   35   91 1    
    70   36   92 1    
    71   36   93 1    
    72   36   94 1    
    73   37   38 2    
    74   37   39 am   BACKBONE|DICT|INTERRES
    75   39   40 1    
    76   39   95 1    
    77   40   41 1    
    78   40   42 1    
    79   40   96 1    
    80   41   97 1    
    81   41   98 1    
    82   41   99 1    
    83   42   43 2    
    84   42   44 am   BACKBONE|DICT|INTERRES
    85   44   45 1    
    86   44  100 1    
    87   45   46 1    
    88   45   47 1    
    89   45  101 1    
    90   46  102 1    
    91   46  103 1    
    92   46  104 1    
    93   47   48 2    
    94   47   49 am   BACKBONE|DICT|INTERRES
    95   49   50 1    
    96   49  105 1    
    97   50   51 1    
    98   50   52 1    
    99   50  106 1    
   100   51  107 1    
   101   51  108 1    
   102   51  109 1    
   103   52   53 2    
   104   52   54 am   BACKBONE|DICT|INTERRES
   105   54   55 1    
   106   54  110 1    
   107   55   56 1    
   108   55   59 1    
   109   55  111 1    
   110   56   57 am   BACKBONE|DICT|INTERRES
   111   56   58 2    
   112   57  112 1    
   113   57  113 1    
   114   59   60 1    
   115   59  114 1    
   116   59  115 1    
   117   60   61 1    
   118   61  116 1    
   119   61  117 1    
@<TRIPOS>SUBSTRUCTURE
     1 UNK         1 GROUP             0       ****    0 ROOT    
