@<TRIPOS>MOLECULE
3R8
117   119    1
SMALL
USER_CHARGES


@<TRIPOS>ATOM
      1 CA         12.7146  -24.2624  -45.0177 C.3       0 UNK        -0.2013 
      2 C          13.7801  -24.3062  -46.1030 C.2       0 UNK         0.4866 
      3 O          13.8560  -23.3906  -46.9235 O.2       0 UNK        -0.5176 
      4 N          14.5969  -25.3672  -46.1182 N.am      1 UNK        -0.4884 
      5 CA         15.7288  -25.5408  -47.0363 C.3       1 UNK         0.0853 
      6 C6         16.0108  -27.0573  -47.2916 C.3       10 UNK        -0.0849 
      7 S7         17.3315  -27.8555  -46.3075 S.3       10 UNK        -0.2776 
      8 C8         16.4285  -28.5077  -44.8731 C.3       10 UNK         0.0316 
      9 C9         17.3942  -28.7305  -43.7202 C.ar      10 UNK        -0.0863 
     10 C10        18.2055  -29.8694  -43.6890 C.ar      10 UNK        -0.1009 
     11 C11        19.1399  -30.0488  -42.6642 C.ar      10 UNK        -0.0712 
     12 C12        19.2496  -29.0817  -41.6615 C.ar      10 UNK        -0.0894 
     13 C13        18.4397  -27.9429  -41.6780 C.ar      10 UNK        -0.0745 
     14 C14        17.5082  -27.7747  -42.7063 C.ar      10 UNK        -0.0972 
     15 C15        18.5938  -26.8850  -40.5965 C.3       10 UNK         0.0209 
     16 S16        20.1497  -25.9598  -40.7876 S.3       10 UNK        -0.2568 
     17 C17        19.8297  -24.9725  -42.2933 C.3       10 UNK        -0.0983 
     18 CA         20.2759  -25.6325  -43.6260 C.3       3 UNK         0.0876 
     19 N          19.8837  -24.7977  -44.7633 N.am      3 UNK        -0.4424 
     20 C          20.0072  -25.1157  -46.0578 C.2       2 UNK         0.4918 
     21 O          20.5536  -26.1373  -46.4777 O.2       2 UNK        -0.4875 
     22 CA         19.3257  -24.1555  -47.0516 C.3       2 UNK         0.0481 
     23 CB         20.1591  -23.9713  -48.3318 C.3       2 UNK        -0.1831 
     24 N          17.9995  -24.6681  -47.4058 N.am      2 UNK        -0.4498 
     25 C          16.9536  -24.7152  -46.5671 C.2       1 UNK         0.5027 
     26 O          16.9523  -24.1732  -45.4568 O.2       1 UNK        -0.4969 
     27 C          21.7763  -25.9935  -43.6372 C.2       3 UNK         0.5005 
     28 O          22.6202  -25.1297  -43.8915 O.2       3 UNK        -0.5279 
     29 N          22.0643  -27.2616  -43.3239 N.am      4 UNK        -0.4463 
     30 CA         23.4016  -27.8295  -43.1931 C.3       4 UNK         0.0283 
     31 CB         23.8845  -28.3615  -44.5563 C.3       4 UNK        -0.1875 
     32 C          23.3716  -28.9063  -42.1005 C.2       4 UNK         0.4949 
     33 O          23.7864  -30.0414  -42.3358 O.2       4 UNK        -0.5039 
     34 N          22.8546  -28.5428  -40.9166 N.am      5 UNK        -0.4663 
     35 CA         22.6986  -29.4378  -39.7621 C.3       5 UNK         0.0242 
     36 CB         22.0155  -28.6905  -38.6065 C.3       5 UNK        -0.1982 
     37 C          24.0128  -30.0796  -39.2920 C.2       5 UNK         0.5017 
     38 O          24.0217  -31.2670  -38.9710 O.2       5 UNK        -0.5012 
     39 N          25.1084  -29.3106  -39.3339 N.am      6 UNK        -0.4439 
     40 CA         26.4627  -29.7672  -39.0081 C.3       6 UNK         0.0297 
     41 CB         27.4148  -28.5600  -39.0159 C.3       6 UNK        -0.2006 
     42 C          26.9991  -30.8791  -39.9326 C.2       6 UNK         0.4892 
     43 O          27.9118  -31.5989  -39.5253 O.2       6 UNK        -0.5089 
     44 N          26.4394  -31.0016  -41.1449 N.am      7 UNK        -0.4243 
     45 CA         26.8169  -32.0139  -42.1289 C.3       7 UNK         0.0196 
     46 CB         26.7188  -31.4018  -43.5370 C.3       7 UNK        -0.2007 
     47 C          25.9590  -33.2878  -42.0420 C.2       7 UNK         0.5020 
     48 O          26.3699  -34.3007  -42.6103 O.2       7 UNK        -0.5147 
     49 N          24.7954  -33.2431  -41.3733 N.am      8 UNK        -0.4734 
     50 CA         23.8556  -34.3663  -41.3282 C.3       8 UNK         0.0238 
     51 CB         23.1123  -34.5111  -42.6756 C.3       8 UNK        -0.1912 
     52 C          22.8713  -34.2676  -40.1566 C.2       8 UNK         0.5038 
     53 O          22.9398  -35.0898  -39.2424 O.2       8 UNK        -0.5046 
     54 N          21.9316  -33.3180  -40.2511 N.am      9 UNK        -0.4200 
     55 CA         20.6978  -33.2718  -39.4440 C.3       9 UNK         0.0839 
     56 C          20.8668  -32.9930  -37.9223 C.2       9 UNK         0.5513 
     57 N          22.0019  -32.4991  -37.4499 N.am      9 UNK        -0.7519 
     58 O          19.9413  -33.2376  -37.1527 O.2       9 UNK        -0.4960 
     59 C59        19.6329  -32.3262  -40.0622 C.3       10 UNK        -0.0876 
     60 S60        19.2859  -32.6888  -41.8199 S.3       10 UNK        -0.2414 
     61 C61        20.0497  -31.2693  -42.6659 C.3       10 UNK         0.0169 
     62 H62        11.7229  -24.2142  -45.4670 H         1 UNK         0.0903 
     63 H63        12.7520  -25.1400  -44.3725 H         1 UNK         0.0903 
     64 H64        12.8503  -23.3783  -44.3953 H         1 UNK         0.0903 
     65 H65        14.5104  -26.0642  -45.3937 H         1 UNK         0.3096 
     66 H66        15.4295  -25.1100  -47.9951 H         1 UNK         0.1121 
     67 H67        15.0946  -27.6447  -47.2083 H         1 UNK         0.0849 
     68 H68        16.3125  -27.1752  -48.3337 H         1 UNK         0.0849 
     69 H69        15.6431  -27.8111  -44.5780 H         1 UNK         0.0865 
     70 H70        15.9336  -29.4421  -45.1422 H         1 UNK         0.0865 
     71 H71        18.1253  -30.6057  -44.4773 H         1 UNK         0.1346 
     72 H72        19.9765  -29.1999  -40.8728 H         1 UNK         0.1412 
     73 H73        16.8930  -26.8853  -42.7339 H         1 UNK         0.1426 
     74 H74        18.5889  -27.3686  -39.6186 H         1 UNK         0.0716 
     75 H75        17.7513  -26.1916  -40.5986 H         1 UNK         0.0716 
     76 H76        18.7636  -24.7424  -42.3328 H         1 UNK         0.0695 
     77 H77        20.3344  -24.0127  -42.1685 H         1 UNK         0.0695 
     78 H78        19.7188  -26.5616  -43.7508 H         1 UNK         0.0983 
     79 H79        19.3819  -23.9520  -44.5343 H         1 UNK         0.3095 
     80 H80        19.2127  -23.1762  -46.5814 H         1 UNK         0.0454 
     81 H81        20.2802  -24.9073  -48.8786 H         1 UNK         0.0851 
     82 H82        19.6982  -23.2478  -49.0044 H         1 UNK         0.0851 
     83 H83        21.1577  -23.6021  -48.0947 H         1 UNK         0.0851 
     84 H84        17.9379  -25.1700  -48.2799 H         1 UNK         0.2976 
     85 H85        21.3029  -27.8904  -43.1036 H         1 UNK         0.3116 
     86 H86        24.0961  -27.0575  -42.8554 H         1 UNK         0.0646 
     87 H87        24.8940  -28.7675  -44.4824 H         1 UNK         0.0847 
     88 H88        23.9084  -27.5700  -45.3054 H         1 UNK         0.0847 
     89 H89        23.2377  -29.1563  -44.9297 H         1 UNK         0.0847 
     90 H90        22.5286  -27.5920  -40.8044 H         1 UNK         0.3040 
     91 H91        22.0477  -30.2557  -40.0709 H         1 UNK         0.1015 
     92 H92        21.0293  -28.3250  -38.8908 H         1 UNK         0.0786 
     93 H93        22.6046  -27.8352  -38.2732 H         1 UNK         0.0786 
     94 H94        21.8773  -29.3468  -37.7457 H         1 UNK         0.0786 
     95 H95        25.0050  -28.3503  -39.6288 H         1 UNK         0.3172 
     96 H96        26.4370  -30.1750  -37.9954 H         1 UNK         0.0595 
     97 H97        27.1027  -27.8013  -38.2980 H         1 UNK         0.0839 
     98 H98        27.4672  -28.0929  -40.0002 H         1 UNK         0.0839 
     99 H99        28.4281  -28.8603  -38.7447 H         1 UNK         0.0839 
    100 H100       25.6605  -30.4040  -41.3963 H         1 UNK         0.2998 
    101 H101       27.8559  -32.3101  -41.9679 H         1 UNK         0.0822 
    102 H102       27.3240  -30.4992  -43.6226 H         1 UNK         0.0787 
    103 H103       27.0762  -32.1037  -44.2917 H         1 UNK         0.0787 
    104 H104       25.6916  -31.1449  -43.7968 H         1 UNK         0.0787 
    105 H105       24.5433  -32.4083  -40.8569 H         1 UNK         0.3055 
    106 H106       24.4270  -35.2832  -41.1636 H         1 UNK         0.1106 
    107 H107       22.6404  -33.5780  -42.9854 H         1 UNK         0.0828 
    108 H108       23.7898  -34.8170  -43.4727 H         1 UNK         0.0828 
    109 H109       22.3308  -35.2701  -42.6153 H         1 UNK         0.0828 
    110 H110       21.9618  -32.6961  -41.0431 H         1 UNK         0.2931 
    111 H111       20.2800  -34.2794  -39.4976 H         1 UNK         0.0412 
    112 H112       22.0936  -32.3384  -36.4600 H         1 UNK         0.3472 
    113 H113       22.7691  -32.2605  -38.0729 H         1 UNK         0.3472 
    114 H114       19.9311  -31.2862  -39.9427 H         1 UNK         0.0970 
    115 H115       18.6885  -32.4223  -39.5229 H         1 UNK         0.0970 
    116 H116       21.0121  -31.0345  -42.2103 H         1 UNK         0.0612 
    117 H117       20.2693  -31.5577  -43.6950 H         1 UNK         0.0612 
@<TRIPOS>BOND
     1    1    2 1    
     2    1   62 1    
     3    1   63 1    
     4    1   64 1    
     5    2    3 2    
     6    2    4 am   BACKBONE|DICT|INTERRES
     7    4    5 1    
     8    4   65 1    
     9    5    6 1    
    10    5   25 1    
    11    5   66 1    
    12    6    7 1    
    13    6   67 1    
    14    6   68 1    
    15    7    8 1    
    16    8    9 1    
    17    8   69 1    
    18    8   70 1    
    19    9   10 ar   
    20    9   14 ar   
    21   10   11 ar   
    22   10   71 1    
    23   11   12 ar   
    24   11   61 1    
    25   12   13 ar   
    26   12   72 1    
    27   13   14 ar   
    28   13   15 1    
    29   14   73 1    
    30   15   16 1    
    31   15   74 1    
    32   15   75 1    
    33   16   17 1    
    34   17   18 1    
    35   17   76 1    
    36   17   77 1    
    37   18   19 1    
    38   18   27 1    
    39   18   78 1    
    40   19   20 am   BACKBONE|DICT|INTERRES
    41   19   79 1    
    42   20   21 2    
    43   20   22 1    
    44   22   23 1    
    45   22   24 1    
    46   22   80 1    
    47   23   81 1    
    48   23   82 1    
    49   23   83 1    
    50   24   25 am   BACKBONE|DICT|INTERRES
    51   24   84 1    
    52   25   26 2    
    53   27   28 2    
    54   27   29 am   BACKBONE|DICT|INTERRES
    55   29   30 1    
    56   29   85 1    
    57   30   31 1    
    58   30   32 1    
    59   30   86 1    
    60   31   87 1    
    61   31   88 1    
    62   31   89 1    
    63   32   33 2    
    64   32   34 am   BACKBONE|DICT|INTERRES
    65   34   35 1    
    66   34   90 1    
    67   35   36 1    
    68   35   37 1    
    69   35   91 1    
    70   36   92 1    
    71   36   93 1    
    72   36   94 1    
    73   37   38 2    
    74   37   39 am   BACKBONE|DICT|INTERRES
    75   39   40 1    
    76   39   95 1    
    77   40   41 1    
    78   40   42 1    
    79   40   96 1    
    80   41   97 1    
    81   41   98 1    
    82   41   99 1    
    83   42   43 2    
    84   42   44 am   BACKBONE|DICT|INTERRES
    85   44   45 1    
    86   44  100 1    
    87   45   46 1    
    88   45   47 1    
    89   45  101 1    
    90   46  102 1    
    91   46  103 1    
    92   46  104 1    
    93   47   48 2    
    94   47   49 am   BACKBONE|DICT|INTERRES
    95   49   50 1    
    96   49  105 1    
    97   50   51 1    
    98   50   52 1    
    99   50  106 1    
   100   51  107 1    
   101   51  108 1    
   102   51  109 1    
   103   52   53 2    
   104   52   54 am   BACKBONE|DICT|INTERRES
   105   54   55 1    
   106   54  110 1    
   107   55   56 1    
   108   55   59 1    
   109   55  111 1    
   110   56   57 am   BACKBONE|DICT|INTERRES
   111   56   58 2    
   112   57  112 1    
   113   57  113 1    
   114   59   60 1    
   115   59  114 1    
   116   59  115 1    
   117   60   61 1    
   118   61  116 1    
   119   61  117 1    
@<TRIPOS>SUBSTRUCTURE
     1 UNK         1 GROUP             0       ****    0 ROOT    
