@<TRIPOS>MOLECULE
3R8
117   119    1
SMALL
USER_CHARGES


@<TRIPOS>ATOM
      1 CA         17.7181  -22.5110  -43.1349 C.3       0 UNK        -0.2013 
      2 C          16.9933  -23.7034  -42.5141 C.2       0 UNK         0.4866 
      3 O          16.3449  -23.5390  -41.4824 O.2       0 UNK        -0.5176 
      4 N          17.0481  -24.9100  -43.0966 N.am      1 UNK        -0.4884 
      5 CA         17.8185  -25.3060  -44.2829 C.3       1 UNK         0.0853 
      6 C6         17.4714  -26.7530  -44.7130 C.3       10 UNK        -0.0849 
      7 S7         15.7962  -26.8943  -45.4230 S.3       10 UNK        -0.2776 
      8 C8         15.2005  -28.4890  -44.7498 C.3       10 UNK         0.0316 
      9 C9         16.2054  -29.6367  -44.8554 C.ar      10 UNK        -0.0863 
     10 C10        16.3833  -30.4946  -43.7634 C.ar      10 UNK        -0.1009 
     11 C11        17.3358  -31.5164  -43.8090 C.ar      10 UNK        -0.0712 
     12 C12        18.1001  -31.6943  -44.9627 C.ar      10 UNK        -0.0894 
     13 C13        17.9644  -30.8189  -46.0431 C.ar      10 UNK        -0.0745 
     14 C14        16.9874  -29.8201  -46.0038 C.ar      10 UNK        -0.0972 
     15 C15        18.9748  -30.8716  -47.1808 C.3       10 UNK         0.0209 
     16 S16        20.3192  -29.6441  -46.9558 S.3       10 UNK        -0.2568 
     17 C17        20.7089  -29.8013  -45.1741 C.3       10 UNK        -0.0983 
     18 CA         21.7427  -28.7917  -44.6193 C.3       3 UNK         0.0876 
     19 N          21.4583  -27.4213  -45.0511 N.am      3 UNK        -0.4424 
     20 C          22.1676  -26.3296  -44.7326 C.2       2 UNK         0.4918 
     21 O          23.2162  -26.3531  -44.0907 O.2       2 UNK        -0.4875 
     22 CA         21.5624  -24.9755  -45.1472 C.3       2 UNK         0.0481 
     23 CB         22.0709  -24.5635  -46.5369 C.3       2 UNK        -0.1831 
     24 N          20.0933  -24.9738  -45.1365 N.am      2 UNK        -0.4498 
     25 C          19.3396  -25.2010  -44.0498 C.2       1 UNK         0.5027 
     26 O          19.8074  -25.3941  -42.9249 O.2       1 UNK        -0.4969 
     27 C          21.7655  -28.9066  -43.0795 C.2       3 UNK         0.5005 
     28 O          22.6881  -29.4979  -42.5211 O.2       3 UNK        -0.5279 
     29 N          20.7499  -28.3217  -42.4261 N.am      4 UNK        -0.4463 
     30 CA         20.5859  -28.3117  -40.9731 C.3       4 UNK         0.0283 
     31 CB         19.1475  -27.9078  -40.6123 C.3       4 UNK        -0.1875 
     32 C          21.6075  -27.3977  -40.2849 C.2       4 UNK         0.4949 
     33 O          22.1194  -27.7638  -39.2282 O.2       4 UNK        -0.5039 
     34 N          21.9335  -26.2600  -40.9166 N.am      5 UNK        -0.4663 
     35 CA         23.0021  -25.3516  -40.4844 C.3       5 UNK         0.0242 
     36 CB         22.9605  -24.0663  -41.3255 C.3       5 UNK        -0.1982 
     37 C          24.3968  -26.0045  -40.5424 C.2       5 UNK         0.5017 
     38 O          25.2100  -25.7777  -39.6466 O.2       5 UNK        -0.5012 
     39 N          24.6269  -26.8365  -41.5679 N.am      6 UNK        -0.4439 
     40 CA         25.8168  -27.6776  -41.7293 C.3       6 UNK         0.0297 
     41 CB         25.9484  -28.0659  -43.2120 C.3       6 UNK        -0.2006 
     42 C          25.8123  -28.9413  -40.8428 C.2       6 UNK         0.4892 
     43 O          26.8319  -29.6304  -40.7943 O.2       6 UNK        -0.5089 
     44 N          24.6816  -29.2312  -40.1795 N.am      7 UNK        -0.4243 
     45 CA         24.3986  -30.4052  -39.3443 C.3       7 UNK         0.0196 
     46 CB         25.3006  -30.4276  -38.0920 C.3       7 UNK        -0.2007 
     47 C          24.4178  -31.7339  -40.1274 C.2       7 UNK         0.5020 
     48 O          24.7627  -32.7751  -39.5661 O.2       7 UNK        -0.5147 
     49 N          24.0209  -31.6895  -41.4065 N.am      8 UNK        -0.4734 
     50 CA         23.9559  -32.8485  -42.3026 C.3       8 UNK         0.0238 
     51 CB         23.9538  -32.3573  -43.7596 C.3       8 UNK        -0.1912 
     52 C          22.7424  -33.7578  -42.0371 C.2       8 UNK         0.5038 
     53 O          22.7447  -34.9027  -42.4914 O.2       8 UNK        -0.5046 
     54 N          21.7360  -33.2428  -41.3177 N.am      9 UNK        -0.4200 
     55 CA         20.5141  -33.9654  -40.9254 C.3       9 UNK         0.0839 
     56 C          20.7329  -35.0849  -39.8650 C.2       9 UNK         0.5513 
     57 N          21.8803  -35.1620  -39.2002 N.am      9 UNK        -0.7519 
     58 O          19.8412  -35.9000  -39.6439 O.2       9 UNK        -0.4960 
     59 C59        19.3853  -33.0008  -40.4703 C.3       10 UNK        -0.0876 
     60 S60        19.0393  -31.6824  -41.6803 S.3       10 UNK        -0.2414 
     61 C61        17.6195  -32.3704  -42.5854 C.3       10 UNK         0.0169 
     62 H62        18.7769  -22.5321  -42.8781 H         1 UNK         0.0903 
     63 H63        17.6168  -22.4901  -44.2189 H         1 UNK         0.0903 
     64 H64        17.3035  -21.5779  -42.7539 H         1 UNK         0.0903 
     65 H65        16.5435  -25.6645  -42.6552 H         1 UNK         0.3096 
     66 H66        17.5542  -24.6314  -45.0996 H         1 UNK         0.1121 
     67 H67        17.5767  -27.4353  -43.8667 H         1 UNK         0.0849 
     68 H68        18.1599  -27.1161  -45.4791 H         1 UNK         0.0849 
     69 H69        14.2876  -28.7731  -45.2745 H         1 UNK         0.0865 
     70 H70        14.9169  -28.3284  -43.7084 H         1 UNK         0.0865 
     71 H71        15.8073  -30.3460  -42.8601 H         1 UNK         0.1346 
     72 H72        18.8712  -32.4525  -44.9777 H         1 UNK         0.1412 
     73 H73        16.8890  -29.1399  -46.8387 H         1 UNK         0.1426 
     74 H74        18.4747  -30.6863  -48.1325 H         1 UNK         0.0716 
     75 H75        19.4130  -31.8682  -47.2533 H         1 UNK         0.0716 
     76 H76        21.0313  -30.8258  -44.9798 H         1 UNK         0.0695 
     77 H77        19.7754  -29.6626  -44.6285 H         1 UNK         0.0695 
     78 H78        22.7335  -29.0582  -44.9930 H         1 UNK         0.0983 
     79 H79        20.6405  -27.3093  -45.6306 H         1 UNK         0.3095 
     80 H80        21.8986  -24.2275  -44.4269 H         1 UNK         0.0454 
     81 H81        21.7474  -25.2599  -47.3116 H         1 UNK         0.0851 
     82 H82        23.1614  -24.5359  -46.5595 H         1 UNK         0.0851 
     83 H83        21.7194  -23.5684  -46.8101 H         1 UNK         0.0851 
     84 H84        19.6398  -24.8241  -46.0272 H         1 UNK         0.2976 
     85 H85        20.0673  -27.8025  -42.9575 H         1 UNK         0.3116 
     86 H86        20.7527  -29.3277  -40.6088 H         1 UNK         0.0646 
     87 H87        18.4206  -28.5792  -41.0700 H         1 UNK         0.0847 
     88 H88        18.9145  -26.8915  -40.9309 H         1 UNK         0.0847 
     89 H89        18.9928  -27.9524  -39.5335 H         1 UNK         0.0847 
     90 H90        21.4184  -26.0092  -41.7542 H         1 UNK         0.3040 
     91 H91        22.8074  -25.0847  -39.4432 H         1 UNK         0.1015 
     92 H92        23.6873  -23.3399  -40.9594 H         1 UNK         0.0786 
     93 H93        21.9788  -23.5938  -41.2833 H         1 UNK         0.0786 
     94 H94        23.1956  -24.2592  -42.3719 H         1 UNK         0.0786 
     95 H95        23.9273  -26.8985  -42.3018 H         1 UNK         0.3172 
     96 H96        26.6946  -27.0900  -41.4530 H         1 UNK         0.0595 
     97 H97        25.1024  -28.6666  -43.5477 H         1 UNK         0.0839 
     98 H98        26.8525  -28.6507  -43.3865 H         1 UNK         0.0839 
     99 H99        26.0057  -27.1839  -43.8502 H         1 UNK         0.0839 
    100 H100       23.9014  -28.5974  -40.2980 H         1 UNK         0.2998 
    101 H101       23.3705  -30.2819  -39.0007 H         1 UNK         0.0822 
    102 H102       25.2548  -29.4804  -37.5545 H         1 UNK         0.0787 
    103 H103       24.9868  -31.2081  -37.3978 H         1 UNK         0.0787 
    104 H104       26.3433  -30.6204  -38.3460 H         1 UNK         0.0787 
    105 H105       23.6914  -30.8020  -41.7881 H         1 UNK         0.3055 
    106 H106       24.8525  -33.4530  -42.1476 H         1 UNK         0.1106 
    107 H107       23.9855  -33.1973  -44.4548 H         1 UNK         0.0828 
    108 H108       24.8202  -31.7297  -43.9692 H         1 UNK         0.0828 
    109 H109       23.0582  -31.7803  -43.9884 H         1 UNK         0.0828 
    110 H110       21.8115  -32.2864  -41.0068 H         1 UNK         0.2931 
    111 H111       20.1545  -34.4745  -41.8219 H         1 UNK         0.0412 
    112 H112       22.6229  -34.5026  -39.3771 H         1 UNK         0.3472 
    113 H113       22.0076  -35.8938  -38.5186 H         1 UNK         0.3472 
    114 H114       18.4630  -33.5510  -40.2730 H         1 UNK         0.0970 
    115 H115       19.6559  -32.5230  -39.5269 H         1 UNK         0.0970 
    116 H116       16.7489  -32.4106  -41.9289 H         1 UNK         0.0612 
    117 H117       17.8374  -33.3958  -42.8883 H         1 UNK         0.0612 
@<TRIPOS>BOND
     1    1    2 1    
     2    1   62 1    
     3    1   63 1    
     4    1   64 1    
     5    2    3 2    
     6    2    4 am   BACKBONE|DICT|INTERRES
     7    4    5 1    
     8    4   65 1    
     9    5    6 1    
    10    5   25 1    
    11    5   66 1    
    12    6    7 1    
    13    6   67 1    
    14    6   68 1    
    15    7    8 1    
    16    8    9 1    
    17    8   69 1    
    18    8   70 1    
    19    9   10 ar   
    20    9   14 ar   
    21   10   11 ar   
    22   10   71 1    
    23   11   12 ar   
    24   11   61 1    
    25   12   13 ar   
    26   12   72 1    
    27   13   14 ar   
    28   13   15 1    
    29   14   73 1    
    30   15   16 1    
    31   15   74 1    
    32   15   75 1    
    33   16   17 1    
    34   17   18 1    
    35   17   76 1    
    36   17   77 1    
    37   18   19 1    
    38   18   27 1    
    39   18   78 1    
    40   19   20 am   BACKBONE|DICT|INTERRES
    41   19   79 1    
    42   20   21 2    
    43   20   22 1    
    44   22   23 1    
    45   22   24 1    
    46   22   80 1    
    47   23   81 1    
    48   23   82 1    
    49   23   83 1    
    50   24   25 am   BACKBONE|DICT|INTERRES
    51   24   84 1    
    52   25   26 2    
    53   27   28 2    
    54   27   29 am   BACKBONE|DICT|INTERRES
    55   29   30 1    
    56   29   85 1    
    57   30   31 1    
    58   30   32 1    
    59   30   86 1    
    60   31   87 1    
    61   31   88 1    
    62   31   89 1    
    63   32   33 2    
    64   32   34 am   BACKBONE|DICT|INTERRES
    65   34   35 1    
    66   34   90 1    
    67   35   36 1    
    68   35   37 1    
    69   35   91 1    
    70   36   92 1    
    71   36   93 1    
    72   36   94 1    
    73   37   38 2    
    74   37   39 am   BACKBONE|DICT|INTERRES
    75   39   40 1    
    76   39   95 1    
    77   40   41 1    
    78   40   42 1    
    79   40   96 1    
    80   41   97 1    
    81   41   98 1    
    82   41   99 1    
    83   42   43 2    
    84   42   44 am   BACKBONE|DICT|INTERRES
    85   44   45 1    
    86   44  100 1    
    87   45   46 1    
    88   45   47 1    
    89   45  101 1    
    90   46  102 1    
    91   46  103 1    
    92   46  104 1    
    93   47   48 2    
    94   47   49 am   BACKBONE|DICT|INTERRES
    95   49   50 1    
    96   49  105 1    
    97   50   51 1    
    98   50   52 1    
    99   50  106 1    
   100   51  107 1    
   101   51  108 1    
   102   51  109 1    
   103   52   53 2    
   104   52   54 am   BACKBONE|DICT|INTERRES
   105   54   55 1    
   106   54  110 1    
   107   55   56 1    
   108   55   59 1    
   109   55  111 1    
   110   56   57 am   BACKBONE|DICT|INTERRES
   111   56   58 2    
   112   57  112 1    
   113   57  113 1    
   114   59   60 1    
   115   59  114 1    
   116   59  115 1    
   117   60   61 1    
   118   61  116 1    
   119   61  117 1    
@<TRIPOS>SUBSTRUCTURE
     1 UNK         1 GROUP             0       ****    0 ROOT    
