@<TRIPOS>MOLECULE
3R8
117   119    1
SMALL
USER_CHARGES


@<TRIPOS>ATOM
      1 CA         18.3457  -23.4219  -48.9664 C.3       0 UNK        -0.2013 
      2 C          18.9411  -24.7787  -48.6200 C.2       0 UNK         0.4866 
      3 O          19.0570  -25.6362  -49.4958 O.2       0 UNK        -0.5176 
      4 N          19.3214  -24.9768  -47.3529 N.am      1 UNK        -0.4884 
      5 CA         19.9592  -26.1981  -46.8496 C.3       1 UNK         0.0853 
      6 C6         18.9768  -27.3950  -46.7135 C.3       10 UNK        -0.0849 
      7 S7         19.8128  -29.0022  -46.9320 S.3       10 UNK        -0.2776 
      8 C8         18.4165  -30.1673  -46.8202 C.3       10 UNK         0.0316 
      9 C9         17.9499  -30.3622  -45.3841 C.ar      10 UNK        -0.0863 
     10 C10        18.5075  -31.3682  -44.5880 C.ar      10 UNK        -0.1009 
     11 C11        18.0818  -31.5472  -43.2676 C.ar      10 UNK        -0.0712 
     12 C12        17.0951  -30.7077  -42.7419 C.ar      10 UNK        -0.0894 
     13 C13        16.5282  -29.7028  -43.5308 C.ar      10 UNK        -0.0745 
     14 C14        16.9499  -29.5437  -44.8532 C.ar      10 UNK        -0.0972 
     15 C15        15.4570  -28.7851  -42.9658 C.3       10 UNK         0.0209 
     16 S16        16.1276  -27.1353  -42.5942 S.3       10 UNK        -0.2568 
     17 C17        17.0762  -27.4462  -41.0648 C.3       10 UNK        -0.0983 
     18 CA         18.6155  -27.4621  -41.2628 C.3       3 UNK         0.0876 
     19 N          19.0704  -26.2940  -42.0330 N.am      3 UNK        -0.4424 
     20 C          20.3281  -25.9562  -42.3499 C.2       2 UNK         0.4918 
     21 O          21.3291  -26.5514  -41.9511 O.2       2 UNK        -0.4875 
     22 CA         20.4542  -24.7459  -43.2911 C.3       2 UNK         0.0481 
     23 CB         21.8462  -24.0801  -43.2525 C.3       2 UNK        -0.1831 
     24 N          20.0431  -25.1027  -44.6558 N.am      2 UNK        -0.4498 
     25 C          20.6863  -25.9035  -45.5256 C.2       1 UNK         0.5027 
     26 O          21.8064  -26.3770  -45.3406 O.2       1 UNK        -0.4969 
     27 C          19.2940  -27.6315  -39.8843 C.2       3 UNK         0.5005 
     28 O          19.3912  -28.7559  -39.3895 O.2       3 UNK        -0.5279 
     29 N          19.7365  -26.5196  -39.2789 N.am      4 UNK        -0.4463 
     30 CA         20.4479  -26.4557  -38.0018 C.3       4 UNK         0.0283 
     31 CB         20.3964  -25.0089  -37.4769 C.3       4 UNK        -0.1875 
     32 C          21.8906  -26.9838  -38.1229 C.2       4 UNK         0.4949 
     33 O          22.8423  -26.2032  -38.0772 O.2       4 UNK        -0.5039 
     34 N          22.0166  -28.3042  -38.3062 N.am      5 UNK        -0.4663 
     35 CA         23.2309  -29.1314  -38.3838 C.3       5 UNK         0.0242 
     36 CB         24.0531  -29.0372  -37.0841 C.3       5 UNK        -0.1982 
     37 C          24.1272  -28.8961  -39.6136 C.2       5 UNK         0.5017 
     38 O          24.7278  -29.8579  -40.0933 O.2       5 UNK        -0.5012 
     39 N          24.1972  -27.6568  -40.1175 N.am      6 UNK        -0.4439 
     40 CA         25.0032  -27.2315  -41.2701 C.3       6 UNK         0.0297 
     41 CB         24.8608  -25.7131  -41.4516 C.3       6 UNK        -0.2006 
     42 C          24.6865  -27.9777  -42.5813 C.2       6 UNK         0.4892 
     43 O          25.5840  -28.1568  -43.4051 O.2       6 UNK        -0.5089 
     44 N          23.4392  -28.4439  -42.7202 N.am      7 UNK        -0.4243 
     45 CA         22.9585  -29.3370  -43.7766 C.3       7 UNK         0.0196 
     46 CB         21.4290  -29.4377  -43.6658 C.3       7 UNK        -0.2007 
     47 C          23.5839  -30.7486  -43.7665 C.2       7 UNK         0.5020 
     48 O          23.4140  -31.4718  -44.7486 O.2       7 UNK        -0.5147 
     49 N          24.2783  -31.1224  -42.6783 N.am      8 UNK        -0.4734 
     50 CA         24.9175  -32.4205  -42.4256 C.3       8 UNK         0.0238 
     51 CB         26.0493  -32.6970  -43.4392 C.3       8 UNK        -0.1912 
     52 C          23.8870  -33.5603  -42.3309 C.2       8 UNK         0.5038 
     53 O          24.0262  -34.5859  -43.0006 O.2       8 UNK        -0.5046 
     54 N          22.8604  -33.3397  -41.4998 N.am      9 UNK        -0.4200 
     55 CA         21.7331  -34.2589  -41.2704 C.3       9 UNK         0.0839 
     56 C          22.0975  -35.5922  -40.5533 C.2       9 UNK         0.5513 
     57 N          23.2615  -35.7174  -39.9270 N.am      9 UNK        -0.7519 
     58 O          21.3047  -36.5303  -40.5670 O.2       9 UNK        -0.4960 
     59 C59        20.5589  -33.5570  -40.5371 C.3       10 UNK        -0.0876 
     60 S60        20.0138  -32.0213  -41.3562 S.3       10 UNK        -0.2414 
     61 C61        18.6773  -32.6532  -42.4108 C.3       10 UNK         0.0169 
     62 H62        18.2930  -22.7640  -48.0991 H         1 UNK         0.0903 
     63 H63        18.9502  -22.9305  -49.7283 H         1 UNK         0.0903 
     64 H64        17.3368  -23.5449  -49.3594 H         1 UNK         0.0903 
     65 H65        19.2699  -24.2081  -46.6990 H         1 UNK         0.3096 
     66 H66        20.7340  -26.4626  -47.5739 H         1 UNK         0.1121 
     67 H67        18.4580  -27.3735  -45.7538 H         1 UNK         0.0849 
     68 H68        18.1969  -27.3374  -47.4739 H         1 UNK         0.0849 
     69 H69        17.5936  -29.8204  -47.4471 H         1 UNK         0.0865 
     70 H70        18.7278  -31.1261  -47.2377 H         1 UNK         0.0865 
     71 H71        19.2787  -32.0085  -44.9944 H         1 UNK         0.1346 
     72 H72        16.7721  -30.8381  -41.7180 H         1 UNK         0.1412 
     73 H73        16.5068  -28.7688  -45.4638 H         1 UNK         0.1426 
     74 H74        15.0017  -29.2127  -42.0711 H         1 UNK         0.0716 
     75 H75        14.6522  -28.6804  -43.6950 H         1 UNK         0.0716 
     76 H76        16.7423  -28.3852  -40.6191 H         1 UNK         0.0695 
     77 H77        16.7941  -26.6647  -40.3560 H         1 UNK         0.0695 
     78 H78        18.8767  -28.3436  -41.8528 H         1 UNK         0.0983 
     79 H79        18.3196  -25.7452  -42.4268 H         1 UNK         0.3095 
     80 H80        19.7396  -23.9981  -42.9435 H         1 UNK         0.0454 
     81 H81        22.0777  -23.7316  -42.2455 H         1 UNK         0.0851 
     82 H82        21.8897  -23.2145  -43.9129 H         1 UNK         0.0851 
     83 H83        22.6422  -24.7640  -43.5459 H         1 UNK         0.0851 
     84 H84        19.1093  -24.8078  -44.9031 H         1 UNK         0.2976 
     85 H85        19.6349  -25.6482  -39.7779 H         1 UNK         0.3116 
     86 H86        19.9254  -27.0889  -37.2815 H         1 UNK         0.0646 
     87 H87        19.3692  -24.6774  -37.3242 H         1 UNK         0.0847 
     88 H88        20.8768  -24.3102  -38.1631 H         1 UNK         0.0847 
     89 H89        20.9076  -24.9247  -36.5169 H         1 UNK         0.0847 
     90 H90        21.1446  -28.8066  -38.4551 H         1 UNK         0.3040 
     91 H91        22.8728  -30.1591  -38.4675 H         1 UNK         0.1015 
     92 H92        24.8956  -29.7300  -37.1058 H         1 UNK         0.0786 
     93 H93        23.4488  -29.2906  -36.2130 H         1 UNK         0.0786 
     94 H94        24.4616  -28.0378  -36.9305 H         1 UNK         0.0786 
     95 H95        23.6881  -26.9345  -39.6147 H         1 UNK         0.3172 
     96 H96        26.0461  -27.4458  -41.0283 H         1 UNK         0.0595 
     97 H97        25.4020  -25.3668  -42.3332 H         1 UNK         0.0839 
     98 H98        25.2597  -25.1730  -40.5928 H         1 UNK         0.0839 
     99 H99        23.8174  -25.4241  -41.5700 H         1 UNK         0.0839 
    100 H100       22.7475  -28.1302  -42.0494 H         1 UNK         0.2998 
    101 H101       23.2046  -28.8830  -44.7386 H         1 UNK         0.0822 
    102 H102       21.0319  -30.1809  -44.3568 H         1 UNK         0.0787 
    103 H103       20.9479  -28.4922  -43.9092 H         1 UNK         0.0787 
    104 H104       21.1150  -29.7188  -42.6619 H         1 UNK         0.0787 
    105 H105       24.3578  -30.4573  -41.9135 H         1 UNK         0.3055 
    106 H106       25.3791  -32.3460  -41.4393 H         1 UNK         0.1106 
    107 H107       26.7662  -31.8764  -43.4656 H         1 UNK         0.0828 
    108 H108       26.5993  -33.5996  -43.1703 H         1 UNK         0.0828 
    109 H109       25.6676  -32.8417  -44.4502 H         1 UNK         0.0828 
    110 H110       22.8156  -32.4581  -41.0113 H         1 UNK         0.2931 
    111 H111       21.3681  -34.5463  -42.2585 H         1 UNK         0.0412 
    112 H112       23.9188  -34.9546  -39.9097 H         1 UNK         0.3472 
    113 H113       23.4850  -36.5873  -39.4690 H         1 UNK         0.3472 
    114 H114       20.8509  -33.3035  -39.5163 H         1 UNK         0.0970 
    115 H115       19.7042  -34.2300  -40.4432 H         1 UNK         0.0970 
    116 H116       19.0648  -33.4541  -43.0426 H         1 UNK         0.0612 
    117 H117       17.9005  -33.0970  -41.7863 H         1 UNK         0.0612 
@<TRIPOS>BOND
     1    1    2 1    
     2    1   62 1    
     3    1   63 1    
     4    1   64 1    
     5    2    3 2    
     6    2    4 am   BACKBONE|DICT|INTERRES
     7    4    5 1    
     8    4   65 1    
     9    5    6 1    
    10    5   25 1    
    11    5   66 1    
    12    6    7 1    
    13    6   67 1    
    14    6   68 1    
    15    7    8 1    
    16    8    9 1    
    17    8   69 1    
    18    8   70 1    
    19    9   10 ar   
    20    9   14 ar   
    21   10   11 ar   
    22   10   71 1    
    23   11   12 ar   
    24   11   61 1    
    25   12   13 ar   
    26   12   72 1    
    27   13   14 ar   
    28   13   15 1    
    29   14   73 1    
    30   15   16 1    
    31   15   74 1    
    32   15   75 1    
    33   16   17 1    
    34   17   18 1    
    35   17   76 1    
    36   17   77 1    
    37   18   19 1    
    38   18   27 1    
    39   18   78 1    
    40   19   20 am   BACKBONE|DICT|INTERRES
    41   19   79 1    
    42   20   21 2    
    43   20   22 1    
    44   22   23 1    
    45   22   24 1    
    46   22   80 1    
    47   23   81 1    
    48   23   82 1    
    49   23   83 1    
    50   24   25 am   BACKBONE|DICT|INTERRES
    51   24   84 1    
    52   25   26 2    
    53   27   28 2    
    54   27   29 am   BACKBONE|DICT|INTERRES
    55   29   30 1    
    56   29   85 1    
    57   30   31 1    
    58   30   32 1    
    59   30   86 1    
    60   31   87 1    
    61   31   88 1    
    62   31   89 1    
    63   32   33 2    
    64   32   34 am   BACKBONE|DICT|INTERRES
    65   34   35 1    
    66   34   90 1    
    67   35   36 1    
    68   35   37 1    
    69   35   91 1    
    70   36   92 1    
    71   36   93 1    
    72   36   94 1    
    73   37   38 2    
    74   37   39 am   BACKBONE|DICT|INTERRES
    75   39   40 1    
    76   39   95 1    
    77   40   41 1    
    78   40   42 1    
    79   40   96 1    
    80   41   97 1    
    81   41   98 1    
    82   41   99 1    
    83   42   43 2    
    84   42   44 am   BACKBONE|DICT|INTERRES
    85   44   45 1    
    86   44  100 1    
    87   45   46 1    
    88   45   47 1    
    89   45  101 1    
    90   46  102 1    
    91   46  103 1    
    92   46  104 1    
    93   47   48 2    
    94   47   49 am   BACKBONE|DICT|INTERRES
    95   49   50 1    
    96   49  105 1    
    97   50   51 1    
    98   50   52 1    
    99   50  106 1    
   100   51  107 1    
   101   51  108 1    
   102   51  109 1    
   103   52   53 2    
   104   52   54 am   BACKBONE|DICT|INTERRES
   105   54   55 1    
   106   54  110 1    
   107   55   56 1    
   108   55   59 1    
   109   55  111 1    
   110   56   57 am   BACKBONE|DICT|INTERRES
   111   56   58 2    
   112   57  112 1    
   113   57  113 1    
   114   59   60 1    
   115   59  114 1    
   116   59  115 1    
   117   60   61 1    
   118   61  116 1    
   119   61  117 1    
@<TRIPOS>SUBSTRUCTURE
     1 UNK         1 GROUP             0       ****    0 ROOT    
