@<TRIPOS>MOLECULE
3R8
117   119    1
SMALL
USER_CHARGES


@<TRIPOS>ATOM
      1 CA         18.5008  -27.9491  -49.4876 C.3       0 UNK        -0.2013 
      2 C          18.5874  -28.0860  -47.9753 C.2       0 UNK         0.4866 
      3 O          19.3760  -28.8902  -47.4755 O.2       0 UNK        -0.5176 
      4 N          17.7855  -27.3076  -47.2374 N.am      1 UNK        -0.4884 
      5 CA         17.7431  -27.3011  -45.7722 C.3       1 UNK         0.0853 
      6 C6         16.3813  -26.7970  -45.2218 C.3       10 UNK        -0.0849 
      7 S7         15.0361  -27.9887  -45.5445 S.3       10 UNK        -0.2776 
      8 C8         14.7224  -28.6845  -43.8791 C.3       10 UNK         0.0316 
      9 C9         15.9697  -29.2679  -43.2193 C.ar      10 UNK        -0.0863 
     10 C10        16.7862  -30.1643  -43.9162 C.ar      10 UNK        -0.1009 
     11 C11        17.9691  -30.6378  -43.3465 C.ar      10 UNK        -0.0712 
     12 C12        18.3098  -30.2500  -42.0487 C.ar      10 UNK        -0.0894 
     13 C13        17.4794  -29.3979  -41.3140 C.ar      10 UNK        -0.0745 
     14 C14        16.3090  -28.9091  -41.9085 C.ar      10 UNK        -0.0972 
     15 C15        17.8475  -29.0654  -39.8677 C.3       10 UNK         0.0209 
     16 S16        17.6664  -27.3089  -39.3851 S.3       10 UNK        -0.2568 
     17 C17        18.4189  -26.3770  -40.7587 C.3       10 UNK        -0.0983 
     18 CA         19.9121  -26.6983  -41.0139 C.3       3 UNK         0.0876 
     19 N          20.2241  -26.5318  -42.4279 N.am      3 UNK        -0.4424 
     20 C          21.3355  -26.9220  -43.0568 C.2       2 UNK         0.4918 
     21 O          22.2820  -27.4718  -42.4865 O.2       2 UNK        -0.4875 
     22 CA         21.3648  -26.6707  -44.5816 C.3       2 UNK         0.0481 
     23 CB         22.5722  -27.3355  -45.2649 C.3       2 UNK        -0.1831 
     24 N          20.1323  -27.1247  -45.2415 N.am      2 UNK        -0.4498 
     25 C          18.9361  -26.5212  -45.1879 C.2       1 UNK         0.5027 
     26 O          18.7588  -25.4204  -44.6618 O.2       1 UNK        -0.4969 
     27 C          20.8618  -25.8376  -40.1619 C.2       3 UNK         0.5005 
     28 O          21.1155  -24.6847  -40.5208 O.2       3 UNK        -0.5279 
     29 N          21.4183  -26.4284  -39.0949 N.am      4 UNK        -0.4463 
     30 CA         22.4739  -25.9082  -38.2092 C.3       4 UNK         0.0283 
     31 CB         22.0313  -24.6200  -37.4881 C.3       4 UNK        -0.1875 
     32 C          23.8501  -25.7210  -38.8832 C.2       4 UNK         0.4949 
     33 O          24.8639  -26.0084  -38.2477 O.2       4 UNK        -0.5039 
     34 N          23.8701  -25.2565  -40.1402 N.am      5 UNK        -0.4663 
     35 CA         25.0621  -25.0554  -40.9683 C.3       5 UNK         0.0242 
     36 CB         24.6676  -24.3335  -42.2681 C.3       5 UNK        -0.1982 
     37 C          25.7989  -26.3705  -41.2676 C.2       5 UNK         0.5017 
     38 O          26.9979  -26.4665  -41.0031 O.2       5 UNK        -0.5012 
     39 N          25.0566  -27.3579  -41.7829 N.am      6 UNK        -0.4439 
     40 CA         25.5029  -28.7424  -41.9444 C.3       6 UNK         0.0297 
     41 CB         25.2132  -29.2235  -43.3751 C.3       6 UNK        -0.2006 
     42 C          24.7954  -29.6470  -40.9271 C.2       6 UNK         0.4892 
     43 O          25.4305  -30.5558  -40.3913 O.2       6 UNK        -0.5089 
     44 N          23.5000  -29.3835  -40.6844 N.am      7 UNK        -0.4243 
     45 CA         22.5689  -30.0709  -39.7775 C.3       7 UNK         0.0196 
     46 CB         23.0591  -30.0373  -38.3171 C.3       7 UNK        -0.2007 
     47 C          22.2024  -31.4979  -40.2198 C.2       7 UNK         0.5020 
     48 O          21.0183  -31.8303  -40.2453 O.2       7 UNK        -0.5147 
     49 N          23.2029  -32.3049  -40.5860 N.am      8 UNK        -0.4734 
     50 CA         23.0292  -33.5896  -41.2587 C.3       8 UNK         0.0238 
     51 CB         24.2960  -34.4396  -41.0683 C.3       8 UNK        -0.1912 
     52 C          22.7521  -33.3433  -42.7492 C.2       8 UNK         0.5038 
     53 O          23.5227  -32.6280  -43.3949 O.2       8 UNK        -0.5046 
     54 N          21.6613  -33.9222  -43.2596 N.am      9 UNK        -0.4200 
     55 CA         21.2386  -33.8004  -44.6614 C.3       9 UNK         0.0839 
     56 C          22.1295  -34.6313  -45.6236 C.2       9 UNK         0.5513 
     57 N          22.2808  -34.1889  -46.8644 N.am      9 UNK        -0.7519 
     58 O          22.6469  -35.6895  -45.2708 O.2       9 UNK        -0.4960 
     59 C59        19.7388  -34.1572  -44.8468 C.3       10 UNK        -0.0876 
     60 S60        18.6083  -33.2972  -43.6966 S.3       10 UNK        -0.2414 
     61 C61        18.8874  -31.5553  -44.1361 C.3       10 UNK         0.0169 
     62 H62        19.4670  -27.6495  -49.8926 H         1 UNK         0.0903 
     63 H63        18.2249  -28.9037  -49.9346 H         1 UNK         0.0903 
     64 H64        17.7613  -27.2073  -49.7887 H         1 UNK         0.0903 
     65 H65        17.1628  -26.6571  -47.6958 H         1 UNK         0.3096 
     66 H66        17.8726  -28.3276  -45.4308 H         1 UNK         0.1121 
     67 H67        16.1172  -25.8359  -45.6663 H         1 UNK         0.0849 
     68 H68        16.4344  -26.6216  -44.1452 H         1 UNK         0.0849 
     69 H69        14.2862  -27.9034  -43.2544 H         1 UNK         0.0865 
     70 H70        13.9685  -29.4685  -43.9603 H         1 UNK         0.0865 
     71 H71        16.5195  -30.4627  -44.9212 H         1 UNK         0.1346 
     72 H72        19.2171  -30.6352  -41.6055 H         1 UNK         0.1412 
     73 H73        15.6666  -28.2431  -41.3484 H         1 UNK         0.1426 
     74 H74        18.8702  -29.3780  -39.6520 H         1 UNK         0.0716 
     75 H75        17.2138  -29.6632  -39.2115 H         1 UNK         0.0716 
     76 H76        18.2684  -25.3103  -40.5801 H         1 UNK         0.0695 
     77 H77        17.8252  -26.5953  -41.6475 H         1 UNK         0.0695 
     78 H78        20.1019  -27.7488  -40.7930 H         1 UNK         0.0983 
     79 H79        19.5406  -26.0263  -42.9813 H         1 UNK         0.3095 
     80 H80        21.4564  -25.5921  -44.7235 H         1 UNK         0.0454 
     81 H81        22.5369  -28.4215  -45.1747 H         1 UNK         0.0851 
     82 H82        23.5107  -26.9969  -44.8240 H         1 UNK         0.0851 
     83 H83        22.6103  -27.0903  -46.3263 H         1 UNK         0.0851 
     84 H84        20.1824  -28.0038  -45.7457 H         1 UNK         0.2976 
     85 H85        21.1283  -27.3720  -38.8817 H         1 UNK         0.3116 
     86 H86        22.6094  -26.6728  -37.4426 H         1 UNK         0.0646 
     87 H87        21.9081  -23.7842  -38.1772 H         1 UNK         0.0847 
     88 H88        22.7722  -24.3176  -36.7470 H         1 UNK         0.0847 
     89 H89        21.0875  -24.7633  -36.9623 H         1 UNK         0.0847 
     90 H90        22.9728  -25.0002  -40.5445 H         1 UNK         0.3040 
     91 H91        25.7481  -24.4118  -40.4131 H         1 UNK         0.1015 
     92 H92        23.9386  -24.9022  -42.8466 H         1 UNK         0.0786 
     93 H93        25.5383  -24.1737  -42.9057 H         1 UNK         0.0786 
     94 H94        24.2359  -23.3542  -42.0600 H         1 UNK         0.0786 
     95 H95        24.0756  -27.1765  -41.9753 H         1 UNK         0.3172 
     96 H96        26.5783  -28.8212  -41.7723 H         1 UNK         0.0595 
     97 H97        25.5955  -30.2338  -43.5283 H         1 UNK         0.0839 
     98 H98        25.6867  -28.5797  -44.1161 H         1 UNK         0.0839 
     99 H99        24.1441  -29.2523  -43.5850 H         1 UNK         0.0839 
    100 H100       23.0677  -28.6689  -41.2633 H         1 UNK         0.2998 
    101 H101       21.6458  -29.4924  -39.8222 H         1 UNK         0.0822 
    102 H102       22.2948  -30.4255  -37.6427 H         1 UNK         0.0787 
    103 H103       23.9538  -30.6434  -38.1719 H         1 UNK         0.0787 
    104 H104       23.2912  -29.0216  -37.9981 H         1 UNK         0.0787 
    105 H105       24.1424  -31.9159  -40.5631 H         1 UNK         0.3055 
    106 H106       22.1850  -34.1184  -40.8099 H         1 UNK         0.1106 
    107 H107       24.1930  -35.4076  -41.5604 H         1 UNK         0.0828 
    108 H108       25.1770  -33.9520  -41.4881 H         1 UNK         0.0828 
    109 H109       24.4902  -34.6306  -40.0128 H         1 UNK         0.0828 
    110 H110       21.0796  -34.4997  -42.6713 H         1 UNK         0.2931 
    111 H111       21.3661  -32.7538  -44.9439 H         1 UNK         0.0412 
    112 H112       22.8428  -34.7227  -47.5095 H         1 UNK         0.3472 
    113 H113       21.8553  -33.3265  -47.1679 H         1 UNK         0.3472 
    114 H114       19.5870  -35.2302  -44.7133 H         1 UNK         0.0970 
    115 H115       19.4196  -33.9354  -45.8669 H         1 UNK         0.0970 
    116 H116       18.7355  -31.4189  -45.2082 H         1 UNK         0.0612 
    117 H117       19.9236  -31.2850  -43.9293 H         1 UNK         0.0612 
@<TRIPOS>BOND
     1    1    2 1    
     2    1   62 1    
     3    1   63 1    
     4    1   64 1    
     5    2    3 2    
     6    2    4 am   BACKBONE|DICT|INTERRES
     7    4    5 1    
     8    4   65 1    
     9    5    6 1    
    10    5   25 1    
    11    5   66 1    
    12    6    7 1    
    13    6   67 1    
    14    6   68 1    
    15    7    8 1    
    16    8    9 1    
    17    8   69 1    
    18    8   70 1    
    19    9   10 ar   
    20    9   14 ar   
    21   10   11 ar   
    22   10   71 1    
    23   11   12 ar   
    24   11   61 1    
    25   12   13 ar   
    26   12   72 1    
    27   13   14 ar   
    28   13   15 1    
    29   14   73 1    
    30   15   16 1    
    31   15   74 1    
    32   15   75 1    
    33   16   17 1    
    34   17   18 1    
    35   17   76 1    
    36   17   77 1    
    37   18   19 1    
    38   18   27 1    
    39   18   78 1    
    40   19   20 am   BACKBONE|DICT|INTERRES
    41   19   79 1    
    42   20   21 2    
    43   20   22 1    
    44   22   23 1    
    45   22   24 1    
    46   22   80 1    
    47   23   81 1    
    48   23   82 1    
    49   23   83 1    
    50   24   25 am   BACKBONE|DICT|INTERRES
    51   24   84 1    
    52   25   26 2    
    53   27   28 2    
    54   27   29 am   BACKBONE|DICT|INTERRES
    55   29   30 1    
    56   29   85 1    
    57   30   31 1    
    58   30   32 1    
    59   30   86 1    
    60   31   87 1    
    61   31   88 1    
    62   31   89 1    
    63   32   33 2    
    64   32   34 am   BACKBONE|DICT|INTERRES
    65   34   35 1    
    66   34   90 1    
    67   35   36 1    
    68   35   37 1    
    69   35   91 1    
    70   36   92 1    
    71   36   93 1    
    72   36   94 1    
    73   37   38 2    
    74   37   39 am   BACKBONE|DICT|INTERRES
    75   39   40 1    
    76   39   95 1    
    77   40   41 1    
    78   40   42 1    
    79   40   96 1    
    80   41   97 1    
    81   41   98 1    
    82   41   99 1    
    83   42   43 2    
    84   42   44 am   BACKBONE|DICT|INTERRES
    85   44   45 1    
    86   44  100 1    
    87   45   46 1    
    88   45   47 1    
    89   45  101 1    
    90   46  102 1    
    91   46  103 1    
    92   46  104 1    
    93   47   48 2    
    94   47   49 am   BACKBONE|DICT|INTERRES
    95   49   50 1    
    96   49  105 1    
    97   50   51 1    
    98   50   52 1    
    99   50  106 1    
   100   51  107 1    
   101   51  108 1    
   102   51  109 1    
   103   52   53 2    
   104   52   54 am   BACKBONE|DICT|INTERRES
   105   54   55 1    
   106   54  110 1    
   107   55   56 1    
   108   55   59 1    
   109   55  111 1    
   110   56   57 am   BACKBONE|DICT|INTERRES
   111   56   58 2    
   112   57  112 1    
   113   57  113 1    
   114   59   60 1    
   115   59  114 1    
   116   59  115 1    
   117   60   61 1    
   118   61  116 1    
   119   61  117 1    
@<TRIPOS>SUBSTRUCTURE
     1 UNK         1 GROUP             0       ****    0 ROOT    
