@<TRIPOS>MOLECULE
3R8
117   119    1
SMALL
USER_CHARGES


@<TRIPOS>ATOM
      1 CA         15.1098  -22.7043  -45.9568 C.3       0 UNK        -0.2013 
      2 C          16.1911  -23.7688  -45.8451 C.2       0 UNK         0.4866 
      3 O          16.1785  -24.5519  -44.8942 O.2       0 UNK        -0.5176 
      4 N          17.1214  -23.8027  -46.8115 N.am      1 UNK        -0.4884 
      5 CA         18.2702  -24.7178  -46.8745 C.3       1 UNK         0.0853 
      6 C6         17.8216  -26.2066  -46.9840 C.3       10 UNK        -0.0849 
      7 S7         19.0543  -27.2887  -47.7846 S.3       10 UNK        -0.2776 
      8 C8         18.1765  -28.8842  -47.7870 C.3       10 UNK         0.0316 
      9 C9         18.0387  -29.4715  -46.3883 C.ar      10 UNK        -0.0863 
     10 C10        19.0895  -30.2034  -45.8246 C.ar      10 UNK        -0.1009 
     11 C11        18.9547  -30.7785  -44.5566 C.ar      10 UNK        -0.0712 
     12 C12        17.7460  -30.6371  -43.8676 C.ar      10 UNK        -0.0894 
     13 C13        16.7162  -29.8491  -44.3868 C.ar      10 UNK        -0.0745 
     14 C14        16.8591  -29.2879  -45.6591 C.ar      10 UNK        -0.0972 
     15 C15        15.4674  -29.5755  -43.5570 C.3       10 UNK         0.0209 
     16 S16        15.8550  -28.8562  -41.9203 S.3       10 UNK        -0.2568 
     17 C17        16.7696  -27.3363  -42.3576 C.3       10 UNK        -0.0983 
     18 CA         18.3023  -27.5001  -42.1828 C.3       3 UNK         0.0876 
     19 N          19.0459  -26.5439  -43.0012 N.am      3 UNK        -0.4424 
     20 C          20.3707  -26.5706  -43.2116 C.2       2 UNK         0.4918 
     21 O          21.1287  -27.3983  -42.7035 O.2       2 UNK        -0.4875 
     22 CA         20.9219  -25.5173  -44.1870 C.3       2 UNK         0.0481 
     23 CB         22.3600  -25.8246  -44.6405 C.3       2 UNK        -0.1831 
     24 N          20.0517  -25.4679  -45.3594 N.am      2 UNK        -0.4498 
     25 C          19.2733  -24.4450  -45.7242 C.2       1 UNK         0.5027 
     26 O          19.3195  -23.3326  -45.1918 O.2       1 UNK        -0.4969 
     27 C          18.7587  -27.4321  -40.7111 C.2       3 UNK         0.5005 
     28 O          18.5759  -26.3984  -40.0638 O.2       3 UNK        -0.5279 
     29 N          19.3883  -28.5217  -40.2464 N.am      4 UNK        -0.4463 
     30 CA         20.0609  -28.6916  -38.9535 C.3       4 UNK         0.0283 
     31 CB         19.0532  -28.6080  -37.7876 C.3       4 UNK        -0.1875 
     32 C          21.2791  -27.7616  -38.7650 C.2       4 UNK         0.4949 
     33 O          21.6190  -27.4312  -37.6278 O.2       4 UNK        -0.5039 
     34 N          21.9223  -27.3589  -39.8696 N.am      5 UNK        -0.4663 
     35 CA         23.0580  -26.4351  -39.8919 C.3       5 UNK         0.0242 
     36 CB         22.5401  -24.9987  -40.1050 C.3       5 UNK        -0.1982 
     37 C          24.0913  -26.8618  -40.9484 C.2       5 UNK         0.5017 
     38 O          24.6704  -26.0065  -41.6205 O.2       5 UNK        -0.5012 
     39 N          24.3082  -28.1750  -41.0810 N.am      6 UNK        -0.4439 
     40 CA         25.2485  -28.7902  -42.0146 C.3       6 UNK         0.0297 
     41 CB         24.5804  -28.9596  -43.3925 C.3       6 UNK        -0.2006 
     42 C          25.7254  -30.1312  -41.4435 C.2       6 UNK         0.4892 
     43 O          25.0985  -30.6627  -40.5222 O.2       6 UNK        -0.5089 
     44 N          26.8257  -30.6547  -42.0006 N.am      7 UNK        -0.4243 
     45 CA         27.4415  -31.9267  -41.6129 C.3       7 UNK         0.0196 
     46 CB         28.7378  -32.1334  -42.4138 C.3       7 UNK        -0.2007 
     47 C          26.4809  -33.1116  -41.8100 C.2       7 UNK         0.5020 
     48 O          25.9971  -33.3197  -42.9239 O.2       7 UNK        -0.5147 
     49 N          26.2104  -33.8364  -40.7149 N.am      8 UNK        -0.4734 
     50 CA         25.2814  -34.9723  -40.5930 C.3       8 UNK         0.0238 
     51 CB         25.7386  -36.1562  -41.4726 C.3       8 UNK        -0.1912 
     52 C          23.7932  -34.6226  -40.8190 C.2       8 UNK         0.5038 
     53 O          22.9723  -35.5371  -40.9101 O.2       8 UNK        -0.5046 
     54 N          23.4615  -33.3279  -40.8866 N.am      9 UNK        -0.4200 
     55 CA         22.0980  -32.8086  -41.0142 C.3       9 UNK         0.0839 
     56 C          21.4844  -32.5926  -39.6054 C.2       9 UNK         0.5513 
     57 N          20.2586  -33.0451  -39.3815 N.am      9 UNK        -0.7519 
     58 O          22.0996  -31.9939  -38.7258 O.2       9 UNK        -0.4960 
     59 C59        22.1147  -31.5179  -41.8686 C.3       10 UNK        -0.0876 
     60 S60        20.4678  -30.8489  -42.2494 S.3       10 UNK        -0.2414 
     61 C61        20.1241  -31.5128  -43.9109 C.3       10 UNK         0.0169 
     62 H62        15.1390  -22.0488  -45.0869 H         1 UNK         0.0903 
     63 H63        15.2311  -22.0900  -46.8488 H         1 UNK         0.0903 
     64 H64        14.1265  -23.1720  -45.9983 H         1 UNK         0.0903 
     65 H65        17.0889  -23.1073  -47.5447 H         1 UNK         0.3096 
     66 H66        18.7983  -24.4551  -47.7928 H         1 UNK         0.1121 
     67 H67        16.9109  -26.2716  -47.5819 H         1 UNK         0.0849 
     68 H68        17.5584  -26.6057  -46.0029 H         1 UNK         0.0849 
     69 H69        17.1964  -28.7619  -48.2511 H         1 UNK         0.0865 
     70 H70        18.7226  -29.5838  -48.4217 H         1 UNK         0.0865 
     71 H71        20.0149  -30.3171  -46.3728 H         1 UNK         0.1346 
     72 H72        17.6345  -31.0775  -42.8861 H         1 UNK         0.1412 
     73 H73        16.0569  -28.6956  -46.0782 H         1 UNK         0.1426 
     74 H74        14.9251  -30.5109  -43.4132 H         1 UNK         0.0716 
     75 H75        14.7892  -28.9023  -44.0838 H         1 UNK         0.0716 
     76 H76        16.3895  -26.5053  -41.7605 H         1 UNK         0.0695 
     77 H77        16.5320  -27.0852  -43.3929 H         1 UNK         0.0695 
     78 H78        18.5786  -28.4780  -42.5749 H         1 UNK         0.0983 
     79 H79        18.5031  -25.8113  -43.4345 H         1 UNK         0.3095 
     80 H80        20.9248  -24.5608  -43.6612 H         1 UNK         0.0454 
     81 H81        22.4325  -26.8022  -45.1186 H         1 UNK         0.0851 
     82 H82        23.0439  -25.8228  -43.7917 H         1 UNK         0.0851 
     83 H83        22.7214  -25.0773  -45.3467 H         1 UNK         0.0851 
     84 H84        19.9404  -26.3393  -45.8656 H         1 UNK         0.2976 
     85 H85        19.5192  -29.2932  -40.8909 H         1 UNK         0.3116 
     86 H86        20.4631  -29.7051  -38.9616 H         1 UNK         0.0646 
     87 H87        18.6620  -27.5982  -37.6614 H         1 UNK         0.0847 
     88 H88        18.2087  -29.2791  -37.9437 H         1 UNK         0.0847 
     89 H89        19.5215  -28.8937  -36.8450 H         1 UNK         0.0847 
     90 H90        21.5819  -27.6507  -40.7830 H         1 UNK         0.3040 
     91 H91        23.5813  -26.4703  -38.9339 H         1 UNK         0.1015 
     92 H92        23.3559  -24.2757  -40.0700 H         1 UNK         0.0786 
     93 H93        21.8257  -24.7161  -39.3315 H         1 UNK         0.0786 
     94 H94        22.0464  -24.8915  -41.0713 H         1 UNK         0.0786 
     95 H95        23.8606  -28.8232  -40.4447 H         1 UNK         0.3172 
     96 H96        26.1266  -28.1487  -42.1165 H         1 UNK         0.0595 
     97 H97        23.6376  -29.5014  -43.3236 H         1 UNK         0.0839 
     98 H98        25.2226  -29.5029  -44.0866 H         1 UNK         0.0839 
     99 H99        24.3680  -27.9913  -43.8444 H         1 UNK         0.0839 
    100 H100       27.2585  -30.1636  -42.7694 H         1 UNK         0.2998 
    101 H101       27.7050  -31.8537  -40.5554 H         1 UNK         0.0822 
    102 H102       29.2248  -33.0681  -42.1321 H         1 UNK         0.0787 
    103 H103       28.5469  -32.1767  -43.4871 H         1 UNK         0.0787 
    104 H104       29.4515  -31.3298  -42.2310 H         1 UNK         0.0787 
    105 H105       26.6493  -33.5533  -39.8483 H         1 UNK         0.3055 
    106 H106       25.3445  -35.2982  -39.5533 H         1 UNK         0.1106 
    107 H107       26.7823  -36.4097  -41.2871 H         1 UNK         0.0828 
    108 H108       25.1497  -37.0503  -41.2642 H         1 UNK         0.0828 
    109 H109       25.6290  -35.9394  -42.5354 H         1 UNK         0.0828 
    110 H110       24.1831  -32.6319  -40.7402 H         1 UNK         0.2931 
    111 H111       21.4936  -33.5434  -41.5506 H         1 UNK         0.0412 
    112 H112       19.8413  -32.9063  -38.4747 H         1 UNK         0.3472 
    113 H113       19.7425  -33.5234  -40.1035 H         1 UNK         0.3472 
    114 H114       22.6643  -30.7317  -41.3520 H         1 UNK         0.0970 
    115 H115       22.6502  -31.6958  -42.8023 H         1 UNK         0.0970 
    116 H116       21.0192  -31.4179  -44.5273 H         1 UNK         0.0612 
    117 H117       19.8958  -32.5768  -43.8385 H         1 UNK         0.0612 
@<TRIPOS>BOND
     1    1    2 1    
     2    1   62 1    
     3    1   63 1    
     4    1   64 1    
     5    2    3 2    
     6    2    4 am   BACKBONE|DICT|INTERRES
     7    4    5 1    
     8    4   65 1    
     9    5    6 1    
    10    5   25 1    
    11    5   66 1    
    12    6    7 1    
    13    6   67 1    
    14    6   68 1    
    15    7    8 1    
    16    8    9 1    
    17    8   69 1    
    18    8   70 1    
    19    9   10 ar   
    20    9   14 ar   
    21   10   11 ar   
    22   10   71 1    
    23   11   12 ar   
    24   11   61 1    
    25   12   13 ar   
    26   12   72 1    
    27   13   14 ar   
    28   13   15 1    
    29   14   73 1    
    30   15   16 1    
    31   15   74 1    
    32   15   75 1    
    33   16   17 1    
    34   17   18 1    
    35   17   76 1    
    36   17   77 1    
    37   18   19 1    
    38   18   27 1    
    39   18   78 1    
    40   19   20 am   BACKBONE|DICT|INTERRES
    41   19   79 1    
    42   20   21 2    
    43   20   22 1    
    44   22   23 1    
    45   22   24 1    
    46   22   80 1    
    47   23   81 1    
    48   23   82 1    
    49   23   83 1    
    50   24   25 am   BACKBONE|DICT|INTERRES
    51   24   84 1    
    52   25   26 2    
    53   27   28 2    
    54   27   29 am   BACKBONE|DICT|INTERRES
    55   29   30 1    
    56   29   85 1    
    57   30   31 1    
    58   30   32 1    
    59   30   86 1    
    60   31   87 1    
    61   31   88 1    
    62   31   89 1    
    63   32   33 2    
    64   32   34 am   BACKBONE|DICT|INTERRES
    65   34   35 1    
    66   34   90 1    
    67   35   36 1    
    68   35   37 1    
    69   35   91 1    
    70   36   92 1    
    71   36   93 1    
    72   36   94 1    
    73   37   38 2    
    74   37   39 am   BACKBONE|DICT|INTERRES
    75   39   40 1    
    76   39   95 1    
    77   40   41 1    
    78   40   42 1    
    79   40   96 1    
    80   41   97 1    
    81   41   98 1    
    82   41   99 1    
    83   42   43 2    
    84   42   44 am   BACKBONE|DICT|INTERRES
    85   44   45 1    
    86   44  100 1    
    87   45   46 1    
    88   45   47 1    
    89   45  101 1    
    90   46  102 1    
    91   46  103 1    
    92   46  104 1    
    93   47   48 2    
    94   47   49 am   BACKBONE|DICT|INTERRES
    95   49   50 1    
    96   49  105 1    
    97   50   51 1    
    98   50   52 1    
    99   50  106 1    
   100   51  107 1    
   101   51  108 1    
   102   51  109 1    
   103   52   53 2    
   104   52   54 am   BACKBONE|DICT|INTERRES
   105   54   55 1    
   106   54  110 1    
   107   55   56 1    
   108   55   59 1    
   109   55  111 1    
   110   56   57 am   BACKBONE|DICT|INTERRES
   111   56   58 2    
   112   57  112 1    
   113   57  113 1    
   114   59   60 1    
   115   59  114 1    
   116   59  115 1    
   117   60   61 1    
   118   61  116 1    
   119   61  117 1    
@<TRIPOS>SUBSTRUCTURE
     1 UNK         1 GROUP             0       ****    0 ROOT    
