@<TRIPOS>MOLECULE
3R8
117   119    1
SMALL
USER_CHARGES


@<TRIPOS>ATOM
      1 CA         15.9415  -22.0948  -47.0395 C.3       0 UNK        -0.2013 
      2 C          17.3703  -22.4496  -46.6568 C.2       0 UNK         0.4866 
      3 O          18.1133  -21.5852  -46.1917 O.2       0 UNK        -0.5176 
      4 N          17.7614  -23.7166  -46.8460 N.am      1 UNK        -0.4884 
      5 CA         19.0979  -24.2407  -46.5295 C.3       1 UNK         0.0853 
      6 C6         19.4237  -25.5049  -47.3681 C.3       10 UNK        -0.0849 
      7 S7         18.2460  -26.8838  -47.1306 S.3       10 UNK        -0.2776 
      8 C8         19.2678  -28.0252  -46.1358 C.3       10 UNK         0.0316 
      9 C9         18.5034  -29.1362  -45.4154 C.ar      10 UNK        -0.0863 
     10 C10        19.2238  -30.2391  -44.9468 C.ar      10 UNK        -0.1009 
     11 C11        18.6021  -31.2318  -44.1847 C.ar      10 UNK        -0.0712 
     12 C12        17.2365  -31.1324  -43.9065 C.ar      10 UNK        -0.0894 
     13 C13        16.4991  -30.0386  -44.3685 C.ar      10 UNK        -0.0745 
     14 C14        17.1333  -29.0525  -45.1315 C.ar      10 UNK        -0.0972 
     15 C15        15.0365  -29.8803  -43.9771 C.3       10 UNK         0.0209 
     16 S16        14.7744  -28.4326  -42.8961 S.3       10 UNK        -0.2568 
     17 C17        15.8041  -28.8303  -41.4378 C.3       10 UNK        -0.0983 
     18 CA         17.2615  -28.3063  -41.5588 C.3       3 UNK         0.0876 
     19 N          17.3211  -26.8714  -41.8655 N.am      3 UNK        -0.4424 
     20 C          18.3366  -26.2484  -42.4776 C.2       2 UNK         0.4918 
     21 O          19.4007  -26.8000  -42.7665 O.2       2 UNK        -0.4875 
     22 CA         18.1267  -24.7588  -42.7922 C.3       2 UNK         0.0481 
     23 CB         19.0536  -23.8664  -41.9434 C.3       2 UNK        -0.1831 
     24 N          18.2399  -24.4794  -44.2295 N.am      2 UNK        -0.4498 
     25 C          19.3302  -24.4689  -45.0161 C.2       1 UNK         0.5027 
     26 O          20.4847  -24.6179  -44.6136 O.2       1 UNK        -0.4969 
     27 C          18.1417  -28.6767  -40.3465 C.2       3 UNK         0.5005 
     28 O          17.6389  -29.0951  -39.3017 O.2       3 UNK        -0.5279 
     29 N          19.4507  -28.4986  -40.5290 N.am      4 UNK        -0.4463 
     30 CA         20.5404  -28.8351  -39.6198 C.3       4 UNK         0.0283 
     31 CB         20.6235  -27.8368  -38.4511 C.3       4 UNK        -0.1875 
     32 C          21.8484  -28.8674  -40.4173 C.2       4 UNK         0.4949 
     33 O          22.6560  -29.7723  -40.2104 O.2       4 UNK        -0.5039 
     34 N          22.0121  -27.8950  -41.3331 N.am      5 UNK        -0.4663 
     35 CA         23.0431  -27.8076  -42.3770 C.3       5 UNK         0.0242 
     36 CB         22.7180  -28.8160  -43.4988 C.3       5 UNK        -0.1982 
     37 C          24.4897  -27.9414  -41.8601 C.2       5 UNK         0.5017 
     38 O          25.3162  -28.5761  -42.5140 O.2       5 UNK        -0.5012 
     39 N          24.7607  -27.3810  -40.6711 N.am      6 UNK        -0.4439 
     40 CA         26.0248  -27.4832  -39.9253 C.3       6 UNK         0.0297 
     41 CB         27.1447  -26.6921  -40.6351 C.3       6 UNK        -0.2006 
     42 C          26.4271  -28.9423  -39.6098 C.2       6 UNK         0.4892 
     43 O          27.6120  -29.2767  -39.6489 O.2       6 UNK        -0.5089 
     44 N          25.4175  -29.7751  -39.3140 N.am      7 UNK        -0.4243 
     45 CA         25.4684  -31.2120  -39.0227 C.3       7 UNK         0.0196 
     46 CB         26.4452  -31.5430  -37.8736 C.3       7 UNK        -0.2007 
     47 C          25.6810  -32.1034  -40.2608 C.2       7 UNK         0.5020 
     48 O          25.8690  -33.3102  -40.0967 O.2       7 UNK        -0.5147 
     49 N          25.5884  -31.5438  -41.4789 N.am      8 UNK        -0.4734 
     50 CA         25.6753  -32.2996  -42.7379 C.3       8 UNK         0.0238 
     51 CB         25.8338  -31.3365  -43.9241 C.3       8 UNK        -0.1912 
     52 C          24.4927  -33.2585  -42.9755 C.2       8 UNK         0.5038 
     53 O          24.6200  -34.1655  -43.7994 O.2       8 UNK        -0.5046 
     54 N          23.3853  -33.0668  -42.2441 N.am      9 UNK        -0.4200 
     55 CA         22.2519  -34.0031  -42.1820 C.3       9 UNK         0.0839 
     56 C          22.5861  -35.3701  -41.5120 C.2       9 UNK         0.5513 
     57 N          23.6878  -35.5096  -40.7814 N.am      9 UNK        -0.7519 
     58 O          21.8262  -36.3236  -41.6601 O.2       9 UNK        -0.4960 
     59 C59        21.0044  -33.3745  -41.5067 C.3       10 UNK        -0.0876 
     60 S60        20.4690  -31.8008  -42.2526 S.3       10 UNK        -0.2414 
     61 C61        19.4190  -32.3819  -43.6185 C.3       10 UNK         0.0169 
     62 H62        15.9400  -21.3140  -47.7996 H         1 UNK         0.0903 
     63 H63        15.3993  -22.9535  -47.4351 H         1 UNK         0.0903 
     64 H64        15.4007  -21.7238  -46.1692 H         1 UNK         0.0903 
     65 H65        17.1165  -24.3911  -47.2361 H         1 UNK         0.3096 
     66 H66        19.8228  -23.4762  -46.8200 H         1 UNK         0.1121 
     67 H67        19.4127  -25.2438  -48.4275 H         1 UNK         0.0849 
     68 H68        20.4426  -25.8442  -47.1704 H         1 UNK         0.0849 
     69 H69        19.8069  -27.4535  -45.3792 H         1 UNK         0.0865 
     70 H70        20.0238  -28.4637  -46.7891 H         1 UNK         0.0865 
     71 H71        20.2864  -30.3084  -45.1371 H         1 UNK         0.1346 
     72 H72        16.7569  -31.8867  -43.2976 H         1 UNK         0.1412 
     73 H73        16.5581  -28.1948  -45.4498 H         1 UNK         0.1426 
     74 H74        14.6646  -30.7744  -43.4743 H         1 UNK         0.0716 
     75 H75        14.4357  -29.7619  -44.8798 H         1 UNK         0.0716 
     76 H76        15.7970  -29.9114  -41.2869 H         1 UNK         0.0695 
     77 H77        15.3179  -28.3980  -40.5615 H         1 UNK         0.0695 
     78 H78        17.7221  -28.8268  -42.3969 H         1 UNK         0.0983 
     79 H79        16.4903  -26.3448  -41.6387 H         1 UNK         0.3095 
     80 H80        17.1004  -24.4977  -42.5290 H         1 UNK         0.0454 
     81 H81        18.9175  -22.8116  -42.1817 H         1 UNK         0.0851 
     82 H82        20.1061  -24.1108  -42.0887 H         1 UNK         0.0851 
     83 H83        18.8415  -23.9898  -40.8809 H         1 UNK         0.0851 
     84 H84        17.3586  -24.3515  -44.7064 H         1 UNK         0.2976 
     85 H85        19.7302  -28.1469  -41.4418 H         1 UNK         0.3116 
     86 H86        20.3639  -29.8377  -39.2246 H         1 UNK         0.0646 
     87 H87        21.4661  -28.0704  -37.7989 H         1 UNK         0.0847 
     88 H88        19.7237  -27.8682  -37.8367 H         1 UNK         0.0847 
     89 H89        20.7528  -26.8121  -38.8010 H         1 UNK         0.0847 
     90 H90        21.3072  -27.1711  -41.3862 H         1 UNK         0.3040 
     91 H91        22.9685  -26.8062  -42.8044 H         1 UNK         0.1015 
     92 H92        21.7062  -28.6682  -43.8760 H         1 UNK         0.0786 
     93 H93        22.7964  -29.8459  -43.1489 H         1 UNK         0.0786 
     94 H94        23.3969  -28.7008  -44.3445 H         1 UNK         0.0786 
     95 H95        24.0083  -26.8934  -40.2043 H         1 UNK         0.3172 
     96 H96        25.8482  -27.0060  -38.9602 H         1 UNK         0.0595 
     97 H97        27.4209  -27.1463  -41.5872 H         1 UNK         0.0839 
     98 H98        28.0457  -26.6535  -40.0216 H         1 UNK         0.0839 
     99 H99        26.8430  -25.6630  -40.8292 H         1 UNK         0.0839 
    100 H100       24.4728  -29.4143  -39.4070 H         1 UNK         0.2998 
    101 H101       24.4671  -31.4593  -38.6667 H         1 UNK         0.0822 
    102 H102       27.4861  -31.4310  -38.1777 H         1 UNK         0.0787 
    103 H103       26.2747  -30.9021  -37.0087 H         1 UNK         0.0787 
    104 H104       26.3190  -32.5739  -37.5406 H         1 UNK         0.0787 
    105 H105       25.4380  -30.5439  -41.5560 H         1 UNK         0.3055 
    106 H106       26.5748  -32.9174  -42.6870 H         1 UNK         0.1106 
    107 H107       26.0026  -31.8852  -44.8517 H         1 UNK         0.0828 
    108 H108       24.9435  -30.7254  -44.0689 H         1 UNK         0.0828 
    109 H109       26.6836  -30.6680  -43.7852 H         1 UNK         0.0828 
    110 H110       23.3528  -32.2802  -41.6120 H         1 UNK         0.2931 
    111 H111       21.9788  -34.2325  -43.2138 H         1 UNK         0.0412 
    112 H112       24.3300  -34.7383  -40.6483 H         1 UNK         0.3472 
    113 H113       23.8858  -36.4027  -40.3583 H         1 UNK         0.3472 
    114 H114       20.1640  -34.0713  -41.5230 H         1 UNK         0.0970 
    115 H115       21.2089  -33.1821  -40.4518 H         1 UNK         0.0970 
    116 H116       20.0457  -32.8141  -44.3998 H         1 UNK         0.0612 
    117 H117       18.7621  -33.1780  -43.2651 H         1 UNK         0.0612 
@<TRIPOS>BOND
     1    1    2 1    
     2    1   62 1    
     3    1   63 1    
     4    1   64 1    
     5    2    3 2    
     6    2    4 am   BACKBONE|DICT|INTERRES
     7    4    5 1    
     8    4   65 1    
     9    5    6 1    
    10    5   25 1    
    11    5   66 1    
    12    6    7 1    
    13    6   67 1    
    14    6   68 1    
    15    7    8 1    
    16    8    9 1    
    17    8   69 1    
    18    8   70 1    
    19    9   10 ar   
    20    9   14 ar   
    21   10   11 ar   
    22   10   71 1    
    23   11   12 ar   
    24   11   61 1    
    25   12   13 ar   
    26   12   72 1    
    27   13   14 ar   
    28   13   15 1    
    29   14   73 1    
    30   15   16 1    
    31   15   74 1    
    32   15   75 1    
    33   16   17 1    
    34   17   18 1    
    35   17   76 1    
    36   17   77 1    
    37   18   19 1    
    38   18   27 1    
    39   18   78 1    
    40   19   20 am   BACKBONE|DICT|INTERRES
    41   19   79 1    
    42   20   21 2    
    43   20   22 1    
    44   22   23 1    
    45   22   24 1    
    46   22   80 1    
    47   23   81 1    
    48   23   82 1    
    49   23   83 1    
    50   24   25 am   BACKBONE|DICT|INTERRES
    51   24   84 1    
    52   25   26 2    
    53   27   28 2    
    54   27   29 am   BACKBONE|DICT|INTERRES
    55   29   30 1    
    56   29   85 1    
    57   30   31 1    
    58   30   32 1    
    59   30   86 1    
    60   31   87 1    
    61   31   88 1    
    62   31   89 1    
    63   32   33 2    
    64   32   34 am   BACKBONE|DICT|INTERRES
    65   34   35 1    
    66   34   90 1    
    67   35   36 1    
    68   35   37 1    
    69   35   91 1    
    70   36   92 1    
    71   36   93 1    
    72   36   94 1    
    73   37   38 2    
    74   37   39 am   BACKBONE|DICT|INTERRES
    75   39   40 1    
    76   39   95 1    
    77   40   41 1    
    78   40   42 1    
    79   40   96 1    
    80   41   97 1    
    81   41   98 1    
    82   41   99 1    
    83   42   43 2    
    84   42   44 am   BACKBONE|DICT|INTERRES
    85   44   45 1    
    86   44  100 1    
    87   45   46 1    
    88   45   47 1    
    89   45  101 1    
    90   46  102 1    
    91   46  103 1    
    92   46  104 1    
    93   47   48 2    
    94   47   49 am   BACKBONE|DICT|INTERRES
    95   49   50 1    
    96   49  105 1    
    97   50   51 1    
    98   50   52 1    
    99   50  106 1    
   100   51  107 1    
   101   51  108 1    
   102   51  109 1    
   103   52   53 2    
   104   52   54 am   BACKBONE|DICT|INTERRES
   105   54   55 1    
   106   54  110 1    
   107   55   56 1    
   108   55   59 1    
   109   55  111 1    
   110   56   57 am   BACKBONE|DICT|INTERRES
   111   56   58 2    
   112   57  112 1    
   113   57  113 1    
   114   59   60 1    
   115   59  114 1    
   116   59  115 1    
   117   60   61 1    
   118   61  116 1    
   119   61  117 1    
@<TRIPOS>SUBSTRUCTURE
     1 UNK         1 GROUP             0       ****    0 ROOT    
