@<TRIPOS>MOLECULE
3R8
117   119    1
SMALL
USER_CHARGES


@<TRIPOS>ATOM
      1 CA         15.2782  -23.0297  -46.2123 C.3       0 UNK        -0.2013 
      2 C          15.8959  -23.7564  -45.0264 C.2       0 UNK         0.4866 
      3 O          16.1378  -23.1319  -43.9928 O.2       0 UNK        -0.5176 
      4 N          16.1424  -25.0658  -45.1765 N.am      1 UNK        -0.4884 
      5 CA         16.7590  -25.9751  -44.1968 C.3       1 UNK         0.0853 
      6 C6         15.9265  -26.1242  -42.8861 C.3       10 UNK        -0.0849 
      7 S7         14.4416  -27.1428  -43.1815 S.3       10 UNK        -0.2776 
      8 C8         14.8922  -28.7222  -42.3794 C.3       10 UNK         0.0316 
      9 C9         16.2521  -29.2504  -42.8256 C.ar      10 UNK        -0.0863 
     10 C10        17.2900  -29.3928  -41.8985 C.ar      10 UNK        -0.1009 
     11 C11        18.5444  -29.8598  -42.3015 C.ar      10 UNK        -0.0712 
     12 C12        18.7565  -30.1843  -43.6443 C.ar      10 UNK        -0.0894 
     13 C13        17.7296  -30.0449  -44.5822 C.ar      10 UNK        -0.0745 
     14 C14        16.4755  -29.5910  -44.1631 C.ar      10 UNK        -0.0972 
     15 C15        17.9636  -30.3944  -46.0453 C.3       10 UNK         0.0209 
     16 S16        18.8586  -29.0747  -46.9312 S.3       10 UNK        -0.2568 
     17 C17        20.6003  -29.5208  -46.6048 C.3       10 UNK        -0.0983 
     18 CA         21.4194  -28.4013  -45.9114 C.3       3 UNK         0.0876 
     19 N          20.7479  -27.8591  -44.7257 N.am      3 UNK        -0.4424 
     20 C          21.1926  -26.8549  -43.9553 C.2       2 UNK         0.4918 
     21 O          22.2269  -26.2226  -44.1755 O.2       2 UNK        -0.4875 
     22 CA         20.3106  -26.4954  -42.7433 C.3       2 UNK         0.0481 
     23 CB         20.7391  -25.1882  -42.0444 C.3       2 UNK        -0.1831 
     24 N          18.8790  -26.4819  -43.0733 N.am      2 UNK        -0.4498 
     25 C          18.2579  -25.6789  -43.9536 C.2       1 UNK         0.5027 
     26 O          18.8336  -24.7949  -44.5935 O.2       1 UNK        -0.4969 
     27 C          22.8177  -28.9290  -45.5368 C.2       3 UNK         0.5005 
     28 O          22.9130  -29.7749  -44.6464 O.2       3 UNK        -0.5279 
     29 N          23.8663  -28.4013  -46.1843 N.am      4 UNK        -0.4463 
     30 CA         25.2954  -28.5907  -45.8892 C.3       4 UNK         0.0283 
     31 CB         25.7263  -30.0695  -45.9791 C.3       4 UNK        -0.1875 
     32 C          25.7208  -27.9506  -44.5537 C.2       4 UNK         0.4949 
     33 O          26.6027  -27.0913  -44.5546 O.2       4 UNK        -0.5039 
     34 N          25.0728  -28.3482  -43.4549 N.am      5 UNK        -0.4663 
     35 CA         25.2092  -27.7780  -42.1195 C.3       5 UNK         0.0242 
     36 CB         26.5136  -28.2581  -41.4559 C.3       5 UNK        -0.1982 
     37 C          23.9883  -28.1796  -41.2849 C.2       5 UNK         0.5017 
     38 O          23.4442  -29.2699  -41.4820 O.2       5 UNK        -0.5012 
     39 N          23.6007  -27.3096  -40.3430 N.am      6 UNK        -0.4439 
     40 CA         22.5365  -27.5593  -39.3668 C.3       6 UNK         0.0297 
     41 CB         22.2755  -26.2780  -38.5591 C.3       6 UNK        -0.2006 
     42 C          22.8921  -28.7234  -38.4268 C.2       6 UNK         0.4892 
     43 O          24.0687  -28.9114  -38.1089 O.2       6 UNK        -0.5089 
     44 N          21.8707  -29.4901  -38.0219 N.am      7 UNK        -0.4243 
     45 CA         21.9095  -30.7106  -37.1985 C.3       7 UNK         0.0196 
     46 CB         22.5204  -30.4446  -35.8083 C.3       7 UNK        -0.2007 
     47 C          22.5733  -31.9263  -37.8764 C.2       7 UNK         0.5020 
     48 O          22.1120  -33.0478  -37.6645 O.2       7 UNK        -0.5147 
     49 N          23.6185  -31.7002  -38.6827 N.am      8 UNK        -0.4734 
     50 CA         24.2549  -32.7038  -39.5372 C.3       8 UNK         0.0238 
     51 CB         25.5958  -32.1634  -40.0603 C.3       8 UNK        -0.1912 
     52 C          23.3331  -33.1144  -40.6958 C.2       8 UNK         0.5038 
     53 O          23.0843  -34.3070  -40.8766 O.2       8 UNK        -0.5046 
     54 N          22.8262  -32.1126  -41.4282 N.am      9 UNK        -0.4200 
     55 CA         21.8198  -32.2338  -42.4948 C.3       9 UNK         0.0839 
     56 C          22.2647  -33.0394  -43.7529 C.2       9 UNK         0.5513 
     57 N          23.5539  -33.2741  -43.9671 N.am      9 UNK        -0.7519 
     58 O          21.4320  -33.4370  -44.5640 O.2       9 UNK        -0.4960 
     59 C59        20.4228  -32.6666  -41.9563 C.3       10 UNK        -0.0876 
     60 S60        19.7963  -31.6489  -40.5688 S.3       10 UNK        -0.2414 
     61 C61        19.6759  -29.9814  -41.2905 C.3       10 UNK         0.0169 
     62 H62        14.3234  -22.5893  -45.9264 H         1 UNK         0.0903 
     63 H63        15.1038  -23.6971  -47.0562 H         1 UNK         0.0903 
     64 H64        15.9372  -22.2282  -46.5450 H         1 UNK         0.0903 
     65 H65        15.9303  -25.4940  -46.0671 H         1 UNK         0.3096 
     66 H66        16.7744  -26.9430  -44.6978 H         1 UNK         0.1121 
     67 H67        16.4930  -26.5757  -42.0720 H         1 UNK         0.0849 
     68 H68        15.6136  -25.1542  -42.4997 H         1 UNK         0.0849 
     69 H69        14.8666  -28.5845  -41.2972 H         1 UNK         0.0865 
     70 H70        14.1280  -29.4663  -42.6082 H         1 UNK         0.0865 
     71 H71        17.1237  -29.1388  -40.8601 H         1 UNK         0.1346 
     72 H72        19.7242  -30.5474  -43.9582 H         1 UNK         0.1412 
     73 H73        15.6732  -29.4826  -44.8809 H         1 UNK         0.1426 
     74 H74        18.5000  -31.3410  -46.1265 H         1 UNK         0.0716 
     75 H75        17.0078  -30.5531  -46.5470 H         1 UNK         0.0716 
     76 H76        21.0574  -29.7674  -47.5648 H         1 UNK         0.0695 
     77 H77        20.6359  -30.4441  -46.0246 H         1 UNK         0.0695 
     78 H78        21.5294  -27.5745  -46.6162 H         1 UNK         0.0983 
     79 H79        19.8756  -28.3036  -44.4823 H         1 UNK         0.3095 
     80 H80        20.4504  -27.3007  -42.0234 H         1 UNK         0.0454 
     81 H81        20.1251  -24.9872  -41.1669 H         1 UNK         0.0851 
     82 H82        20.6677  -24.3274  -42.7096 H         1 UNK         0.0851 
     83 H83        21.7746  -25.2487  -41.7082 H         1 UNK         0.0851 
     84 H84        18.3296  -27.2050  -42.6288 H         1 UNK         0.2976 
     85 H85        23.6752  -27.6924  -46.8797 H         1 UNK         0.3116 
     86 H86        25.8281  -28.0553  -46.6770 H         1 UNK         0.0646 
     87 H87        25.4588  -30.5022  -46.9429 H         1 UNK         0.0847 
     88 H88        26.8075  -30.1628  -45.8706 H         1 UNK         0.0847 
     89 H89        25.2735  -30.6838  -45.2004 H         1 UNK         0.0847 
     90 H90        24.3157  -29.0237  -43.5605 H         1 UNK         0.3040 
     91 H91        25.2237  -26.6894  -42.2087 H         1 UNK         0.1015 
     92 H92        26.5816  -27.9121  -40.4235 H         1 UNK         0.0786 
     93 H93        27.3904  -27.8788  -41.9808 H         1 UNK         0.0786 
     94 H94        26.5805  -29.3456  -41.4418 H         1 UNK         0.0786 
     95 H95        24.1375  -26.4643  -40.2139 H         1 UNK         0.3172 
     96 H96        21.6305  -27.8162  -39.9187 H         1 UNK         0.0595 
     97 H97        23.1550  -25.9748  -37.9891 H         1 UNK         0.0839 
     98 H98        21.4625  -26.4238  -37.8465 H         1 UNK         0.0839 
     99 H99        21.9911  -25.4470  -39.2041 H         1 UNK         0.0839 
    100 H100       20.9497  -29.2498  -38.3607 H         1 UNK         0.2998 
    101 H101       20.8642  -30.9847  -37.0450 H         1 UNK         0.0822 
    102 H102       22.0152  -29.6213  -35.3035 H         1 UNK         0.0787 
    103 H103       22.4255  -31.3239  -35.1697 H         1 UNK         0.0787 
    104 H104       23.5821  -30.2033  -35.8657 H         1 UNK         0.0787 
    105 H105       23.9545  -30.7439  -38.7484 H         1 UNK         0.3055 
    106 H106       24.4530  -33.5930  -38.9342 H         1 UNK         0.1106 
    107 H107       26.2734  -31.9235  -39.2407 H         1 UNK         0.0828 
    108 H108       26.0958  -32.9018  -40.6886 H         1 UNK         0.0828 
    109 H109       25.4620  -31.2620  -40.6581 H         1 UNK         0.0828 
    110 H110       23.1167  -31.1587  -41.2331 H         1 UNK         0.2931 
    111 H111       21.7149  -31.2226  -42.8783 H         1 UNK         0.0412 
    112 H112       23.8344  -33.7857  -44.7884 H         1 UNK         0.3472 
    113 H113       24.2448  -32.9343  -43.3185 H         1 UNK         0.3472 
    114 H114       19.6761  -32.6547  -42.7509 H         1 UNK         0.0970 
    115 H115       20.4647  -33.7019  -41.6148 H         1 UNK         0.0970 
    116 H116       20.6257  -29.6916  -41.7386 H         1 UNK         0.0612 
    117 H117       19.5121  -29.2747  -40.4761 H         1 UNK         0.0612 
@<TRIPOS>BOND
     1    1    2 1    
     2    1   62 1    
     3    1   63 1    
     4    1   64 1    
     5    2    3 2    
     6    2    4 am   BACKBONE|DICT|INTERRES
     7    4    5 1    
     8    4   65 1    
     9    5    6 1    
    10    5   25 1    
    11    5   66 1    
    12    6    7 1    
    13    6   67 1    
    14    6   68 1    
    15    7    8 1    
    16    8    9 1    
    17    8   69 1    
    18    8   70 1    
    19    9   10 ar   
    20    9   14 ar   
    21   10   11 ar   
    22   10   71 1    
    23   11   12 ar   
    24   11   61 1    
    25   12   13 ar   
    26   12   72 1    
    27   13   14 ar   
    28   13   15 1    
    29   14   73 1    
    30   15   16 1    
    31   15   74 1    
    32   15   75 1    
    33   16   17 1    
    34   17   18 1    
    35   17   76 1    
    36   17   77 1    
    37   18   19 1    
    38   18   27 1    
    39   18   78 1    
    40   19   20 am   BACKBONE|DICT|INTERRES
    41   19   79 1    
    42   20   21 2    
    43   20   22 1    
    44   22   23 1    
    45   22   24 1    
    46   22   80 1    
    47   23   81 1    
    48   23   82 1    
    49   23   83 1    
    50   24   25 am   BACKBONE|DICT|INTERRES
    51   24   84 1    
    52   25   26 2    
    53   27   28 2    
    54   27   29 am   BACKBONE|DICT|INTERRES
    55   29   30 1    
    56   29   85 1    
    57   30   31 1    
    58   30   32 1    
    59   30   86 1    
    60   31   87 1    
    61   31   88 1    
    62   31   89 1    
    63   32   33 2    
    64   32   34 am   BACKBONE|DICT|INTERRES
    65   34   35 1    
    66   34   90 1    
    67   35   36 1    
    68   35   37 1    
    69   35   91 1    
    70   36   92 1    
    71   36   93 1    
    72   36   94 1    
    73   37   38 2    
    74   37   39 am   BACKBONE|DICT|INTERRES
    75   39   40 1    
    76   39   95 1    
    77   40   41 1    
    78   40   42 1    
    79   40   96 1    
    80   41   97 1    
    81   41   98 1    
    82   41   99 1    
    83   42   43 2    
    84   42   44 am   BACKBONE|DICT|INTERRES
    85   44   45 1    
    86   44  100 1    
    87   45   46 1    
    88   45   47 1    
    89   45  101 1    
    90   46  102 1    
    91   46  103 1    
    92   46  104 1    
    93   47   48 2    
    94   47   49 am   BACKBONE|DICT|INTERRES
    95   49   50 1    
    96   49  105 1    
    97   50   51 1    
    98   50   52 1    
    99   50  106 1    
   100   51  107 1    
   101   51  108 1    
   102   51  109 1    
   103   52   53 2    
   104   52   54 am   BACKBONE|DICT|INTERRES
   105   54   55 1    
   106   54  110 1    
   107   55   56 1    
   108   55   59 1    
   109   55  111 1    
   110   56   57 am   BACKBONE|DICT|INTERRES
   111   56   58 2    
   112   57  112 1    
   113   57  113 1    
   114   59   60 1    
   115   59  114 1    
   116   59  115 1    
   117   60   61 1    
   118   61  116 1    
   119   61  117 1    
@<TRIPOS>SUBSTRUCTURE
     1 UNK         1 GROUP             0       ****    0 ROOT    
