@<TRIPOS>MOLECULE
3R8
117   119    1
SMALL
USER_CHARGES


@<TRIPOS>ATOM
      1 CA         22.5574  -29.3001  -48.5588 C.3       0 UNK        -0.2013 
      2 C          21.2450  -28.9270  -47.8864 C.2       0 UNK         0.4866 
      3 O          20.2445  -29.6188  -48.0712 O.2       0 UNK        -0.5176 
      4 N          21.2457  -27.8436  -47.1048 N.am      1 UNK        -0.4884 
      5 CA         20.1283  -27.3647  -46.2934 C.3       1 UNK         0.0853 
      6 C6         18.9930  -26.7266  -47.1427 C.3       10 UNK        -0.0849 
      7 S7         17.3645  -26.6605  -46.3129 S.3       10 UNK        -0.2776 
      8 C8         16.7634  -28.3803  -46.4359 C.3       10 UNK         0.0316 
      9 C9         17.1470  -29.1911  -45.2050 C.ar      10 UNK        -0.0863 
     10 C10        18.1272  -30.1837  -45.2810 C.ar      10 UNK        -0.1009 
     11 C11        18.5304  -30.8734  -44.1345 C.ar      10 UNK        -0.0712 
     12 C12        17.9196  -30.5925  -42.9079 C.ar      10 UNK        -0.0894 
     13 C13        16.9000  -29.6388  -42.8285 C.ar      10 UNK        -0.0745 
     14 C14        16.5215  -28.9413  -43.9805 C.ar      10 UNK        -0.0972 
     15 C15        16.1784  -29.3774  -41.5140 C.3       10 UNK         0.0209 
     16 S16        16.3968  -27.6608  -40.9486 S.3       10 UNK        -0.2568 
     17 C17        17.7904  -27.8009  -39.7796 C.3       10 UNK        -0.0983 
     18 CA         19.1968  -27.7104  -40.4301 C.3       3 UNK         0.0876 
     19 N          19.2903  -26.6070  -41.3912 N.am      3 UNK        -0.4424 
     20 C          20.3698  -26.1492  -42.0408 C.2       2 UNK         0.4918 
     21 O          21.5310  -26.5290  -41.8584 O.2       2 UNK        -0.4875 
     22 CA         20.0540  -25.1227  -43.1409 C.3       2 UNK         0.0481 
     23 CB         21.1221  -24.0169  -43.2664 C.3       2 UNK        -0.1831 
     24 N          19.8113  -25.8247  -44.4064 N.am      2 UNK        -0.4498 
     25 C          20.6991  -26.4692  -45.1765 C.2       1 UNK         0.5027 
     26 O          21.9214  -26.4052  -45.0285 O.2       1 UNK        -0.4969 
     27 C          20.2797  -27.6370  -39.3358 C.2       3 UNK         0.5005 
     28 O          20.2001  -26.7747  -38.4587 O.2       3 UNK        -0.5279 
     29 N          21.2950  -28.5026  -39.4444 N.am      4 UNK        -0.4463 
     30 CA         22.4907  -28.6458  -38.5986 C.3       4 UNK         0.0283 
     31 CB         22.1136  -28.9737  -37.1413 C.3       4 UNK        -0.1875 
     32 C          23.4874  -27.4715  -38.6692 C.2       4 UNK         0.4949 
     33 O          24.6641  -27.6754  -38.3710 O.2       4 UNK        -0.5039 
     34 N          23.0273  -26.2829  -39.0788 N.am      5 UNK        -0.4663 
     35 CA         23.8348  -25.0860  -39.3145 C.3       5 UNK         0.0242 
     36 CB         22.9062  -23.8815  -39.5319 C.3       5 UNK        -0.1982 
     37 C          24.8057  -25.2483  -40.4952 C.2       5 UNK         0.5017 
     38 O          25.9295  -24.7504  -40.4141 O.2       5 UNK        -0.5012 
     39 N          24.3710  -25.9571  -41.5465 N.am      6 UNK        -0.4439 
     40 CA         25.2134  -26.3422  -42.6809 C.3       6 UNK         0.0297 
     41 CB         25.0705  -25.3326  -43.8311 C.3       6 UNK        -0.2006 
     42 C          24.9710  -27.7855  -43.1506 C.2       6 UNK         0.4892 
     43 O          25.9038  -28.3755  -43.6986 O.2       6 UNK        -0.5089 
     44 N          23.7788  -28.3557  -42.9193 N.am      7 UNK        -0.4243 
     45 CA         23.4824  -29.7573  -43.2180 C.3       7 UNK         0.0196 
     46 CB         22.8148  -29.8728  -44.5990 C.3       7 UNK        -0.2007 
     47 C          22.5727  -30.3171  -42.1251 C.2       7 UNK         0.5020 
     48 O          21.4938  -29.7688  -41.9032 O.2       7 UNK        -0.5147 
     49 N          23.0048  -31.3933  -41.4581 N.am      8 UNK        -0.4734 
     50 CA         22.1978  -32.1074  -40.4618 C.3       8 UNK         0.0238 
     51 CB         23.1176  -32.7501  -39.4101 C.3       8 UNK        -0.1912 
     52 C          21.2888  -33.1600  -41.1158 C.2       8 UNK         0.5038 
     53 O          20.1120  -33.2328  -40.7652 O.2       8 UNK        -0.5046 
     54 N          21.8666  -33.9368  -42.0463 N.am      9 UNK        -0.4200 
     55 CA         21.2656  -35.0249  -42.8443 C.3       9 UNK         0.0839 
     56 C          20.4787  -36.1334  -42.0765 C.2       9 UNK         0.5513 
     57 N          20.6963  -36.3165  -40.7801 N.am      9 UNK        -0.7519 
     58 O          19.7000  -36.8760  -42.6695 O.2       9 UNK        -0.4960 
     59 C59        20.5903  -34.5316  -44.1582 C.3       10 UNK        -0.0876 
     60 S60        19.0383  -33.5913  -43.9603 S.3       10 UNK        -0.2414 
     61 C61        19.6474  -31.8993  -44.2189 C.3       10 UNK         0.0169 
     62 H62        23.3561  -28.6014  -48.3103 H         1 UNK         0.0903 
     63 H63        22.8686  -30.2961  -48.2446 H         1 UNK         0.0903 
     64 H64        22.4359  -29.3060  -49.6416 H         1 UNK         0.0903 
     65 H65        22.1060  -27.3390  -46.9216 H         1 UNK         0.3096 
     66 H66        19.7366  -28.2349  -45.7737 H         1 UNK         0.1121 
     67 H67        18.8553  -27.2803  -48.0723 H         1 UNK         0.0849 
     68 H68        19.2713  -25.7171  -47.4507 H         1 UNK         0.0849 
     69 H69        15.6763  -28.3671  -46.5271 H         1 UNK         0.0865 
     70 H70        17.1388  -28.8466  -47.3484 H         1 UNK         0.0865 
     71 H71        18.6025  -30.3963  -46.2286 H         1 UNK         0.1346 
     72 H72        18.2317  -31.1324  -42.0236 H         1 UNK         0.1412 
     73 H73        15.7460  -28.1895  -43.9198 H         1 UNK         0.1426 
     74 H74        16.4989  -30.0759  -40.7398 H         1 UNK         0.0716 
     75 H75        15.1131  -29.5591  -41.6625 H         1 UNK         0.0716 
     76 H76        17.6918  -28.7283  -39.2126 H         1 UNK         0.0695 
     77 H77        17.6541  -26.9959  -39.0545 H         1 UNK         0.0695 
     78 H78        19.3458  -28.6256  -41.0052 H         1 UNK         0.0983 
     79 H79        18.3935  -26.2165  -41.6410 H         1 UNK         0.3095 
     80 H80        19.1146  -24.6281  -42.8881 H         1 UNK         0.0454 
     81 H81        22.1295  -24.4197  -43.3543 H         1 UNK         0.0851 
     82 H82        21.1117  -23.3726  -42.3876 H         1 UNK         0.0851 
     83 H83        20.9382  -23.3826  -44.1332 H         1 UNK         0.0851 
     84 H84        18.8355  -25.9476  -44.6504 H         1 UNK         0.2976 
     85 H85        21.3096  -29.0643  -40.2974 H         1 UNK         0.3116 
     86 H86        23.0240  -29.5092  -38.9980 H         1 UNK         0.0646 
     87 H87        21.6013  -28.1431  -36.6551 H         1 UNK         0.0847 
     88 H88        23.0037  -29.1927  -36.5500 H         1 UNK         0.0847 
     89 H89        21.4656  -29.8482  -37.0860 H         1 UNK         0.0847 
     90 H90        22.0309  -26.2082  -39.2469 H         1 UNK         0.3040 
     91 H91        24.4332  -24.9035  -38.4191 H         1 UNK         0.1015 
     92 H92        22.2503  -24.0306  -40.3891 H         1 UNK         0.0786 
     93 H93        23.4804  -22.9715  -39.7119 H         1 UNK         0.0786 
     94 H94        22.2792  -23.7022  -38.6582 H         1 UNK         0.0786 
     95 H95        23.4056  -26.2760  -41.5467 H         1 UNK         0.3172 
     96 H96        26.2577  -26.3212  -42.3611 H         1 UNK         0.0595 
     97 H97        24.0556  -25.3031  -44.2200 H         1 UNK         0.0839 
     98 H98        25.7268  -25.5942  -44.6620 H         1 UNK         0.0839 
     99 H99        25.3374  -24.3254  -43.5113 H         1 UNK         0.0839 
    100 H100       23.0138  -27.8251  -42.5148 H         1 UNK         0.2998 
    101 H101       24.4051  -30.3415  -43.2296 H         1 UNK         0.0822 
    102 H102       23.4449  -29.4488  -45.3808 H         1 UNK         0.0787 
    103 H103       22.6293  -30.9155  -44.8585 H         1 UNK         0.0787 
    104 H104       21.8562  -29.3537  -44.6235 H         1 UNK         0.0787 
    105 H105       23.9159  -31.7733  -41.6741 H         1 UNK         0.3055 
    106 H106       21.5481  -31.4002  -39.9411 H         1 UNK         0.1106 
    107 H107       22.5347  -33.2780  -38.6539 H         1 UNK         0.0828 
    108 H108       23.8072  -33.4702  -39.8517 H         1 UNK         0.0828 
    109 H109       23.7098  -31.9971  -38.8897 H         1 UNK         0.0828 
    110 H110       22.8479  -33.7862  -42.2231 H         1 UNK         0.2931 
    111 H111       22.1440  -35.5750  -43.1843 H         1 UNK         0.0412 
    112 H112       21.3315  -35.7175  -40.2784 H         1 UNK         0.3472 
    113 H113       20.1973  -37.0451  -40.2940 H         1 UNK         0.3472 
    114 H114       20.3728  -35.3857  -44.8021 H         1 UNK         0.0970 
    115 H115       21.3029  -33.9323  -44.7264 H         1 UNK         0.0970 
    116 H116       20.3989  -31.6705  -43.4666 H         1 UNK         0.0612 
    117 H117       20.1486  -31.8406  -45.1865 H         1 UNK         0.0612 
@<TRIPOS>BOND
     1    1    2 1    
     2    1   62 1    
     3    1   63 1    
     4    1   64 1    
     5    2    3 2    
     6    2    4 am   BACKBONE|DICT|INTERRES
     7    4    5 1    
     8    4   65 1    
     9    5    6 1    
    10    5   25 1    
    11    5   66 1    
    12    6    7 1    
    13    6   67 1    
    14    6   68 1    
    15    7    8 1    
    16    8    9 1    
    17    8   69 1    
    18    8   70 1    
    19    9   10 ar   
    20    9   14 ar   
    21   10   11 ar   
    22   10   71 1    
    23   11   12 ar   
    24   11   61 1    
    25   12   13 ar   
    26   12   72 1    
    27   13   14 ar   
    28   13   15 1    
    29   14   73 1    
    30   15   16 1    
    31   15   74 1    
    32   15   75 1    
    33   16   17 1    
    34   17   18 1    
    35   17   76 1    
    36   17   77 1    
    37   18   19 1    
    38   18   27 1    
    39   18   78 1    
    40   19   20 am   BACKBONE|DICT|INTERRES
    41   19   79 1    
    42   20   21 2    
    43   20   22 1    
    44   22   23 1    
    45   22   24 1    
    46   22   80 1    
    47   23   81 1    
    48   23   82 1    
    49   23   83 1    
    50   24   25 am   BACKBONE|DICT|INTERRES
    51   24   84 1    
    52   25   26 2    
    53   27   28 2    
    54   27   29 am   BACKBONE|DICT|INTERRES
    55   29   30 1    
    56   29   85 1    
    57   30   31 1    
    58   30   32 1    
    59   30   86 1    
    60   31   87 1    
    61   31   88 1    
    62   31   89 1    
    63   32   33 2    
    64   32   34 am   BACKBONE|DICT|INTERRES
    65   34   35 1    
    66   34   90 1    
    67   35   36 1    
    68   35   37 1    
    69   35   91 1    
    70   36   92 1    
    71   36   93 1    
    72   36   94 1    
    73   37   38 2    
    74   37   39 am   BACKBONE|DICT|INTERRES
    75   39   40 1    
    76   39   95 1    
    77   40   41 1    
    78   40   42 1    
    79   40   96 1    
    80   41   97 1    
    81   41   98 1    
    82   41   99 1    
    83   42   43 2    
    84   42   44 am   BACKBONE|DICT|INTERRES
    85   44   45 1    
    86   44  100 1    
    87   45   46 1    
    88   45   47 1    
    89   45  101 1    
    90   46  102 1    
    91   46  103 1    
    92   46  104 1    
    93   47   48 2    
    94   47   49 am   BACKBONE|DICT|INTERRES
    95   49   50 1    
    96   49  105 1    
    97   50   51 1    
    98   50   52 1    
    99   50  106 1    
   100   51  107 1    
   101   51  108 1    
   102   51  109 1    
   103   52   53 2    
   104   52   54 am   BACKBONE|DICT|INTERRES
   105   54   55 1    
   106   54  110 1    
   107   55   56 1    
   108   55   59 1    
   109   55  111 1    
   110   56   57 am   BACKBONE|DICT|INTERRES
   111   56   58 2    
   112   57  112 1    
   113   57  113 1    
   114   59   60 1    
   115   59  114 1    
   116   59  115 1    
   117   60   61 1    
   118   61  116 1    
   119   61  117 1    
@<TRIPOS>SUBSTRUCTURE
     1 UNK         1 GROUP             0       ****    0 ROOT    
