@<TRIPOS>MOLECULE
3R8
117   119    1
SMALL
USER_CHARGES


@<TRIPOS>ATOM
      1 CA         15.0294  -25.2212  -49.1091 C.3       0 UNK        -0.2013 
      2 C          14.8858  -24.2507  -47.9398 C.2       0 UNK         0.4866 
      3 O          14.0411  -23.3588  -47.9943 O.2       0 UNK        -0.5176 
      4 N          15.6796  -24.3744  -46.8703 N.am      1 UNK        -0.4884 
      5 CA         16.7565  -25.3421  -46.6684 C.3       1 UNK         0.0853 
      6 C6         16.2279  -26.6695  -46.0692 C.3       10 UNK        -0.0849 
      7 S7         17.3526  -28.0745  -46.3663 S.3       10 UNK        -0.2776 
      8 C8         16.6080  -29.3577  -45.3077 C.3       10 UNK         0.0316 
      9 C9         17.1461  -29.3094  -43.8837 C.ar      10 UNK        -0.0863 
     10 C10        18.1928  -30.1522  -43.4977 C.ar      10 UNK        -0.1009 
     11 C11        18.6667  -30.1468  -42.1806 C.ar      10 UNK        -0.0712 
     12 C12        18.1148  -29.2509  -41.2575 C.ar      10 UNK        -0.0894 
     13 C13        17.0890  -28.3801  -41.6409 C.ar      10 UNK        -0.0745 
     14 C14        16.5889  -28.4389  -42.9438 C.ar      10 UNK        -0.0972 
     15 C15        16.5190  -27.3613  -40.6637 C.3       10 UNK         0.0209 
     16 S16        16.9895  -25.6577  -41.1230 S.3       10 UNK        -0.2568 
     17 C17        18.7028  -25.5551  -40.5058 C.3       10 UNK        -0.0983 
     18 CA         19.7568  -26.0003  -41.5485 C.3       3 UNK         0.0876 
     19 N          19.7160  -25.2124  -42.7908 N.am      3 UNK        -0.4424 
     20 C          20.3654  -25.5422  -43.9159 C.2       2 UNK         0.4918 
     21 O          21.0854  -26.5365  -44.0199 O.2       2 UNK        -0.4875 
     22 CA         20.1944  -24.6008  -45.1151 C.3       2 UNK         0.0481 
     23 CB         21.4637  -24.5479  -45.9850 C.3       2 UNK        -0.1831 
     24 N          19.0741  -25.0600  -45.9296 N.am      2 UNK        -0.4498 
     25 C          17.8033  -24.6821  -45.7545 C.2       1 UNK         0.5027 
     26 O          17.4416  -23.8565  -44.9101 O.2       1 UNK        -0.4969 
     27 C          21.1595  -26.0882  -40.9064 C.2       3 UNK         0.5005 
     28 O          21.3858  -26.9759  -40.0852 O.2       3 UNK        -0.5279 
     29 N          22.1029  -25.2334  -41.3331 N.am      4 UNK        -0.4463 
     30 CA         23.5358  -25.3208  -41.0240 C.3       4 UNK         0.0283 
     31 CB         24.2625  -24.1301  -41.6696 C.3       4 UNK        -0.1875 
     32 C          24.1937  -26.6491  -41.4574 C.2       4 UNK         0.4949 
     33 O          25.2374  -27.0077  -40.9125 O.2       4 UNK        -0.5039 
     34 N          23.5607  -27.3768  -42.3913 N.am      5 UNK        -0.4663 
     35 CA         23.9324  -28.7302  -42.8078 C.3       5 UNK         0.0242 
     36 CB         23.1418  -29.0979  -44.0741 C.3       5 UNK        -0.1982 
     37 C          23.7233  -29.8093  -41.7281 C.2       5 UNK         0.5017 
     38 O          24.2095  -30.9235  -41.9232 O.2       5 UNK        -0.5012 
     39 N          23.0287  -29.4917  -40.6208 N.am      6 UNK        -0.4439 
     40 CA         22.6817  -30.3962  -39.5115 C.3       6 UNK         0.0297 
     41 CB         21.7906  -29.6566  -38.5006 C.3       6 UNK        -0.2006 
     42 C          23.8496  -31.0989  -38.7923 C.2       6 UNK         0.4892 
     43 O          23.5965  -32.0166  -38.0109 O.2       6 UNK        -0.5089 
     44 N          25.0965  -30.7113  -39.0925 N.am      7 UNK        -0.4243 
     45 CA         26.3092  -31.4569  -38.7448 C.3       7 UNK         0.0196 
     46 CB         27.5391  -30.6255  -39.1429 C.3       7 UNK        -0.2007 
     47 C          26.3727  -32.8575  -39.3924 C.2       7 UNK         0.5020 
     48 O          27.0464  -33.7334  -38.8488 O.2       7 UNK        -0.5147 
     49 N          25.6710  -33.0508  -40.5190 N.am      8 UNK        -0.4734 
     50 CA         25.5185  -34.3389  -41.1994 C.3       8 UNK         0.0238 
     51 CB         26.4800  -34.4115  -42.3979 C.3       8 UNK        -0.1912 
     52 C          24.0678  -34.5839  -41.6426 C.2       8 UNK         0.5038 
     53 O          23.5678  -35.6945  -41.4619 O.2       8 UNK        -0.5046 
     54 N          23.4216  -33.5556  -42.2116 N.am      9 UNK        -0.4200 
     55 CA         22.0608  -33.5793  -42.7748 C.3       9 UNK         0.0839 
     56 C          21.8686  -34.5788  -43.9595 C.2       9 UNK         0.5513 
     57 N          22.9085  -34.8688  -44.7330 N.am      9 UNK        -0.7519 
     58 O          20.7767  -35.0882  -44.1976 O.2       9 UNK        -0.4960 
     59 C59        20.9697  -33.6662  -41.6670 C.3       10 UNK        -0.0876 
     60 S60        19.4101  -32.8323  -42.1285 S.3       10 UNK        -0.2414 
     61 C61        19.7906  -31.0872  -41.7610 C.3       10 UNK         0.0169 
     62 H62        15.0891  -26.2551  -48.7725 H         1 UNK         0.0903 
     63 H63        14.1705  -25.1437  -49.7754 H         1 UNK         0.0903 
     64 H64        15.9228  -24.9894  -49.6882 H         1 UNK         0.0903 
     65 H65        15.6119  -23.6991  -46.1175 H         1 UNK         0.3096 
     66 H66        17.2365  -25.5345  -47.6304 H         1 UNK         0.1121 
     67 H67        15.2666  -26.9331  -46.5120 H         1 UNK         0.0849 
     68 H68        16.0345  -26.5538  -45.0034 H         1 UNK         0.0849 
     69 H69        15.5213  -29.2585  -45.3056 H         1 UNK         0.0865 
     70 H70        16.8165  -30.3339  -45.7483 H         1 UNK         0.0865 
     71 H71        18.6294  -30.8302  -44.2186 H         1 UNK         0.1346 
     72 H72        18.4946  -29.2179  -40.2454 H         1 UNK         0.1412 
     73 H73        15.7732  -27.7881  -43.2228 H         1 UNK         0.1426 
     74 H74        16.8346  -27.5732  -39.6410 H         1 UNK         0.0716 
     75 H75        15.4307  -27.4367  -40.6677 H         1 UNK         0.0716 
     76 H76        18.7765  -26.1570  -39.5977 H         1 UNK         0.0695 
     77 H77        18.8895  -24.5247  -40.1984 H         1 UNK         0.0695 
     78 H78        19.5217  -27.0238  -41.8404 H         1 UNK         0.0983 
     79 H79        19.1006  -24.4104  -42.7955 H         1 UNK         0.3095 
     80 H80        20.0048  -23.5909  -44.7448 H         1 UNK         0.0454 
     81 H81        21.7041  -25.5197  -46.4186 H         1 UNK         0.0851 
     82 H82        22.3264  -24.2324  -45.3969 H         1 UNK         0.0851 
     83 H83        21.3526  -23.8363  -46.8031 H         1 UNK         0.0851 
     84 H84        19.2770  -25.7943  -46.5941 H         1 UNK         0.2976 
     85 H85        21.8275  -24.5287  -42.0012 H         1 UNK         0.3116 
     86 H86        23.6434  -25.2450  -39.9401 H         1 UNK         0.0646 
     87 H87        24.1708  -24.1416  -42.7565 H         1 UNK         0.0847 
     88 H88        25.3275  -24.1486  -41.4333 H         1 UNK         0.0847 
     89 H89        23.8706  -23.1796  -41.3074 H         1 UNK         0.0847 
     90 H90        22.7165  -27.0007  -42.8111 H         1 UNK         0.3040 
     91 H91        24.9964  -28.7267  -43.0541 H         1 UNK         0.1015 
     92 H92        22.0681  -29.1314  -43.8832 H         1 UNK         0.0786 
     93 H93        23.4363  -30.0781  -44.4520 H         1 UNK         0.0786 
     94 H94        23.3155  -28.3781  -44.8743 H         1 UNK         0.0786 
     95 H95        22.6562  -28.5496  -40.5473 H         1 UNK         0.3172 
     96 H96        22.0943  -31.2029  -39.9455 H         1 UNK         0.0595 
     97 H97        21.5150  -30.3017  -37.6652 H         1 UNK         0.0839 
     98 H98        20.8612  -29.3220  -38.9608 H         1 UNK         0.0839 
     99 H99        22.2943  -28.7826  -38.0861 H         1 UNK         0.0839 
    100 H100       25.2064  -29.9398  -39.7352 H         1 UNK         0.2998 
    101 H101       26.3191  -31.5950  -37.6615 H         1 UNK         0.0822 
    102 H102       28.4622  -31.1401  -38.8721 H         1 UNK         0.0787 
    103 H103       27.5710  -30.4421  -40.2178 H         1 UNK         0.0787 
    104 H104       27.5473  -29.6600  -38.6364 H         1 UNK         0.0787 
    105 H105       25.1484  -32.2668  -40.8993 H         1 UNK         0.3055 
    106 H106       25.7707  -35.1495  -40.5113 H         1 UNK         0.1106 
    107 H107       26.3679  -35.3551  -42.9338 H         1 UNK         0.0828 
    108 H108       26.3016  -33.6050  -43.1100 H         1 UNK         0.0828 
    109 H109       27.5186  -34.3458  -42.0734 H         1 UNK         0.0828 
    110 H110       23.8937  -32.6588  -42.2916 H         1 UNK         0.2931 
    111 H111       21.9667  -32.5981  -43.2410 H         1 UNK         0.0412 
    112 H112       23.8094  -34.4534  -44.5584 H         1 UNK         0.3472 
    113 H113       22.7882  -35.5110  -45.5007 H         1 UNK         0.3472 
    114 H114       21.3259  -33.2195  -40.7389 H         1 UNK         0.0970 
    115 H115       20.7569  -34.7079  -41.4206 H         1 UNK         0.0970 
    116 H116       19.9716  -30.9970  -40.6905 H         1 UNK         0.0612 
    117 H117       20.7090  -30.7913  -42.2689 H         1 UNK         0.0612 
@<TRIPOS>BOND
     1    1    2 1    
     2    1   62 1    
     3    1   63 1    
     4    1   64 1    
     5    2    3 2    
     6    2    4 am   BACKBONE|DICT|INTERRES
     7    4    5 1    
     8    4   65 1    
     9    5    6 1    
    10    5   25 1    
    11    5   66 1    
    12    6    7 1    
    13    6   67 1    
    14    6   68 1    
    15    7    8 1    
    16    8    9 1    
    17    8   69 1    
    18    8   70 1    
    19    9   10 ar   
    20    9   14 ar   
    21   10   11 ar   
    22   10   71 1    
    23   11   12 ar   
    24   11   61 1    
    25   12   13 ar   
    26   12   72 1    
    27   13   14 ar   
    28   13   15 1    
    29   14   73 1    
    30   15   16 1    
    31   15   74 1    
    32   15   75 1    
    33   16   17 1    
    34   17   18 1    
    35   17   76 1    
    36   17   77 1    
    37   18   19 1    
    38   18   27 1    
    39   18   78 1    
    40   19   20 am   BACKBONE|DICT|INTERRES
    41   19   79 1    
    42   20   21 2    
    43   20   22 1    
    44   22   23 1    
    45   22   24 1    
    46   22   80 1    
    47   23   81 1    
    48   23   82 1    
    49   23   83 1    
    50   24   25 am   BACKBONE|DICT|INTERRES
    51   24   84 1    
    52   25   26 2    
    53   27   28 2    
    54   27   29 am   BACKBONE|DICT|INTERRES
    55   29   30 1    
    56   29   85 1    
    57   30   31 1    
    58   30   32 1    
    59   30   86 1    
    60   31   87 1    
    61   31   88 1    
    62   31   89 1    
    63   32   33 2    
    64   32   34 am   BACKBONE|DICT|INTERRES
    65   34   35 1    
    66   34   90 1    
    67   35   36 1    
    68   35   37 1    
    69   35   91 1    
    70   36   92 1    
    71   36   93 1    
    72   36   94 1    
    73   37   38 2    
    74   37   39 am   BACKBONE|DICT|INTERRES
    75   39   40 1    
    76   39   95 1    
    77   40   41 1    
    78   40   42 1    
    79   40   96 1    
    80   41   97 1    
    81   41   98 1    
    82   41   99 1    
    83   42   43 2    
    84   42   44 am   BACKBONE|DICT|INTERRES
    85   44   45 1    
    86   44  100 1    
    87   45   46 1    
    88   45   47 1    
    89   45  101 1    
    90   46  102 1    
    91   46  103 1    
    92   46  104 1    
    93   47   48 2    
    94   47   49 am   BACKBONE|DICT|INTERRES
    95   49   50 1    
    96   49  105 1    
    97   50   51 1    
    98   50   52 1    
    99   50  106 1    
   100   51  107 1    
   101   51  108 1    
   102   51  109 1    
   103   52   53 2    
   104   52   54 am   BACKBONE|DICT|INTERRES
   105   54   55 1    
   106   54  110 1    
   107   55   56 1    
   108   55   59 1    
   109   55  111 1    
   110   56   57 am   BACKBONE|DICT|INTERRES
   111   56   58 2    
   112   57  112 1    
   113   57  113 1    
   114   59   60 1    
   115   59  114 1    
   116   59  115 1    
   117   60   61 1    
   118   61  116 1    
   119   61  117 1    
@<TRIPOS>SUBSTRUCTURE
     1 UNK         1 GROUP             0       ****    0 ROOT    
