@<TRIPOS>MOLECULE
3R8
117   119    1
SMALL
USER_CHARGES


@<TRIPOS>ATOM
      1 CA         21.3226  -31.6390  -48.0669 C.3       0 UNK        -0.2013 
      2 C          20.5422  -30.3365  -47.9727 C.2       0 UNK         0.4866 
      3 O          20.7147  -29.4590  -48.8184 O.2       0 UNK        -0.5176 
      4 N          19.6917  -30.2105  -46.9459 N.am      1 UNK        -0.4884 
      5 CA         18.8977  -29.0232  -46.6087 C.3       1 UNK         0.0853 
      6 C6         17.8978  -28.6180  -47.7268 C.3       10 UNK        -0.0849 
      7 S7         16.4514  -27.6702  -47.1396 S.3       10 UNK        -0.2776 
      8 C8         15.4054  -28.9536  -46.3735 C.3       10 UNK         0.0316 
      9 C9         15.6915  -29.0930  -44.8838 C.ar      10 UNK        -0.0863 
     10 C10        16.2956  -30.2463  -44.3734 C.ar      10 UNK        -0.1009 
     11 C11        16.5795  -30.3578  -43.0082 C.ar      10 UNK        -0.0712 
     12 C12        16.2029  -29.3208  -42.1457 C.ar      10 UNK        -0.0894 
     13 C13        15.6189  -28.1528  -42.6449 C.ar      10 UNK        -0.0745 
     14 C14        15.3563  -28.0522  -44.0135 C.ar      10 UNK        -0.0972 
     15 C15        15.2855  -26.9834  -41.7233 C.3       10 UNK         0.0209 
     16 S16        16.6720  -26.4626  -40.6506 S.3       10 UNK        -0.2568 
     17 C17        18.0775  -26.3031  -41.8091 C.3       10 UNK        -0.0983 
     18 CA         19.2209  -27.3005  -41.4539 C.3       3 UNK         0.0876 
     19 N          20.0472  -27.6238  -42.6202 N.am      3 UNK        -0.4424 
     20 C          20.9471  -26.8220  -43.2103 C.2       2 UNK         0.4918 
     21 O          21.2294  -25.6925  -42.8086 O.2       2 UNK        -0.4875 
     22 CA         21.6331  -27.3617  -44.4785 C.3       2 UNK         0.0481 
     23 CB         22.9406  -28.0873  -44.1303 C.3       2 UNK        -0.1831 
     24 N          20.7635  -28.2714  -45.2264 N.am      2 UNK        -0.4498 
     25 C          19.7830  -27.8849  -46.0558 C.2       1 UNK         0.5027 
     26 O          19.5762  -26.7107  -46.3667 O.2       1 UNK        -0.4969 
     27 C          20.0903  -26.8980  -40.2370 C.2       3 UNK         0.5005 
     28 O          20.9206  -27.6959  -39.7951 O.2       3 UNK        -0.5279 
     29 N          19.9133  -25.6670  -39.7352 N.am      4 UNK        -0.4463 
     30 CA         20.6271  -25.0745  -38.5993 C.3       4 UNK         0.0283 
     31 CB         20.0132  -23.6997  -38.2889 C.3       4 UNK        -0.1875 
     32 C          22.1536  -24.9526  -38.7755 C.2       4 UNK         0.4949 
     33 O          22.8528  -24.7872  -37.7760 O.2       4 UNK        -0.5039 
     34 N          22.6554  -25.0592  -40.0152 N.am      5 UNK        -0.4663 
     35 CA         24.0879  -25.1142  -40.3264 C.3       5 UNK         0.0242 
     36 CB         24.3047  -24.7002  -41.7916 C.3       5 UNK        -0.1982 
     37 C          24.7375  -26.4835  -40.0283 C.2       5 UNK         0.5017 
     38 O          25.9459  -26.6141  -40.2274 O.2       5 UNK        -0.5012 
     39 N          23.9499  -27.4646  -39.5570 N.am      6 UNK        -0.4439 
     40 CA         24.3363  -28.8374  -39.2203 C.3       6 UNK         0.0297 
     41 CB         25.4165  -28.8843  -38.1141 C.3       6 UNK        -0.2006 
     42 C          24.6725  -29.6268  -40.4943 C.2       6 UNK         0.4892 
     43 O          23.7872  -29.7643  -41.3361 O.2       6 UNK        -0.5089 
     44 N          25.9009  -30.1568  -40.6100 N.am      7 UNK        -0.4243 
     45 CA         26.4229  -30.9201  -41.7566 C.3       7 UNK         0.0196 
     46 CB         26.6372  -29.9823  -42.9646 C.3       7 UNK        -0.2007 
     47 C          25.5578  -32.1492  -42.1079 C.2       7 UNK         0.5020 
     48 O          25.2408  -32.3740  -43.2775 O.2       7 UNK        -0.5147 
     49 N          25.1360  -32.8863  -41.0677 N.am      8 UNK        -0.4734 
     50 CA         24.2031  -34.0256  -41.1084 C.3       8 UNK         0.0238 
     51 CB         24.8416  -35.2290  -41.8352 C.3       8 UNK        -0.1912 
     52 C          22.8088  -33.6678  -41.6711 C.2       8 UNK         0.5038 
     53 O          22.1132  -34.5452  -42.1851 O.2       8 UNK        -0.5046 
     54 N          22.4320  -32.3864  -41.5636 N.am      9 UNK        -0.4200 
     55 CA         21.2339  -31.7661  -42.1419 C.3       9 UNK         0.0839 
     56 C          21.3068  -31.5462  -43.6819 C.2       9 UNK         0.5513 
     57 N          22.4438  -31.7554  -44.3363 N.am      9 UNK        -0.7519 
     58 O          20.3333  -31.1157  -44.2940 O.2       9 UNK        -0.4960 
     59 C59        19.9077  -32.4238  -41.6570 C.3       10 UNK        -0.0876 
     60 S60        18.6257  -31.1786  -41.2968 S.3       10 UNK        -0.2414 
     61 C61        17.3050  -31.5948  -42.4860 C.3       10 UNK         0.0169 
     62 H62        21.1187  -32.1292  -49.0185 H         1 UNK         0.0903 
     63 H63        21.0595  -32.3317  -47.2673 H         1 UNK         0.0903 
     64 H64        22.3925  -31.4411  -48.0087 H         1 UNK         0.0903 
     65 H65        19.6643  -30.9413  -46.2415 H         1 UNK         0.3096 
     66 H66        18.3140  -29.3349  -45.7475 H         1 UNK         0.1121 
     67 H67        17.5234  -29.5088  -48.2334 H         1 UNK         0.0849 
     68 H68        18.4037  -28.0359  -48.4991 H         1 UNK         0.0849 
     69 H69        14.3586  -28.6754  -46.5050 H         1 UNK         0.0865 
     70 H70        15.5320  -29.9047  -46.8930 H         1 UNK         0.0865 
     71 H71        16.5684  -31.0494  -45.0448 H         1 UNK         0.1346 
     72 H72        16.4030  -29.4020  -41.0863 H         1 UNK         0.1412 
     73 H73        14.9035  -27.1539  -44.4113 H         1 UNK         0.1426 
     74 H74        14.4395  -27.2613  -41.0936 H         1 UNK         0.0716 
     75 H75        14.9641  -26.1173  -42.3040 H         1 UNK         0.0716 
     76 H76        18.4212  -25.2683  -41.8432 H         1 UNK         0.0695 
     77 H77        17.7184  -26.5030  -42.8194 H         1 UNK         0.0695 
     78 H78        18.7585  -28.2463  -41.1723 H         1 UNK         0.0983 
     79 H79        19.9045  -28.5447  -43.0075 H         1 UNK         0.3095 
     80 H80        21.8819  -26.5076  -45.1118 H         1 UNK         0.0454 
     81 H81        22.7563  -28.9740  -43.5269 H         1 UNK         0.0851 
     82 H82        23.6145  -27.4471  -43.5620 H         1 UNK         0.0851 
     83 H83        23.4728  -28.4012  -45.0281 H         1 UNK         0.0851 
     84 H84        20.8522  -29.2629  -45.0328 H         1 UNK         0.2976 
     85 H85        19.2066  -25.0885  -40.1669 H         1 UNK         0.3116 
     86 H86        20.4587  -25.7249  -37.7387 H         1 UNK         0.0646 
     87 H87        20.1275  -23.0087  -39.1252 H         1 UNK         0.0847 
     88 H88        20.4935  -23.2429  -37.4223 H         1 UNK         0.0847 
     89 H89        18.9503  -23.7798  -38.0601 H         1 UNK         0.0847 
     90 H90        22.0174  -25.1992  -40.7909 H         1 UNK         0.3040 
     91 H91        24.6026  -24.3842  -39.6976 H         1 UNK         0.1015 
     92 H92        23.8512  -25.4082  -42.4829 H         1 UNK         0.0786 
     93 H93        25.3676  -24.6483  -42.0316 H         1 UNK         0.0786 
     94 H94        23.8805  -23.7165  -41.9937 H         1 UNK         0.0786 
     95 H95        22.9504  -27.2883  -39.5219 H         1 UNK         0.3172 
     96 H96        23.4384  -29.3029  -38.8110 H         1 UNK         0.0595 
     97 H97        26.3678  -28.4586  -38.4338 H         1 UNK         0.0839 
     98 H98        25.6044  -29.9096  -37.7928 H         1 UNK         0.0839 
     99 H99        25.0922  -28.3317  -37.2322 H         1 UNK         0.0839 
    100 H100       26.5537  -29.9942  -39.8559 H         1 UNK         0.2998 
    101 H101       27.3987  -31.3072  -41.4595 H         1 UNK         0.0822 
    102 H102       27.2674  -29.1330  -42.7006 H         1 UNK         0.0787 
    103 H103       27.1268  -30.5067  -43.7862 H         1 UNK         0.0787 
    104 H104       25.6924  -29.5917  -43.3449 H         1 UNK         0.0787 
    105 H105       25.4408  -32.6060  -40.1451 H         1 UNK         0.3055 
    106 H106       24.0338  -34.3213  -40.0716 H         1 UNK         0.1106 
    107 H107       24.9713  -35.0369  -42.9007 H         1 UNK         0.0828 
    108 H108       24.2193  -36.1199  -41.7408 H         1 UNK         0.0828 
    109 H109       25.8178  -35.4737  -41.4168 H         1 UNK         0.0828 
    110 H110       23.1009  -31.7190  -41.1979 H         1 UNK         0.2931 
    111 H111       21.2689  -30.7554  -41.7333 H         1 UNK         0.0412 
    112 H112       22.4849  -31.5996  -45.3284 H         1 UNK         0.3472 
    113 H113       23.2800  -32.0531  -43.8461 H         1 UNK         0.3472 
    114 H114       20.0723  -32.9647  -40.7241 H         1 UNK         0.0970 
    115 H115       19.5513  -33.1735  -42.3653 H         1 UNK         0.0970 
    116 H116       17.7365  -32.1464  -43.3224 H         1 UNK         0.0612 
    117 H117       16.5870  -32.2608  -42.0063 H         1 UNK         0.0612 
@<TRIPOS>BOND
     1    1    2 1    
     2    1   62 1    
     3    1   63 1    
     4    1   64 1    
     5    2    3 2    
     6    2    4 am   BACKBONE|DICT|INTERRES
     7    4    5 1    
     8    4   65 1    
     9    5    6 1    
    10    5   25 1    
    11    5   66 1    
    12    6    7 1    
    13    6   67 1    
    14    6   68 1    
    15    7    8 1    
    16    8    9 1    
    17    8   69 1    
    18    8   70 1    
    19    9   10 ar   
    20    9   14 ar   
    21   10   11 ar   
    22   10   71 1    
    23   11   12 ar   
    24   11   61 1    
    25   12   13 ar   
    26   12   72 1    
    27   13   14 ar   
    28   13   15 1    
    29   14   73 1    
    30   15   16 1    
    31   15   74 1    
    32   15   75 1    
    33   16   17 1    
    34   17   18 1    
    35   17   76 1    
    36   17   77 1    
    37   18   19 1    
    38   18   27 1    
    39   18   78 1    
    40   19   20 am   BACKBONE|DICT|INTERRES
    41   19   79 1    
    42   20   21 2    
    43   20   22 1    
    44   22   23 1    
    45   22   24 1    
    46   22   80 1    
    47   23   81 1    
    48   23   82 1    
    49   23   83 1    
    50   24   25 am   BACKBONE|DICT|INTERRES
    51   24   84 1    
    52   25   26 2    
    53   27   28 2    
    54   27   29 am   BACKBONE|DICT|INTERRES
    55   29   30 1    
    56   29   85 1    
    57   30   31 1    
    58   30   32 1    
    59   30   86 1    
    60   31   87 1    
    61   31   88 1    
    62   31   89 1    
    63   32   33 2    
    64   32   34 am   BACKBONE|DICT|INTERRES
    65   34   35 1    
    66   34   90 1    
    67   35   36 1    
    68   35   37 1    
    69   35   91 1    
    70   36   92 1    
    71   36   93 1    
    72   36   94 1    
    73   37   38 2    
    74   37   39 am   BACKBONE|DICT|INTERRES
    75   39   40 1    
    76   39   95 1    
    77   40   41 1    
    78   40   42 1    
    79   40   96 1    
    80   41   97 1    
    81   41   98 1    
    82   41   99 1    
    83   42   43 2    
    84   42   44 am   BACKBONE|DICT|INTERRES
    85   44   45 1    
    86   44  100 1    
    87   45   46 1    
    88   45   47 1    
    89   45  101 1    
    90   46  102 1    
    91   46  103 1    
    92   46  104 1    
    93   47   48 2    
    94   47   49 am   BACKBONE|DICT|INTERRES
    95   49   50 1    
    96   49  105 1    
    97   50   51 1    
    98   50   52 1    
    99   50  106 1    
   100   51  107 1    
   101   51  108 1    
   102   51  109 1    
   103   52   53 2    
   104   52   54 am   BACKBONE|DICT|INTERRES
   105   54   55 1    
   106   54  110 1    
   107   55   56 1    
   108   55   59 1    
   109   55  111 1    
   110   56   57 am   BACKBONE|DICT|INTERRES
   111   56   58 2    
   112   57  112 1    
   113   57  113 1    
   114   59   60 1    
   115   59  114 1    
   116   59  115 1    
   117   60   61 1    
   118   61  116 1    
   119   61  117 1    
@<TRIPOS>SUBSTRUCTURE
     1 UNK         1 GROUP             0       ****    0 ROOT    
