@<TRIPOS>MOLECULE
3R8
117   119    1
SMALL
USER_CHARGES


@<TRIPOS>ATOM
      1 CA         15.7625  -23.4039  -44.7230 C.3       0 UNK        -0.2013 
      2 C          16.4062  -24.7737  -44.5731 C.2       0 UNK         0.4866 
      3 O          17.2846  -25.1280  -45.3601 O.2       0 UNK        -0.5176 
      4 N          15.9872  -25.5455  -43.5621 N.am      1 UNK        -0.4884 
      5 CA         16.4675  -26.9001  -43.2562 C.3       1 UNK         0.0853 
      6 C6         15.4177  -27.7010  -42.4434 C.3       10 UNK        -0.0849 
      7 S7         14.0340  -28.2084  -43.5151 S.3       10 UNK        -0.2776 
      8 C8         14.4159  -29.9726  -43.7848 C.3       10 UNK         0.0316 
      9 C9         15.8312  -30.2065  -44.3059 C.ar      10 UNK        -0.0863 
     10 C10        16.7744  -30.8665  -43.5094 C.ar      10 UNK        -0.1009 
     11 C11        18.0578  -31.1315  -43.9966 C.ar      10 UNK        -0.0712 
     12 C12        18.3939  -30.7252  -45.2909 C.ar      10 UNK        -0.0894 
     13 C13        17.4762  -30.0328  -46.0853 C.ar      10 UNK        -0.0745 
     14 C14        16.1914  -29.7861  -45.5905 C.ar      10 UNK        -0.0972 
     15 C15        17.8579  -29.5824  -47.4886 C.3       10 UNK         0.0209 
     16 S16        18.7612  -27.9993  -47.4789 S.3       10 UNK        -0.2568 
     17 C17        20.4919  -28.5489  -47.2785 C.3       10 UNK        -0.0983 
     18 CA         21.3335  -27.6141  -46.3751 C.3       3 UNK         0.0876 
     19 N          20.7070  -27.3706  -45.0673 N.am      3 UNK        -0.4424 
     20 C          21.1336  -26.4738  -44.1642 C.2       2 UNK         0.4918 
     21 O          22.1674  -25.8184  -44.2973 O.2       2 UNK        -0.4875 
     22 CA         20.2509  -26.2644  -42.9237 C.3       2 UNK         0.0481 
     23 CB         20.5248  -24.9315  -42.2033 C.3       2 UNK        -0.1831 
     24 N          18.8436  -26.3440  -43.3046 N.am      2 UNK        -0.4498 
     25 C          17.8557  -26.8811  -42.5842 C.2       1 UNK         0.5027 
     26 O          18.0092  -27.3460  -41.4540 O.2       1 UNK        -0.4969 
     27 C          22.7819  -28.1380  -46.2667 C.2       3 UNK         0.5005 
     28 O          23.6138  -27.7945  -47.1078 O.2       3 UNK        -0.5279 
     29 N          23.0586  -28.9301  -45.2217 N.am      4 UNK        -0.4463 
     30 CA         24.3882  -29.4342  -44.8662 C.3       4 UNK         0.0283 
     31 CB         24.2953  -30.9501  -44.6182 C.3       4 UNK        -0.1875 
     32 C          24.9665  -28.6885  -43.6470 C.2       4 UNK         0.4949 
     33 O          25.8208  -29.2361  -42.9490 O.2       4 UNK        -0.5039 
     34 N          24.4894  -27.4596  -43.3947 N.am      5 UNK        -0.4663 
     35 CA         24.7995  -26.6171  -42.2365 C.3       5 UNK         0.0242 
     36 CB         26.2649  -26.1239  -42.2882 C.3       5 UNK        -0.1982 
     37 C          24.3986  -27.3213  -40.9264 C.2       5 UNK         0.5017 
     38 O          23.2326  -27.6888  -40.7855 O.2       5 UNK        -0.5012 
     39 N          25.3541  -27.4992  -40.0064 N.am      6 UNK        -0.4439 
     40 CA         25.1580  -28.1444  -38.7071 C.3       6 UNK         0.0297 
     41 CB         26.1781  -27.5626  -37.7129 C.3       6 UNK        -0.2006 
     42 C          25.2615  -29.6817  -38.7484 C.2       6 UNK         0.4892 
     43 O          25.0165  -30.3126  -37.7185 O.2       6 UNK        -0.5089 
     44 N          25.6471  -30.2715  -39.8913 N.am      7 UNK        -0.4243 
     45 CA         25.7683  -31.7214  -40.0573 C.3       7 UNK         0.0196 
     46 CB         26.6961  -32.0358  -41.2436 C.3       7 UNK        -0.2007 
     47 C          24.3757  -32.3426  -40.2375 C.2       7 UNK         0.5020 
     48 O          23.8337  -32.3113  -41.3420 O.2       7 UNK        -0.5147 
     49 N          23.8026  -32.8443  -39.1352 N.am      8 UNK        -0.4734 
     50 CA         22.4646  -33.4398  -38.9758 C.3       8 UNK         0.0238 
     51 CB         22.2704  -34.6657  -39.8905 C.3       8 UNK        -0.1912 
     52 C          21.2968  -32.4457  -39.1259 C.2       8 UNK         0.5038 
     53 O          20.3453  -32.5234  -38.3470 O.2       8 UNK        -0.5046 
     54 N          21.3836  -31.5407  -40.1053 N.am      9 UNK        -0.4200 
     55 CA         20.4388  -30.4435  -40.3530 C.3       9 UNK         0.0839 
     56 C          20.5402  -29.3088  -39.2866 C.2       9 UNK         0.5513 
     57 N          19.7167  -28.2743  -39.3809 N.am      9 UNK        -0.7519 
     58 O          21.3515  -29.3469  -38.3631 O.2       9 UNK        -0.4960 
     59 C59        20.5438  -29.9032  -41.8088 C.3       10 UNK        -0.0876 
     60 S60        20.7171  -31.1820  -43.0999 S.3       10 UNK        -0.2414 
     61 C61        19.0516  -31.9235  -43.1542 C.3       10 UNK         0.0169 
     62 H62        16.5182  -22.6234  -44.6387 H         1 UNK         0.0903 
     63 H63        15.2908  -23.3173  -45.7014 H         1 UNK         0.0903 
     64 H64        15.0023  -23.2244  -43.9630 H         1 UNK         0.0903 
     65 H65        15.2739  -25.1923  -42.9399 H         1 UNK         0.3096 
     66 H66        16.6222  -27.4206  -44.2034 H         1 UNK         0.1121 
     67 H67        15.8491  -28.5955  -41.9908 H         1 UNK         0.0849 
     68 H68        15.0331  -27.1080  -41.6119 H         1 UNK         0.0849 
     69 H69        14.2542  -30.5138  -42.8511 H         1 UNK         0.0865 
     70 H70        13.7002  -30.3833  -44.4983 H         1 UNK         0.0865 
     71 H71        16.5007  -31.1986  -42.5171 H         1 UNK         0.1346 
     72 H72        19.3729  -30.9641  -45.6784 H         1 UNK         0.1412 
     73 H73        15.4674  -29.2675  -46.2047 H         1 UNK         0.1426 
     74 H74        16.9592  -29.4612  -48.0953 H         1 UNK         0.0716 
     75 H75        18.4523  -30.3503  -47.9861 H         1 UNK         0.0716 
     76 H76        20.5154  -29.5670  -46.8931 H         1 UNK         0.0695 
     77 H77        20.9328  -28.6012  -48.2760 H         1 UNK         0.0695 
     78 H78        21.3930  -26.6437  -46.8735 H         1 UNK         0.0983 
     79 H79        19.8381  -27.8567  -44.8987 H         1 UNK         0.3095 
     80 H80        20.4921  -27.0712  -42.2320 H         1 UNK         0.0454 
     81 H81        21.5610  -24.8738  -41.8677 H         1 UNK         0.0851 
     82 H82        20.3405  -24.0770  -42.8553 H         1 UNK         0.0851 
     83 H83        19.8955  -24.8230  -41.3200 H         1 UNK         0.0851 
     84 H84        18.5937  -25.9437  -44.2075 H         1 UNK         0.2976 
     85 H85        22.3105  -29.1551  -44.5803 H         1 UNK         0.3116 
     86 H86        25.0860  -29.2749  -45.6905 H         1 UNK         0.0646 
     87 H87        23.6854  -31.1768  -43.7439 H         1 UNK         0.0847 
     88 H88        25.2817  -31.3819  -44.4466 H         1 UNK         0.0847 
     89 H89        23.8617  -31.4686  -45.4731 H         1 UNK         0.0847 
     90 H90        23.7710  -27.0880  -44.0063 H         1 UNK         0.3040 
     91 H91        24.1550  -25.7398  -42.3125 H         1 UNK         0.1015 
     92 H92        26.4635  -25.6012  -43.2240 H         1 UNK         0.0786 
     93 H93        26.9843  -26.9400  -42.2132 H         1 UNK         0.0786 
     94 H94        26.4733  -25.4174  -41.4836 H         1 UNK         0.0786 
     95 H95        26.2898  -27.1872  -40.2238 H         1 UNK         0.3172 
     96 H96        24.1573  -27.9031  -38.3414 H         1 UNK         0.0595 
     97 H97        26.0766  -26.4806  -37.6263 H         1 UNK         0.0839 
     98 H98        27.2041  -27.7826  -38.0104 H         1 UNK         0.0839 
     99 H99        26.0334  -27.9781  -36.7146 H         1 UNK         0.0839 
    100 H100       25.7793  -29.7077  -40.7228 H         1 UNK         0.2998 
    101 H101       26.2311  -32.1440  -39.1625 H         1 UNK         0.0822 
    102 H102       26.2885  -31.6762  -42.1879 H         1 UNK         0.0787 
    103 H103       27.6794  -31.5847  -41.1103 H         1 UNK         0.0787 
    104 H104       26.8419  -33.1118  -41.3453 H         1 UNK         0.0787 
    105 H105       24.3127  -32.7249  -38.2690 H         1 UNK         0.3055 
    106 H106       22.4274  -33.7970  -37.9450 H         1 UNK         0.1106 
    107 H107       23.0627  -35.3998  -39.7450 H         1 UNK         0.0828 
    108 H108       21.3239  -35.1632  -39.6748 H         1 UNK         0.0828 
    109 H109       22.2550  -34.3921  -40.9460 H         1 UNK         0.0828 
    110 H110       22.1963  -31.5850  -40.7128 H         1 UNK         0.2931 
    111 H111       19.4394  -30.8653  -40.2360 H         1 UNK         0.0412 
    112 H112       19.7863  -27.5458  -38.6893 H         1 UNK         0.3472 
    113 H113       19.0577  -28.1631  -40.1469 H         1 UNK         0.3472 
    114 H114       21.4098  -29.2463  -41.8979 H         1 UNK         0.0970 
    115 H115       19.6699  -29.3002  -42.0517 H         1 UNK         0.0970 
    116 H116       19.1392  -32.9216  -43.5849 H         1 UNK         0.0612 
    117 H117       18.6832  -32.0640  -42.1376 H         1 UNK         0.0612 
@<TRIPOS>BOND
     1    1    2 1    
     2    1   62 1    
     3    1   63 1    
     4    1   64 1    
     5    2    3 2    
     6    2    4 am   BACKBONE|DICT|INTERRES
     7    4    5 1    
     8    4   65 1    
     9    5    6 1    
    10    5   25 1    
    11    5   66 1    
    12    6    7 1    
    13    6   67 1    
    14    6   68 1    
    15    7    8 1    
    16    8    9 1    
    17    8   69 1    
    18    8   70 1    
    19    9   10 ar   
    20    9   14 ar   
    21   10   11 ar   
    22   10   71 1    
    23   11   12 ar   
    24   11   61 1    
    25   12   13 ar   
    26   12   72 1    
    27   13   14 ar   
    28   13   15 1    
    29   14   73 1    
    30   15   16 1    
    31   15   74 1    
    32   15   75 1    
    33   16   17 1    
    34   17   18 1    
    35   17   76 1    
    36   17   77 1    
    37   18   19 1    
    38   18   27 1    
    39   18   78 1    
    40   19   20 am   BACKBONE|DICT|INTERRES
    41   19   79 1    
    42   20   21 2    
    43   20   22 1    
    44   22   23 1    
    45   22   24 1    
    46   22   80 1    
    47   23   81 1    
    48   23   82 1    
    49   23   83 1    
    50   24   25 am   BACKBONE|DICT|INTERRES
    51   24   84 1    
    52   25   26 2    
    53   27   28 2    
    54   27   29 am   BACKBONE|DICT|INTERRES
    55   29   30 1    
    56   29   85 1    
    57   30   31 1    
    58   30   32 1    
    59   30   86 1    
    60   31   87 1    
    61   31   88 1    
    62   31   89 1    
    63   32   33 2    
    64   32   34 am   BACKBONE|DICT|INTERRES
    65   34   35 1    
    66   34   90 1    
    67   35   36 1    
    68   35   37 1    
    69   35   91 1    
    70   36   92 1    
    71   36   93 1    
    72   36   94 1    
    73   37   38 2    
    74   37   39 am   BACKBONE|DICT|INTERRES
    75   39   40 1    
    76   39   95 1    
    77   40   41 1    
    78   40   42 1    
    79   40   96 1    
    80   41   97 1    
    81   41   98 1    
    82   41   99 1    
    83   42   43 2    
    84   42   44 am   BACKBONE|DICT|INTERRES
    85   44   45 1    
    86   44  100 1    
    87   45   46 1    
    88   45   47 1    
    89   45  101 1    
    90   46  102 1    
    91   46  103 1    
    92   46  104 1    
    93   47   48 2    
    94   47   49 am   BACKBONE|DICT|INTERRES
    95   49   50 1    
    96   49  105 1    
    97   50   51 1    
    98   50   52 1    
    99   50  106 1    
   100   51  107 1    
   101   51  108 1    
   102   51  109 1    
   103   52   53 2    
   104   52   54 am   BACKBONE|DICT|INTERRES
   105   54   55 1    
   106   54  110 1    
   107   55   56 1    
   108   55   59 1    
   109   55  111 1    
   110   56   57 am   BACKBONE|DICT|INTERRES
   111   56   58 2    
   112   57  112 1    
   113   57  113 1    
   114   59   60 1    
   115   59  114 1    
   116   59  115 1    
   117   60   61 1    
   118   61  116 1    
   119   61  117 1    
@<TRIPOS>SUBSTRUCTURE
     1 UNK         1 GROUP             0       ****    0 ROOT    
