@<TRIPOS>MOLECULE
3R8
117   119    1
SMALL
USER_CHARGES


@<TRIPOS>ATOM
      1 CA         15.6014  -23.4570  -42.1450 C.3       0 UNK        -0.2013 
      2 C          16.3932  -24.3994  -43.0382 C.2       0 UNK         0.4866 
      3 O          16.4888  -24.1684  -44.2445 O.2       0 UNK        -0.5176 
      4 N          16.9752  -25.4573  -42.4596 N.am      1 UNK        -0.4884 
      5 CA         17.7575  -26.4910  -43.1503 C.3       1 UNK         0.0853 
      6 C6         17.7770  -27.8235  -42.3543 C.3       10 UNK        -0.0849 
      7 S7         16.1178  -28.5122  -42.0055 S.3       10 UNK        -0.2776 
      8 C8         15.5765  -29.1738  -43.6202 C.3       10 UNK         0.0316 
      9 C9         16.6160  -30.0883  -44.2519 C.ar      10 UNK        -0.0863 
     10 C10        16.8072  -31.3846  -43.7708 C.ar      10 UNK        -0.1009 
     11 C11        17.8199  -32.1985  -44.2963 C.ar      10 UNK        -0.0712 
     12 C12        18.6127  -31.7035  -45.3382 C.ar      10 UNK        -0.0894 
     13 C13        18.4228  -30.4147  -45.8482 C.ar      10 UNK        -0.0745 
     14 C14        17.4090  -29.6186  -45.2998 C.ar      10 UNK        -0.0972 
     15 C15        19.3523  -29.9271  -46.9644 C.3       10 UNK         0.0209 
     16 S16        19.1409  -28.1747  -47.4407 S.3       10 UNK        -0.2568 
     17 C17        20.8066  -27.7188  -48.0353 C.3       10 UNK        -0.0983 
     18 CA         21.6914  -27.0210  -46.9655 C.3       3 UNK         0.0876 
     19 N          20.9464  -26.0111  -46.2072 N.am      3 UNK        -0.4424 
     20 C          21.4898  -25.0396  -45.4648 C.2       2 UNK         0.4918 
     21 O          22.6965  -24.8030  -45.4282 O.2       2 UNK        -0.4875 
     22 CA         20.5284  -24.2002  -44.6016 C.3       2 UNK         0.0481 
     23 CB         20.1867  -22.8806  -45.3103 C.3       2 UNK        -0.1831 
     24 N          19.2817  -24.8837  -44.2300 N.am      2 UNK        -0.4498 
     25 C          19.1848  -25.9940  -43.4852 C.2       1 UNK         0.5027 
     26 O          20.1691  -26.6091  -43.0698 O.2       1 UNK        -0.4969 
     27 C          22.4002  -28.0490  -46.0552 C.2       3 UNK         0.5005 
     28 O          23.4188  -28.6059  -46.4680 O.2       3 UNK        -0.5279 
     29 N          21.8593  -28.2887  -44.8515 N.am      4 UNK        -0.4463 
     30 CA         22.4438  -29.1656  -43.8382 C.3       4 UNK         0.0283 
     31 CB         21.3209  -29.8212  -43.0126 C.3       4 UNK        -0.1875 
     32 C          23.4087  -28.3633  -42.9535 C.2       4 UNK         0.4949 
     33 O          24.5836  -28.7193  -42.8536 O.2       4 UNK        -0.5039 
     34 N          22.8987  -27.2695  -42.3645 N.am      5 UNK        -0.4663 
     35 CA         23.6023  -26.3218  -41.4928 C.3       5 UNK         0.0242 
     36 CB         24.5324  -25.4167  -42.3323 C.3       5 UNK        -0.1982 
     37 C          24.3029  -27.0265  -40.3130 C.2       5 UNK         0.5017 
     38 O          23.6151  -27.5882  -39.4594 O.2       5 UNK        -0.5012 
     39 N          25.6433  -26.9933  -40.2894 N.am      6 UNK        -0.4439 
     40 CA         26.4898  -27.6357  -39.2803 C.3       6 UNK         0.0297 
     41 CB         27.9321  -27.1253  -39.4283 C.3       6 UNK        -0.2006 
     42 C          26.4571  -29.1743  -39.3306 C.2       6 UNK         0.4892 
     43 O          26.6571  -29.8087  -38.2942 O.2       6 UNK        -0.5089 
     44 N          26.1804  -29.7508  -40.5084 N.am      7 UNK        -0.4243 
     45 CA         25.9626  -31.1841  -40.7074 C.3       7 UNK         0.0196 
     46 CB         26.5718  -31.6021  -42.0589 C.3       7 UNK        -0.2007 
     47 C          24.4530  -31.4578  -40.6201 C.2       7 UNK         0.5020 
     48 O          23.8379  -31.8550  -41.6100 O.2       7 UNK        -0.5147 
     49 N          23.8836  -31.1623  -39.4434 N.am      8 UNK        -0.4734 
     50 CA         22.4483  -31.1207  -39.1561 C.3       8 UNK         0.0238 
     51 CB         22.2476  -30.7306  -37.6828 C.3       8 UNK        -0.1912 
     52 C          21.7012  -32.4281  -39.4713 C.2       8 UNK         0.5038 
     53 O          22.2363  -33.5168  -39.2467 O.2       8 UNK        -0.5046 
     54 N          20.4671  -32.2741  -39.9629 N.am      9 UNK        -0.4200 
     55 CA         19.5367  -33.3555  -40.3063 C.3       9 UNK         0.0839 
     56 C          19.1054  -34.1849  -39.0646 C.2       9 UNK         0.5513 
     57 N          19.0176  -35.5015  -39.1923 N.am      9 UNK        -0.7519 
     58 O          18.8188  -33.6383  -38.0012 O.2       9 UNK        -0.4960 
     59 C59        18.3172  -32.7700  -41.0633 C.3       10 UNK        -0.0876 
     60 S60        17.4533  -33.9952  -42.1054 S.3       10 UNK        -0.2414 
     61 C61        18.1047  -33.6090  -43.7706 C.3       10 UNK         0.0169 
     62 H62        16.0286  -22.4554  -42.1845 H         1 UNK         0.0903 
     63 H63        14.5674  -23.4004  -42.4840 H         1 UNK         0.0903 
     64 H64        15.5999  -23.7850  -41.1057 H         1 UNK         0.0903 
     65 H65        16.8717  -25.5925  -41.4635 H         1 UNK         0.3096 
     66 H66        17.2776  -26.6928  -44.1099 H         1 UNK         0.1121 
     67 H67        18.2760  -27.6761  -41.3945 H         1 UNK         0.0849 
     68 H68        18.3689  -28.5791  -42.8722 H         1 UNK         0.0849 
     69 H69        14.6447  -29.7241  -43.4823 H         1 UNK         0.0865 
     70 H70        15.3375  -28.3419  -44.2846 H         1 UNK         0.0865 
     71 H71        16.1800  -31.7371  -42.9646 H         1 UNK         0.1346 
     72 H72        19.3971  -32.3250  -45.7492 H         1 UNK         0.1412 
     73 H73        17.2353  -28.6176  -45.6640 H         1 UNK         0.1426 
     74 H74        19.2029  -30.5463  -47.8499 H         1 UNK         0.0716 
     75 H75        20.3818  -30.0894  -46.6442 H         1 UNK         0.0716 
     76 H76        21.3030  -28.5912  -48.4656 H         1 UNK         0.0695 
     77 H77        20.6626  -27.0318  -48.8705 H         1 UNK         0.0695 
     78 H78        22.4897  -26.4990  -47.4984 H         1 UNK         0.0983 
     79 H79        19.9424  -26.1189  -46.2084 H         1 UNK         0.3095 
     80 H80        21.0553  -23.9616  -43.6754 H         1 UNK         0.0454 
     81 H81        19.5902  -22.2293  -44.6713 H         1 UNK         0.0851 
     82 H82        21.0921  -22.3317  -45.5736 H         1 UNK         0.0851 
     83 H83        19.6283  -23.0501  -46.2317 H         1 UNK         0.0851 
     84 H84        18.4096  -24.4367  -44.5007 H         1 UNK         0.2976 
     85 H85        21.0613  -27.7384  -44.5591 H         1 UNK         0.3116 
     86 H86        23.0084  -29.9647  -44.3238 H         1 UNK         0.0646 
     87 H87        20.7545  -29.0970  -42.4285 H         1 UNK         0.0847 
     88 H88        21.7291  -30.5483  -42.3129 H         1 UNK         0.0847 
     89 H89        20.6188  -30.3548  -43.6526 H         1 UNK         0.0847 
     90 H90        21.9134  -27.0674  -42.5184 H         1 UNK         0.3040 
     91 H91        22.8364  -25.6841  -41.0481 H         1 UNK         0.1015 
     92 H92        23.9591  -24.8507  -43.0658 H         1 UNK         0.0786 
     93 H93        25.2849  -25.9866  -42.8786 H         1 UNK         0.0786 
     94 H94        25.0480  -24.6858  -41.7076 H         1 UNK         0.0786 
     95 H95        26.1159  -26.5227  -41.0477 H         1 UNK         0.3172 
     96 H96        26.1220  -27.3340  -38.2973 H         1 UNK         0.0595 
     97 H97        27.9859  -26.0430  -39.3090 H         1 UNK         0.0839 
     98 H98        28.3537  -27.3791  -40.4018 H         1 UNK         0.0839 
     99 H99        28.5806  -27.5648  -38.6689 H         1 UNK         0.0839 
    100 H100       25.9226  -29.1589  -41.2918 H         1 UNK         0.2998 
    101 H101       26.4556  -31.7623  -39.9228 H         1 UNK         0.0822 
    102 H102       26.1162  -31.0648  -42.8919 H         1 UNK         0.0787 
    103 H103       27.6447  -31.4110  -42.0848 H         1 UNK         0.0787 
    104 H104       26.4268  -32.6681  -42.2386 H         1 UNK         0.0787 
    105 H105       24.4940  -30.8434  -38.7031 H         1 UNK         0.3055 
    106 H106       22.0336  -30.3254  -39.7795 H         1 UNK         0.1106 
    107 H107       22.6906  -29.7579  -37.4662 H         1 UNK         0.0828 
    108 H108       21.1873  -30.6633  -37.4345 H         1 UNK         0.0828 
    109 H109       22.6937  -31.4629  -37.0085 H         1 UNK         0.0828 
    110 H110       20.0987  -31.3398  -40.0538 H         1 UNK         0.2931 
    111 H111       20.0791  -34.0133  -40.9891 H         1 UNK         0.0412 
    112 H112       18.7270  -36.0551  -38.4014 H         1 UNK         0.3472 
    113 H113       19.2266  -35.9512  -40.0704 H         1 UNK         0.3472 
    114 H114       18.6390  -31.9471  -41.7027 H         1 UNK         0.0970 
    115 H115       17.5982  -32.3291  -40.3698 H         1 UNK         0.0970 
    116 H116       19.1823  -33.7805  -43.7552 H         1 UNK         0.0612 
    117 H117       17.6869  -34.3286  -44.4755 H         1 UNK         0.0612 
@<TRIPOS>BOND
     1    1    2 1    
     2    1   62 1    
     3    1   63 1    
     4    1   64 1    
     5    2    3 2    
     6    2    4 am   BACKBONE|DICT|INTERRES
     7    4    5 1    
     8    4   65 1    
     9    5    6 1    
    10    5   25 1    
    11    5   66 1    
    12    6    7 1    
    13    6   67 1    
    14    6   68 1    
    15    7    8 1    
    16    8    9 1    
    17    8   69 1    
    18    8   70 1    
    19    9   10 ar   
    20    9   14 ar   
    21   10   11 ar   
    22   10   71 1    
    23   11   12 ar   
    24   11   61 1    
    25   12   13 ar   
    26   12   72 1    
    27   13   14 ar   
    28   13   15 1    
    29   14   73 1    
    30   15   16 1    
    31   15   74 1    
    32   15   75 1    
    33   16   17 1    
    34   17   18 1    
    35   17   76 1    
    36   17   77 1    
    37   18   19 1    
    38   18   27 1    
    39   18   78 1    
    40   19   20 am   BACKBONE|DICT|INTERRES
    41   19   79 1    
    42   20   21 2    
    43   20   22 1    
    44   22   23 1    
    45   22   24 1    
    46   22   80 1    
    47   23   81 1    
    48   23   82 1    
    49   23   83 1    
    50   24   25 am   BACKBONE|DICT|INTERRES
    51   24   84 1    
    52   25   26 2    
    53   27   28 2    
    54   27   29 am   BACKBONE|DICT|INTERRES
    55   29   30 1    
    56   29   85 1    
    57   30   31 1    
    58   30   32 1    
    59   30   86 1    
    60   31   87 1    
    61   31   88 1    
    62   31   89 1    
    63   32   33 2    
    64   32   34 am   BACKBONE|DICT|INTERRES
    65   34   35 1    
    66   34   90 1    
    67   35   36 1    
    68   35   37 1    
    69   35   91 1    
    70   36   92 1    
    71   36   93 1    
    72   36   94 1    
    73   37   38 2    
    74   37   39 am   BACKBONE|DICT|INTERRES
    75   39   40 1    
    76   39   95 1    
    77   40   41 1    
    78   40   42 1    
    79   40   96 1    
    80   41   97 1    
    81   41   98 1    
    82   41   99 1    
    83   42   43 2    
    84   42   44 am   BACKBONE|DICT|INTERRES
    85   44   45 1    
    86   44  100 1    
    87   45   46 1    
    88   45   47 1    
    89   45  101 1    
    90   46  102 1    
    91   46  103 1    
    92   46  104 1    
    93   47   48 2    
    94   47   49 am   BACKBONE|DICT|INTERRES
    95   49   50 1    
    96   49  105 1    
    97   50   51 1    
    98   50   52 1    
    99   50  106 1    
   100   51  107 1    
   101   51  108 1    
   102   51  109 1    
   103   52   53 2    
   104   52   54 am   BACKBONE|DICT|INTERRES
   105   54   55 1    
   106   54  110 1    
   107   55   56 1    
   108   55   59 1    
   109   55  111 1    
   110   56   57 am   BACKBONE|DICT|INTERRES
   111   56   58 2    
   112   57  112 1    
   113   57  113 1    
   114   59   60 1    
   115   59  114 1    
   116   59  115 1    
   117   60   61 1    
   118   61  116 1    
   119   61  117 1    
@<TRIPOS>SUBSTRUCTURE
     1 UNK         1 GROUP             0       ****    0 ROOT    
