@<TRIPOS>MOLECULE
3R8
117   119    1
SMALL
USER_CHARGES


@<TRIPOS>ATOM
      1 CA         21.7407  -25.8333  -39.8556 C.3       0 UNK        -0.2013 
      2 C          20.8848  -26.3800  -40.9869 C.2       0 UNK         0.4866 
      3 O          21.4057  -26.7040  -42.0553 O.2       0 UNK        -0.5176 
      4 N          19.5689  -26.4717  -40.7560 N.am      1 UNK        -0.4884 
      5 CA         18.5490  -26.8802  -41.7319 C.3       1 UNK         0.0853 
      6 C6         18.7958  -28.3148  -42.2899 C.3       10 UNK        -0.0849 
      7 S7         17.2650  -29.3024  -42.4173 S.3       10 UNK        -0.2776 
      8 C8         17.1476  -29.7009  -44.1959 C.3       10 UNK         0.0316 
      9 C9         18.4125  -30.3369  -44.7594 C.ar      10 UNK        -0.0863 
     10 C10        18.9136  -31.5225  -44.2142 C.ar      10 UNK        -0.1009 
     11 C11        20.0637  -32.1137  -44.7422 C.ar      10 UNK        -0.0712 
     12 C12        20.7158  -31.5089  -45.8202 C.ar      10 UNK        -0.0894 
     13 C13        20.2265  -30.3264  -46.3846 C.ar      10 UNK        -0.0745 
     14 C14        19.0666  -29.7499  -45.8479 C.ar      10 UNK        -0.0972 
     15 C15        20.9574  -29.7499  -47.6000 C.3       10 UNK         0.0209 
     16 S16        20.5436  -28.0275  -48.0430 S.3       10 UNK        -0.2568 
     17 C17        21.5049  -27.0917  -46.8096 C.3       10 UNK        -0.0983 
     18 CA         20.8564  -25.7167  -46.5127 C.3       3 UNK         0.0876 
     19 N          19.5683  -25.8681  -45.8309 N.am      3 UNK        -0.4424 
     20 C          18.5669  -24.9799  -45.8762 C.2       2 UNK         0.4918 
     21 O          18.6043  -23.9359  -46.5274 O.2       2 UNK        -0.4875 
     22 CA         17.3108  -25.3053  -45.0427 C.3       2 UNK         0.0481 
     23 CB         16.2454  -25.9718  -45.9277 C.3       2 UNK        -0.1831 
     24 N          17.5712  -26.1527  -43.8708 N.am      2 UNK        -0.4498 
     25 C          18.3672  -25.8199  -42.8452 C.2       1 UNK         0.5027 
     26 O          18.9468  -24.7324  -42.7750 O.2       1 UNK        -0.4969 
     27 C          21.8381  -24.8051  -45.7445 C.2       3 UNK         0.5005 
     28 O          22.8254  -24.3768  -46.3446 O.2       3 UNK        -0.5279 
     29 N          21.5743  -24.5297  -44.4542 N.am      4 UNK        -0.4463 
     30 CA         22.4300  -23.7844  -43.5188 C.3       4 UNK         0.0283 
     31 CB         22.4971  -22.2912  -43.9027 C.3       4 UNK        -0.1875 
     32 C          23.8205  -24.4348  -43.3577 C.2       4 UNK         0.4949 
     33 O          24.8432  -23.7526  -43.4428 O.2       4 UNK        -0.5039 
     34 N          23.8168  -25.7563  -43.1528 N.am      5 UNK        -0.4663 
     35 CA         24.9960  -26.6034  -43.0058 C.3       5 UNK         0.0242 
     36 CB         24.9699  -27.6991  -44.0902 C.3       5 UNK        -0.1982 
     37 C          25.0108  -27.1727  -41.5828 C.2       5 UNK         0.5017 
     38 O          25.7296  -26.6510  -40.7299 O.2       5 UNK        -0.5012 
     39 N          24.1937  -28.2029  -41.3422 N.am      6 UNK        -0.4439 
     40 CA         23.9662  -28.8364  -40.0495 C.3       6 UNK         0.0297 
     41 CB         25.1017  -29.8246  -39.7245 C.3       6 UNK        -0.2006 
     42 C          22.6176  -29.5568  -40.1219 C.2       6 UNK         0.4892 
     43 O          22.2701  -30.0792  -41.1815 O.2       6 UNK        -0.5089 
     44 N          21.8938  -29.5848  -38.9972 N.am      7 UNK        -0.4243 
     45 CA         20.5992  -30.2636  -38.8704 C.3       7 UNK         0.0196 
     46 CB         19.7390  -29.5050  -37.8464 C.3       7 UNK        -0.2007 
     47 C          20.7334  -31.7467  -38.4786 C.2       7 UNK         0.5020 
     48 O          19.7388  -32.4709  -38.5206 O.2       7 UNK        -0.5147 
     49 N          21.9464  -32.1797  -38.1014 N.am      8 UNK        -0.4734 
     50 CA         22.2672  -33.5289  -37.6178 C.3       8 UNK         0.0238 
     51 CB         23.7385  -33.5637  -37.1720 C.3       8 UNK        -0.1912 
     52 C          21.9850  -34.6621  -38.6217 C.2       8 UNK         0.5038 
     53 O          21.7677  -35.7972  -38.1956 O.2       8 UNK        -0.5046 
     54 N          21.9828  -34.3387  -39.9205 N.am      9 UNK        -0.4200 
     55 CA         21.5796  -35.2392  -41.0090 C.3       9 UNK         0.0839 
     56 C          20.0438  -35.4763  -41.1246 C.2       9 UNK         0.5513 
     57 N          19.1929  -34.7597  -40.3982 N.am      9 UNK        -0.7519 
     58 O          19.6171  -36.3416  -41.8846 O.2       9 UNK        -0.4960 
     59 C59        22.2188  -34.8219  -42.3597 C.3       10 UNK        -0.0876 
     60 S60        21.8256  -33.1121  -42.8684 S.3       10 UNK        -0.2414 
     61 C61        20.5892  -33.4172  -44.1638 C.3       10 UNK         0.0169 
     62 H62        21.7968  -26.5511  -39.0383 H         1 UNK         0.0903 
     63 H63        22.7536  -25.6273  -40.2002 H         1 UNK         0.0903 
     64 H64        21.3227  -24.9033  -39.4711 H         1 UNK         0.0903 
     65 H65        19.2064  -26.1544  -39.8675 H         1 UNK         0.3096 
     66 H66        17.6136  -26.8781  -41.1695 H         1 UNK         0.1121 
     67 H67        19.3402  -28.2940  -43.2353 H         1 UNK         0.0849 
     68 H68        19.4484  -28.8719  -41.6171 H         1 UNK         0.0849 
     69 H69        16.3166  -30.3926  -44.3414 H         1 UNK         0.0865 
     70 H70        16.8846  -28.8008  -44.7503 H         1 UNK         0.0865 
     71 H71        18.4075  -31.9846  -43.3773 H         1 UNK         0.1346 
     72 H72        21.6033  -31.9717  -46.2303 H         1 UNK         0.1412 
     73 H73        18.6560  -28.8512  -46.2842 H         1 UNK         0.1426 
     74 H74        20.7275  -30.3806  -48.4596 H         1 UNK         0.0716 
     75 H75        22.0360  -29.8189  -47.4491 H         1 UNK         0.0716 
     76 H76        21.6051  -27.6769  -45.8931 H         1 UNK         0.0695 
     77 H77        22.5137  -26.9731  -47.2106 H         1 UNK         0.0695 
     78 H78        20.6788  -25.2199  -47.4697 H         1 UNK         0.0983 
     79 H79        19.4501  -26.7036  -45.2799 H         1 UNK         0.3095 
     80 H80        16.9062  -24.3586  -44.6787 H         1 UNK         0.0454 
     81 H81        15.9843  -25.3294  -46.7700 H         1 UNK         0.0851 
     82 H82        16.5941  -26.9185  -46.3415 H         1 UNK         0.0851 
     83 H83        15.3262  -26.1618  -45.3734 H         1 UNK         0.0851 
     84 H84        17.0993  -27.0448  -43.8360 H         1 UNK         0.2976 
     85 H85        20.7277  -24.9081  -44.0451 H         1 UNK         0.3116 
     86 H86        21.9452  -23.8490  -42.5436 H         1 UNK         0.0646 
     87 H87        23.0377  -21.7192  -43.1478 H         1 UNK         0.0847 
     88 H88        21.5002  -21.8583  -43.9843 H         1 UNK         0.0847 
     89 H89        23.0089  -22.1374  -44.8531 H         1 UNK         0.0847 
     90 H90        22.9167  -26.2026  -42.9791 H         1 UNK         0.3040 
     91 H91        25.9114  -26.0210  -43.1332 H         1 UNK         0.1015 
     92 H92        25.0872  -27.2635  -45.0828 H         1 UNK         0.0786 
     93 H93        24.0364  -28.2633  -44.0915 H         1 UNK         0.0786 
     94 H94        25.7866  -28.4087  -43.9507 H         1 UNK         0.0786 
     95 H95        23.5864  -28.5483  -42.0766 H         1 UNK         0.3172 
     96 H96        23.9185  -28.0652  -39.2779 H         1 UNK         0.0595 
     97 H97        25.1779  -30.6101  -40.4777 H         1 UNK         0.0839 
     98 H98        24.9383  -30.3089  -38.7612 H         1 UNK         0.0839 
     99 H99        26.0663  -29.3197  -39.6705 H         1 UNK         0.0839 
    100 H100       22.2531  -29.1355  -38.1663 H         1 UNK         0.2998 
    101 H101       20.0792  -30.2377  -39.8300 H         1 UNK         0.0822 
    102 H102       19.5846  -28.4694  -38.1499 H         1 UNK         0.0787 
    103 H103       18.7528  -29.9617  -37.7501 H         1 UNK         0.0787 
    104 H104       20.1954  -29.5026  -36.8558 H         1 UNK         0.0787 
    105 H105       22.7034  -31.5130  -38.1066 H         1 UNK         0.3055 
    106 H106       21.6390  -33.7194  -36.7447 H         1 UNK         0.1106 
    107 H107       24.4165  -33.3473  -37.9986 H         1 UNK         0.0828 
    108 H108       23.9320  -32.8412  -36.3788 H         1 UNK         0.0828 
    109 H109       24.0055  -34.5469  -36.7814 H         1 UNK         0.0828 
    110 H110       22.1488  -33.3778  -40.1828 H         1 UNK         0.2931 
    111 H111       21.9953  -36.2205  -40.7718 H         1 UNK         0.0412 
    112 H112       18.2050  -34.9365  -40.4855 H         1 UNK         0.3472 
    113 H113       19.5181  -34.0350  -39.7674 H         1 UNK         0.3472 
    114 H114       21.9442  -35.5218  -43.1512 H         1 UNK         0.0970 
    115 H115       23.3043  -34.8961  -42.2788 H         1 UNK         0.0970 
    116 H116       19.7654  -34.0013  -43.7514 H         1 UNK         0.0612 
    117 H117       21.0341  -34.0236  -44.9542 H         1 UNK         0.0612 
@<TRIPOS>BOND
     1    1    2 1    
     2    1   62 1    
     3    1   63 1    
     4    1   64 1    
     5    2    3 2    
     6    2    4 am   BACKBONE|DICT|INTERRES
     7    4    5 1    
     8    4   65 1    
     9    5    6 1    
    10    5   25 1    
    11    5   66 1    
    12    6    7 1    
    13    6   67 1    
    14    6   68 1    
    15    7    8 1    
    16    8    9 1    
    17    8   69 1    
    18    8   70 1    
    19    9   10 ar   
    20    9   14 ar   
    21   10   11 ar   
    22   10   71 1    
    23   11   12 ar   
    24   11   61 1    
    25   12   13 ar   
    26   12   72 1    
    27   13   14 ar   
    28   13   15 1    
    29   14   73 1    
    30   15   16 1    
    31   15   74 1    
    32   15   75 1    
    33   16   17 1    
    34   17   18 1    
    35   17   76 1    
    36   17   77 1    
    37   18   19 1    
    38   18   27 1    
    39   18   78 1    
    40   19   20 am   BACKBONE|DICT|INTERRES
    41   19   79 1    
    42   20   21 2    
    43   20   22 1    
    44   22   23 1    
    45   22   24 1    
    46   22   80 1    
    47   23   81 1    
    48   23   82 1    
    49   23   83 1    
    50   24   25 am   BACKBONE|DICT|INTERRES
    51   24   84 1    
    52   25   26 2    
    53   27   28 2    
    54   27   29 am   BACKBONE|DICT|INTERRES
    55   29   30 1    
    56   29   85 1    
    57   30   31 1    
    58   30   32 1    
    59   30   86 1    
    60   31   87 1    
    61   31   88 1    
    62   31   89 1    
    63   32   33 2    
    64   32   34 am   BACKBONE|DICT|INTERRES
    65   34   35 1    
    66   34   90 1    
    67   35   36 1    
    68   35   37 1    
    69   35   91 1    
    70   36   92 1    
    71   36   93 1    
    72   36   94 1    
    73   37   38 2    
    74   37   39 am   BACKBONE|DICT|INTERRES
    75   39   40 1    
    76   39   95 1    
    77   40   41 1    
    78   40   42 1    
    79   40   96 1    
    80   41   97 1    
    81   41   98 1    
    82   41   99 1    
    83   42   43 2    
    84   42   44 am   BACKBONE|DICT|INTERRES
    85   44   45 1    
    86   44  100 1    
    87   45   46 1    
    88   45   47 1    
    89   45  101 1    
    90   46  102 1    
    91   46  103 1    
    92   46  104 1    
    93   47   48 2    
    94   47   49 am   BACKBONE|DICT|INTERRES
    95   49   50 1    
    96   49  105 1    
    97   50   51 1    
    98   50   52 1    
    99   50  106 1    
   100   51  107 1    
   101   51  108 1    
   102   51  109 1    
   103   52   53 2    
   104   52   54 am   BACKBONE|DICT|INTERRES
   105   54   55 1    
   106   54  110 1    
   107   55   56 1    
   108   55   59 1    
   109   55  111 1    
   110   56   57 am   BACKBONE|DICT|INTERRES
   111   56   58 2    
   112   57  112 1    
   113   57  113 1    
   114   59   60 1    
   115   59  114 1    
   116   59  115 1    
   117   60   61 1    
   118   61  116 1    
   119   61  117 1    
@<TRIPOS>SUBSTRUCTURE
     1 UNK         1 GROUP             0       ****    0 ROOT    
