@<TRIPOS>MOLECULE
3R8
117   119    1
SMALL
USER_CHARGES


@<TRIPOS>ATOM
      1 CA         15.1162  -25.4603  -40.1344 C.3       0 UNK        -0.2013 
      2 C          15.1675  -25.5014  -41.6544 C.2       0 UNK         0.4866 
      3 O          14.4906  -24.7096  -42.3118 O.2       0 UNK        -0.5176 
      4 N          15.9568  -26.4242  -42.2175 N.am      1 UNK        -0.4884 
      5 CA         16.1657  -26.5817  -43.6613 C.3       1 UNK         0.0853 
      6 C6         16.8448  -27.9306  -44.0037 C.3       10 UNK        -0.0849 
      7 S7         15.9588  -29.3876  -43.3435 S.3       10 UNK        -0.2776 
      8 C8         16.3601  -30.6775  -44.5718 C.3       10 UNK         0.0316 
      9 C9         17.8536  -30.7431  -44.8610 C.ar      10 UNK        -0.0863 
     10 C10        18.7402  -31.2528  -43.9075 C.ar      10 UNK        -0.1009 
     11 C11        20.1191  -31.2342  -44.1414 C.ar      10 UNK        -0.0712 
     12 C12        20.6061  -30.7180  -45.3466 C.ar      10 UNK        -0.0894 
     13 C13        19.7262  -30.2251  -46.3150 C.ar      10 UNK        -0.0745 
     14 C14        18.3514  -30.2522  -46.0711 C.ar      10 UNK        -0.0972 
     15 C15        20.2565  -29.6362  -47.6146 C.3       10 UNK         0.0209 
     16 S16        19.9462  -27.8438  -47.7246 S.3       10 UNK        -0.2568 
     17 C17        20.8982  -27.2402  -46.2934 C.3       10 UNK        -0.0983 
     18 CA         20.9699  -25.6920  -46.2099 C.3       3 UNK         0.0876 
     19 N          19.6657  -25.0998  -45.9137 N.am      3 UNK        -0.4424 
     20 C          18.8346  -24.5236  -46.7859 C.2       2 UNK         0.4918 
     21 O          19.0765  -24.4112  -47.9890 O.2       2 UNK        -0.4875 
     22 CA         17.5001  -23.9990  -46.2120 C.3       2 UNK         0.0481 
     23 CB         16.5805  -23.4088  -47.2977 C.3       2 UNK        -0.1831 
     24 N          16.7654  -25.0404  -45.4833 N.am      2 UNK        -0.4498 
     25 C          17.0113  -25.4182  -44.2215 C.2       1 UNK         0.5027 
     26 O          17.9041  -24.9213  -43.5290 O.2       1 UNK        -0.4969 
     27 C          21.9490  -25.2714  -45.0995 C.2       3 UNK         0.5005 
     28 O          21.5215  -24.7951  -44.0428 O.2       3 UNK        -0.5279 
     29 N          23.2485  -25.4927  -45.3408 N.am      4 UNK        -0.4463 
     30 CA         24.2984  -25.4172  -44.3214 C.3       4 UNK         0.0283 
     31 CB         25.6739  -25.4547  -45.0073 C.3       4 UNK        -0.1875 
     32 C          24.1661  -26.5737  -43.3131 C.2       4 UNK         0.4949 
     33 O          23.7079  -27.6564  -43.6856 O.2       4 UNK        -0.5039 
     34 N          24.5740  -26.3215  -42.0634 N.am      5 UNK        -0.4663 
     35 CA         24.4941  -27.2778  -40.9556 C.3       5 UNK         0.0242 
     36 CB         24.8268  -26.5515  -39.6417 C.3       5 UNK        -0.1982 
     37 C          25.4111  -28.4998  -41.1439 C.2       5 UNK         0.5017 
     38 O          26.4713  -28.3861  -41.7654 O.2       5 UNK        -0.5012 
     39 N          24.9989  -29.6324  -40.5689 N.am      6 UNK        -0.4439 
     40 CA         25.6906  -30.9196  -40.6140 C.3       6 UNK         0.0297 
     41 CB         25.4079  -31.6161  -41.9613 C.3       6 UNK        -0.2006 
     42 C          25.2254  -31.7750  -39.4281 C.2       6 UNK         0.4892 
     43 O          24.3662  -31.3419  -38.6599 O.2       6 UNK        -0.5089 
     44 N          25.7602  -32.9976  -39.3081 N.am      7 UNK        -0.4243 
     45 CA         25.3850  -33.9676  -38.2680 C.3       7 UNK         0.0196 
     46 CB         26.2857  -35.2080  -38.3846 C.3       7 UNK        -0.2007 
     47 C          23.8977  -34.3791  -38.2909 C.2       7 UNK         0.5020 
     48 O          23.3567  -34.7510  -37.2496 O.2       7 UNK        -0.5147 
     49 N          23.2658  -34.2923  -39.4684 N.am      8 UNK        -0.4734 
     50 CA         21.8459  -34.5740  -39.6873 C.3       8 UNK         0.0238 
     51 CB         21.6887  -35.2038  -41.0832 C.3       8 UNK        -0.1912 
     52 C          20.9396  -33.3337  -39.5493 C.2       8 UNK         0.5038 
     53 O          19.7227  -33.4848  -39.6686 O.2       8 UNK        -0.5046 
     54 N          21.5107  -32.1409  -39.3355 N.am      9 UNK        -0.4200 
     55 CA         20.7846  -30.8646  -39.3144 C.3       9 UNK         0.0839 
     56 C          21.5763  -29.8073  -38.5065 C.2       9 UNK         0.5513 
     57 N          21.3095  -29.6844  -37.2132 N.am      9 UNK        -0.7519 
     58 O          22.4207  -29.0921  -39.0385 O.2       9 UNK        -0.4960 
     59 C59        20.3503  -30.3784  -40.7301 C.3       10 UNK        -0.0876 
     60 S60        21.6717  -30.4294  -41.9961 S.3       10 UNK        -0.2414 
     61 C61        21.0902  -31.7592  -43.0948 C.3       10 UNK         0.0169 
     62 H62        15.7552  -26.2197  -39.6839 H         1 UNK         0.0903 
     63 H63        15.4434  -24.4852  -39.7745 H         1 UNK         0.0903 
     64 H64        14.0964  -25.6269  -39.7886 H         1 UNK         0.0903 
     65 H65        16.4943  -27.0477  -41.6325 H         1 UNK         0.3096 
     66 H66        15.1854  -26.5561  -44.1431 H         1 UNK         0.1121 
     67 H67        16.9223  -28.0317  -45.0876 H         1 UNK         0.0849 
     68 H68        17.8682  -27.9604  -43.6223 H         1 UNK         0.0849 
     69 H69        16.0171  -31.6443  -44.2007 H         1 UNK         0.0865 
     70 H70        15.7969  -30.4851  -45.4865 H         1 UNK         0.0865 
     71 H71        18.3544  -31.6372  -42.9737 H         1 UNK         0.1346 
     72 H72        21.6729  -30.6881  -45.5220 H         1 UNK         0.1412 
     73 H73        17.6734  -29.8527  -46.8133 H         1 UNK         0.1426 
     74 H74        21.3264  -29.8224  -47.7209 H         1 UNK         0.0716 
     75 H75        19.7727  -30.1321  -48.4572 H         1 UNK         0.0716 
     76 H76        21.8971  -27.6750  -46.3644 H         1 UNK         0.0695 
     77 H77        20.4548  -27.6470  -45.3820 H         1 UNK         0.0695 
     78 H78        21.3525  -25.2916  -47.1515 H         1 UNK         0.0983 
     79 H79        19.4244  -25.0743  -44.9273 H         1 UNK         0.3095 
     80 H80        17.7462  -23.1909  -45.5198 H         1 UNK         0.0454 
     81 H81        15.6665  -23.0010  -46.8657 H         1 UNK         0.0851 
     82 H82        16.2976  -24.1568  -48.0393 H         1 UNK         0.0851 
     83 H83        17.0749  -22.5941  -47.8287 H         1 UNK         0.0851 
     84 H84        16.0487  -25.5241  -46.0059 H         1 UNK         0.2976 
     85 H85        23.5123  -25.9141  -46.2199 H         1 UNK         0.3116 
     86 H86        24.1967  -24.4684  -43.7897 H         1 UNK         0.0646 
     87 H87        25.7922  -24.6290  -45.7092 H         1 UNK         0.0847 
     88 H88        26.4777  -25.3728  -44.2743 H         1 UNK         0.0847 
     89 H89        25.8280  -26.3866  -45.5530 H         1 UNK         0.0847 
     90 H90        24.9743  -25.4187  -41.8530 H         1 UNK         0.3040 
     91 H91        23.4616  -27.6314  -40.9113 H         1 UNK         0.1015 
     92 H92        25.8466  -26.1644  -39.6411 H         1 UNK         0.0786 
     93 H93        24.7329  -27.2269  -38.7898 H         1 UNK         0.0786 
     94 H94        24.1473  -25.7176  -39.4649 H         1 UNK         0.0786 
     95 H95        24.1521  -29.6245  -40.0014 H         1 UNK         0.3172 
     96 H96        26.7639  -30.7528  -40.5040 H         1 UNK         0.0595 
     97 H97        24.3506  -31.8572  -42.0752 H         1 UNK         0.0839 
     98 H98        25.9689  -32.5458  -42.0584 H         1 UNK         0.0839 
     99 H99        25.6941  -30.9857  -42.8034 H         1 UNK         0.0839 
    100 H100       26.4654  -33.2906  -39.9693 H         1 UNK         0.2998 
    101 H101       25.5724  -33.4986  -37.2996 H         1 UNK         0.0822 
    102 H102       27.3382  -34.9477  -38.2711 H         1 UNK         0.0787 
    103 H103       26.0493  -35.9366  -37.6075 H         1 UNK         0.0787 
    104 H104       26.1631  -35.7071  -39.3468 H         1 UNK         0.0787 
    105 H105       23.7955  -33.9801  -40.2692 H         1 UNK         0.3055 
    106 H106       21.5001  -35.3004  -38.9481 H         1 UNK         0.1106 
    107 H107       22.2583  -36.1297  -41.1652 H         1 UNK         0.0828 
    108 H108       20.6464  -35.4506  -41.2905 H         1 UNK         0.0828 
    109 H109       22.0278  -34.5315  -41.8718 H         1 UNK         0.0828 
    110 H110       22.5115  -32.0706  -39.1841 H         1 UNK         0.2931 
    111 H111       19.8603  -31.0317  -38.7566 H         1 UNK         0.0412 
    112 H112       20.6243  -30.2717  -36.7636 H         1 UNK         0.3472 
    113 H113       21.8182  -29.0018  -36.6736 H         1 UNK         0.3472 
    114 H114       19.9614  -29.3599  -40.6822 H         1 UNK         0.0970 
    115 H115       19.5100  -30.9847  -41.0662 H         1 UNK         0.0970 
    116 H116       21.9553  -32.2054  -43.5874 H         1 UNK         0.0612 
    117 H117       20.6298  -32.5563  -42.5100 H         1 UNK         0.0612 
@<TRIPOS>BOND
     1    1    2 1    
     2    1   62 1    
     3    1   63 1    
     4    1   64 1    
     5    2    3 2    
     6    2    4 am   BACKBONE|DICT|INTERRES
     7    4    5 1    
     8    4   65 1    
     9    5    6 1    
    10    5   25 1    
    11    5   66 1    
    12    6    7 1    
    13    6   67 1    
    14    6   68 1    
    15    7    8 1    
    16    8    9 1    
    17    8   69 1    
    18    8   70 1    
    19    9   10 ar   
    20    9   14 ar   
    21   10   11 ar   
    22   10   71 1    
    23   11   12 ar   
    24   11   61 1    
    25   12   13 ar   
    26   12   72 1    
    27   13   14 ar   
    28   13   15 1    
    29   14   73 1    
    30   15   16 1    
    31   15   74 1    
    32   15   75 1    
    33   16   17 1    
    34   17   18 1    
    35   17   76 1    
    36   17   77 1    
    37   18   19 1    
    38   18   27 1    
    39   18   78 1    
    40   19   20 am   BACKBONE|DICT|INTERRES
    41   19   79 1    
    42   20   21 2    
    43   20   22 1    
    44   22   23 1    
    45   22   24 1    
    46   22   80 1    
    47   23   81 1    
    48   23   82 1    
    49   23   83 1    
    50   24   25 am   BACKBONE|DICT|INTERRES
    51   24   84 1    
    52   25   26 2    
    53   27   28 2    
    54   27   29 am   BACKBONE|DICT|INTERRES
    55   29   30 1    
    56   29   85 1    
    57   30   31 1    
    58   30   32 1    
    59   30   86 1    
    60   31   87 1    
    61   31   88 1    
    62   31   89 1    
    63   32   33 2    
    64   32   34 am   BACKBONE|DICT|INTERRES
    65   34   35 1    
    66   34   90 1    
    67   35   36 1    
    68   35   37 1    
    69   35   91 1    
    70   36   92 1    
    71   36   93 1    
    72   36   94 1    
    73   37   38 2    
    74   37   39 am   BACKBONE|DICT|INTERRES
    75   39   40 1    
    76   39   95 1    
    77   40   41 1    
    78   40   42 1    
    79   40   96 1    
    80   41   97 1    
    81   41   98 1    
    82   41   99 1    
    83   42   43 2    
    84   42   44 am   BACKBONE|DICT|INTERRES
    85   44   45 1    
    86   44  100 1    
    87   45   46 1    
    88   45   47 1    
    89   45  101 1    
    90   46  102 1    
    91   46  103 1    
    92   46  104 1    
    93   47   48 2    
    94   47   49 am   BACKBONE|DICT|INTERRES
    95   49   50 1    
    96   49  105 1    
    97   50   51 1    
    98   50   52 1    
    99   50  106 1    
   100   51  107 1    
   101   51  108 1    
   102   51  109 1    
   103   52   53 2    
   104   52   54 am   BACKBONE|DICT|INTERRES
   105   54   55 1    
   106   54  110 1    
   107   55   56 1    
   108   55   59 1    
   109   55  111 1    
   110   56   57 am   BACKBONE|DICT|INTERRES
   111   56   58 2    
   112   57  112 1    
   113   57  113 1    
   114   59   60 1    
   115   59  114 1    
   116   59  115 1    
   117   60   61 1    
   118   61  116 1    
   119   61  117 1    
@<TRIPOS>SUBSTRUCTURE
     1 UNK         1 GROUP             0       ****    0 ROOT    
