@<TRIPOS>MOLECULE
3R8
117   119    1
SMALL
USER_CHARGES


@<TRIPOS>ATOM
      1 CA         17.2132  -22.2442  -47.3960 C.3       0 UNK        -0.2013 
      2 C          18.1490  -23.3462  -46.9230 C.2       0 UNK         0.4866 
      3 O          19.2891  -23.0646  -46.5535 O.2       0 UNK        -0.5176 
      4 N          17.6773  -24.5998  -46.9345 N.am      1 UNK        -0.4884 
      5 CA         18.4173  -25.7855  -46.4814 C.3       1 UNK         0.0853 
      6 C6         17.7717  -27.0998  -46.9888 C.3       10 UNK        -0.0849 
      7 S7         15.9854  -27.2354  -46.6221 S.3       10 UNK        -0.2776 
      8 C8         15.6787  -28.9941  -46.9768 C.3       10 UNK         0.0316 
      9 C9         16.2933  -29.8970  -45.9181 C.ar      10 UNK        -0.0863 
     10 C10        17.4124  -30.6795  -46.2126 C.ar      10 UNK        -0.1009 
     11 C11        17.9742  -31.5102  -45.2383 C.ar      10 UNK        -0.0712 
     12 C12        17.4136  -31.5495  -43.9567 C.ar      10 UNK        -0.0894 
     13 C13        16.2933  -30.7692  -43.6515 C.ar      10 UNK        -0.0745 
     14 C14        15.7331  -29.9551  -44.6405 C.ar      10 UNK        -0.0972 
     15 C15        15.6610  -30.8170  -42.2677 C.3       10 UNK         0.0209 
     16 S16        15.6566  -29.1803  -41.4672 S.3       10 UNK        -0.2568 
     17 C17        17.2928  -29.1313  -40.6646 C.3       10 UNK        -0.0983 
     18 CA         18.4484  -28.6055  -41.5613 C.3       3 UNK         0.0876 
     19 N          18.1748  -27.3498  -42.2785 N.am      3 UNK        -0.4424 
     20 C          17.8165  -26.1601  -41.7809 C.2       2 UNK         0.4918 
     21 O          17.6072  -25.9659  -40.5824 O.2       2 UNK        -0.4875 
     22 CA         17.6995  -24.9613  -42.7469 C.3       2 UNK         0.0481 
     23 CB         18.7859  -23.9143  -42.4290 C.3       2 UNK        -0.1831 
     24 N          17.6873  -25.2534  -44.1905 N.am      2 UNK        -0.4498 
     25 C          18.6453  -25.8041  -44.9540 C.2       1 UNK         0.5027 
     26 O          19.6779  -26.3024  -44.5062 O.2       1 UNK        -0.4969 
     27 C          19.7607  -28.5421  -40.7502 C.2       3 UNK         0.5005 
     28 O          20.6085  -29.4246  -40.8877 O.2       3 UNK        -0.5279 
     29 N          19.9155  -27.4987  -39.9247 N.am      4 UNK        -0.4463 
     30 CA         21.0468  -27.2359  -39.0322 C.3       4 UNK         0.0283 
     31 CB         20.5914  -26.2515  -37.9389 C.3       4 UNK        -0.1875 
     32 C          22.3097  -26.7524  -39.7753 C.2       4 UNK         0.4949 
     33 O          22.8680  -25.7064  -39.4390 O.2       4 UNK        -0.5039 
     34 N          22.7436  -27.5309  -40.7712 N.am      5 UNK        -0.4663 
     35 CA         24.0240  -27.3832  -41.4635 C.3       5 UNK         0.0242 
     36 CB         23.9468  -28.1537  -42.7928 C.3       5 UNK        -0.1982 
     37 C          25.1832  -27.9028  -40.5930 C.2       5 UNK         0.5017 
     38 O          24.9455  -28.5972  -39.6016 O.2       5 UNK        -0.5012 
     39 N          26.4253  -27.6104  -41.0036 N.am      6 UNK        -0.4439 
     40 CA         27.6577  -28.0264  -40.3154 C.3       6 UNK         0.0297 
     41 CB         28.8731  -27.4191  -41.0346 C.3       6 UNK        -0.2006 
     42 C          27.8279  -29.5530  -40.1713 C.2       6 UNK         0.4892 
     43 O          28.4251  -30.0030  -39.1932 O.2       6 UNK        -0.5089 
     44 N          27.2797  -30.3117  -41.1295 N.am      7 UNK        -0.4243 
     45 CA         27.2281  -31.7769  -41.1291 C.3       7 UNK         0.0196 
     46 CB         27.5896  -32.2755  -42.5408 C.3       7 UNK        -0.2007 
     47 C          25.8520  -32.3168  -40.6868 C.2       7 UNK         0.5020 
     48 O          25.5774  -33.4985  -40.9012 O.2       7 UNK        -0.5147 
     49 N          24.9828  -31.4490  -40.1393 N.am      8 UNK        -0.4734 
     50 CA         23.5923  -31.7083  -39.7238 C.3       8 UNK         0.0238 
     51 CB         23.5583  -32.6576  -38.5076 C.3       8 UNK        -0.1912 
     52 C          22.6717  -32.1862  -40.8675 C.2       8 UNK         0.5038 
     53 O          21.6360  -32.7999  -40.6041 O.2       8 UNK        -0.5046 
     54 N          23.0821  -31.9110  -42.1135 N.am      9 UNK        -0.4200 
     55 CA         22.4654  -32.3799  -43.3604 C.3       9 UNK         0.0839 
     56 C          22.5078  -33.9303  -43.5473 C.2       9 UNK         0.5513 
     57 N          23.4237  -34.6422  -42.8978 N.am      9 UNK        -0.7519 
     58 O          21.7245  -34.4999  -44.3022 O.2       9 UNK        -0.4960 
     59 C59        21.0707  -31.7328  -43.5969 C.3       10 UNK        -0.0876 
     60 S60        20.7308  -31.4505  -45.3670 S.3       10 UNK        -0.2414 
     61 C61        19.1788  -32.3698  -45.5890 C.3       10 UNK         0.0169 
     62 H62        17.0538  -21.5197  -46.5978 H         1 UNK         0.0903 
     63 H63        17.6483  -21.7226  -48.2480 H         1 UNK         0.0903 
     64 H64        16.2417  -22.6352  -47.6981 H         1 UNK         0.0903 
     65 H65        16.7343  -24.7797  -47.2523 H         1 UNK         0.3096 
     66 H66        19.4139  -25.7275  -46.9259 H         1 UNK         0.1121 
     67 H67        18.2995  -27.9641  -46.5810 H         1 UNK         0.0849 
     68 H68        17.8936  -27.1668  -48.0710 H         1 UNK         0.0849 
     69 H69        14.6017  -29.1651  -47.0120 H         1 UNK         0.0865 
     70 H70        16.0580  -29.2378  -47.9706 H         1 UNK         0.0865 
     71 H71        17.8499  -30.6439  -47.2012 H         1 UNK         0.1346 
     72 H72        17.8445  -32.1918  -43.2012 H         1 UNK         0.1412 
     73 H73        14.8652  -29.3519  -44.4096 H         1 UNK         0.1426 
     74 H74        16.1577  -31.5466  -41.6265 H         1 UNK         0.0716 
     75 H75        14.6289  -31.1551  -42.3705 H         1 UNK         0.0716 
     76 H76        17.5297  -30.1299  -40.2929 H         1 UNK         0.0695 
     77 H77        17.1865  -28.5070  -39.7757 H         1 UNK         0.0695 
     78 H78        18.6118  -29.3467  -42.3452 H         1 UNK         0.0983 
     79 H79        18.4198  -27.3606  -43.2605 H         1 UNK         0.3095 
     80 H80        16.7317  -24.5040  -42.5364 H         1 UNK         0.0454 
     81 H81        19.7894  -24.3102  -42.5890 H         1 UNK         0.0851 
     82 H82        18.7284  -23.5906  -41.3888 H         1 UNK         0.0851 
     83 H83        18.6743  -23.0250  -43.0494 H         1 UNK         0.0851 
     84 H84        16.8637  -24.9316  -44.6803 H         1 UNK         0.2976 
     85 H85        19.1632  -26.8144  -39.9181 H         1 UNK         0.3116 
     86 H86        21.3136  -28.1739  -38.5407 H         1 UNK         0.0646 
     87 H87        19.7392  -26.6418  -37.3823 H         1 UNK         0.0847 
     88 H88        20.3040  -25.2870  -38.3598 H         1 UNK         0.0847 
     89 H89        21.3891  -26.0692  -37.2176 H         1 UNK         0.0847 
     90 H90        22.2054  -28.3719  -40.9616 H         1 UNK         0.3040 
     91 H91        24.1945  -26.3243  -41.6709 H         1 UNK         0.1015 
     92 H92        23.7871  -29.2196  -42.6335 H         1 UNK         0.0786 
     93 H93        24.8628  -28.0416  -43.3740 H         1 UNK         0.0786 
     94 H94        23.1284  -27.7866  -43.4131 H         1 UNK         0.0786 
     95 H95        26.5414  -27.0426  -41.8316 H         1 UNK         0.3172 
     96 H96        27.6196  -27.6112  -39.3061 H         1 UNK         0.0595 
     97 H97        28.9504  -27.7681  -42.0651 H         1 UNK         0.0839 
     98 H98        29.8012  -27.6906  -40.5293 H         1 UNK         0.0839 
     99 H99        28.8241  -26.3301  -41.0500 H         1 UNK         0.0839 
    100 H100       26.8209  -29.8435  -41.8974 H         1 UNK         0.2998 
    101 H101       27.9650  -32.1781  -40.4302 H         1 UNK         0.0822 
    102 H102       28.5661  -31.9047  -42.8531 H         1 UNK         0.0787 
    103 H103       27.6365  -33.3649  -42.5747 H         1 UNK         0.0787 
    104 H104       26.8567  -31.9573  -43.2832 H         1 UNK         0.0787 
    105 H105       25.2884  -30.4913  -39.9885 H         1 UNK         0.3055 
    106 H106       23.1845  -30.7475  -39.4040 H         1 UNK         0.1106 
    107 H107       23.8875  -33.6634  -38.7700 H         1 UNK         0.0828 
    108 H108       22.5488  -32.7418  -38.1034 H         1 UNK         0.0828 
    109 H109       24.1971  -32.2938  -37.7030 H         1 UNK         0.0828 
    110 H110       23.9640  -31.4341  -42.2151 H         1 UNK         0.2931 
    111 H111       23.1356  -31.9984  -44.1317 H         1 UNK         0.0412 
    112 H112       23.4515  -35.6410  -43.0281 H         1 UNK         0.3472 
    113 H113       24.0788  -34.1988  -42.2647 H         1 UNK         0.3472 
    114 H114       21.0260  -30.7524  -43.1221 H         1 UNK         0.0970 
    115 H115       20.2837  -32.3222  -43.1249 H         1 UNK         0.0970 
    116 H116       19.1911  -33.2857  -44.9963 H         1 UNK         0.0612 
    117 H117       19.1104  -32.6877  -46.6304 H         1 UNK         0.0612 
@<TRIPOS>BOND
     1    1    2 1    
     2    1   62 1    
     3    1   63 1    
     4    1   64 1    
     5    2    3 2    
     6    2    4 am   BACKBONE|DICT|INTERRES
     7    4    5 1    
     8    4   65 1    
     9    5    6 1    
    10    5   25 1    
    11    5   66 1    
    12    6    7 1    
    13    6   67 1    
    14    6   68 1    
    15    7    8 1    
    16    8    9 1    
    17    8   69 1    
    18    8   70 1    
    19    9   10 ar   
    20    9   14 ar   
    21   10   11 ar   
    22   10   71 1    
    23   11   12 ar   
    24   11   61 1    
    25   12   13 ar   
    26   12   72 1    
    27   13   14 ar   
    28   13   15 1    
    29   14   73 1    
    30   15   16 1    
    31   15   74 1    
    32   15   75 1    
    33   16   17 1    
    34   17   18 1    
    35   17   76 1    
    36   17   77 1    
    37   18   19 1    
    38   18   27 1    
    39   18   78 1    
    40   19   20 am   BACKBONE|DICT|INTERRES
    41   19   79 1    
    42   20   21 2    
    43   20   22 1    
    44   22   23 1    
    45   22   24 1    
    46   22   80 1    
    47   23   81 1    
    48   23   82 1    
    49   23   83 1    
    50   24   25 am   BACKBONE|DICT|INTERRES
    51   24   84 1    
    52   25   26 2    
    53   27   28 2    
    54   27   29 am   BACKBONE|DICT|INTERRES
    55   29   30 1    
    56   29   85 1    
    57   30   31 1    
    58   30   32 1    
    59   30   86 1    
    60   31   87 1    
    61   31   88 1    
    62   31   89 1    
    63   32   33 2    
    64   32   34 am   BACKBONE|DICT|INTERRES
    65   34   35 1    
    66   34   90 1    
    67   35   36 1    
    68   35   37 1    
    69   35   91 1    
    70   36   92 1    
    71   36   93 1    
    72   36   94 1    
    73   37   38 2    
    74   37   39 am   BACKBONE|DICT|INTERRES
    75   39   40 1    
    76   39   95 1    
    77   40   41 1    
    78   40   42 1    
    79   40   96 1    
    80   41   97 1    
    81   41   98 1    
    82   41   99 1    
    83   42   43 2    
    84   42   44 am   BACKBONE|DICT|INTERRES
    85   44   45 1    
    86   44  100 1    
    87   45   46 1    
    88   45   47 1    
    89   45  101 1    
    90   46  102 1    
    91   46  103 1    
    92   46  104 1    
    93   47   48 2    
    94   47   49 am   BACKBONE|DICT|INTERRES
    95   49   50 1    
    96   49  105 1    
    97   50   51 1    
    98   50   52 1    
    99   50  106 1    
   100   51  107 1    
   101   51  108 1    
   102   51  109 1    
   103   52   53 2    
   104   52   54 am   BACKBONE|DICT|INTERRES
   105   54   55 1    
   106   54  110 1    
   107   55   56 1    
   108   55   59 1    
   109   55  111 1    
   110   56   57 am   BACKBONE|DICT|INTERRES
   111   56   58 2    
   112   57  112 1    
   113   57  113 1    
   114   59   60 1    
   115   59  114 1    
   116   59  115 1    
   117   60   61 1    
   118   61  116 1    
   119   61  117 1    
@<TRIPOS>SUBSTRUCTURE
     1 UNK         1 GROUP             0       ****    0 ROOT    
