@<TRIPOS>MOLECULE
3R8
117   119    1
SMALL
USER_CHARGES


@<TRIPOS>ATOM
      1 CA         17.0750  -23.1092  -49.8369 C.3       0 UNK        -0.2013 
      2 C          18.1956  -23.7125  -49.0031 C.2       0 UNK         0.4866 
      3 O          19.3283  -23.2321  -49.0607 O.2       0 UNK        -0.5176 
      4 N          17.8921  -24.7661  -48.2345 N.am      1 UNK        -0.4884 
      5 CA         18.8278  -25.4247  -47.3167 C.3       1 UNK         0.0853 
      6 C6         18.3252  -26.8384  -46.9294 C.3       10 UNK        -0.0849 
      7 S7         19.6913  -27.9695  -46.5037 S.3       10 UNK        -0.2776 
      8 C8         18.7830  -29.5242  -46.2247 C.3       10 UNK         0.0316 
      9 C9         18.4731  -29.7243  -44.7493 C.ar      10 UNK        -0.0863 
     10 C10        19.3075  -30.5259  -43.9650 C.ar      10 UNK        -0.1009 
     11 C11        19.0555  -30.6899  -42.6008 C.ar      10 UNK        -0.0712 
     12 C12        17.9480  -30.0621  -42.0247 C.ar      10 UNK        -0.0894 
     13 C13        17.1122  -29.2465  -42.7962 C.ar      10 UNK        -0.0745 
     14 C14        17.3711  -29.0951  -44.1619 C.ar      10 UNK        -0.0972 
     15 C15        15.9602  -28.4908  -42.1467 C.3       10 UNK         0.0209 
     16 S16        16.5234  -27.3873  -40.8057 S.3       10 UNK        -0.2568 
     17 C17        17.5228  -26.1292  -41.6833 C.3       10 UNK        -0.0983 
     18 CA         19.0170  -26.5160  -41.8983 C.3       3 UNK         0.0876 
     19 N          19.6379  -25.7753  -42.9982 N.am      3 UNK        -0.4424 
     20 C          19.9341  -24.4686  -43.0121 C.2       2 UNK         0.4918 
     21 O          19.6564  -23.6816  -42.1063 O.2       2 UNK        -0.4875 
     22 CA         20.6671  -23.9497  -44.2626 C.3       2 UNK         0.0481 
     23 CB         22.1878  -24.0662  -44.0711 C.3       2 UNK        -0.1831 
     24 N          20.2769  -24.6468  -45.4929 N.am      2 UNK        -0.4498 
     25 C          19.0680  -24.5547  -46.0647 C.2       1 UNK         0.5027 
     26 O          18.1550  -23.8494  -45.6259 O.2       1 UNK        -0.4969 
     27 C          19.9107  -26.5340  -40.6331 C.2       3 UNK         0.5005 
     28 O          21.1348  -26.4319  -40.7539 O.2       3 UNK        -0.5279 
     29 N          19.3033  -26.7460  -39.4566 N.am      4 UNK        -0.4463 
     30 CA         19.9395  -27.1616  -38.2016 C.3       4 UNK         0.0283 
     31 CB         20.8998  -26.0812  -37.6516 C.3       4 UNK        -0.1875 
     32 C          20.5674  -28.5537  -38.4018 C.2       4 UNK         0.4949 
     33 O          19.8266  -29.4908  -38.6991 O.2       4 UNK        -0.5039 
     34 N          21.8954  -28.6722  -38.2777 N.am      5 UNK        -0.4663 
     35 CA         22.6358  -29.8817  -38.6506 C.3       5 UNK         0.0242 
     36 CB         23.9288  -29.9653  -37.8245 C.3       5 UNK        -0.1982 
     37 C          22.9642  -29.9289  -40.1533 C.2       5 UNK         0.5017 
     38 O          23.1050  -31.0241  -40.7005 O.2       5 UNK        -0.5012 
     39 N          23.1290  -28.7513  -40.7793 N.am      6 UNK        -0.4439 
     40 CA         23.4705  -28.4859  -42.1897 C.3       6 UNK         0.0297 
     41 CB         22.2681  -28.8144  -43.0958 C.3       6 UNK        -0.2006 
     42 C          24.7520  -29.1705  -42.7175 C.2       6 UNK         0.4892 
     43 O          24.9669  -29.1777  -43.9302 O.2       6 UNK        -0.5089 
     44 N          25.5504  -29.7652  -41.8166 N.am      7 UNK        -0.4243 
     45 CA         26.6265  -30.7300  -42.0784 C.3       7 UNK         0.0196 
     46 CB         27.8227  -30.0487  -42.7773 C.3       7 UNK        -0.2007 
     47 C          26.1311  -31.9929  -42.8218 C.2       7 UNK         0.5020 
     48 O          26.8967  -32.5898  -43.5809 O.2       7 UNK        -0.5147 
     49 N          24.8621  -32.3717  -42.6039 N.am      8 UNK        -0.4734 
     50 CA         24.1850  -33.4601  -43.3152 C.3       8 UNK         0.0238 
     51 CB         23.3263  -32.8749  -44.4500 C.3       8 UNK        -0.1912 
     52 C          23.3318  -34.3377  -42.3896 C.2       8 UNK         0.5038 
     53 O          23.3094  -35.5536  -42.5856 O.2       8 UNK        -0.5046 
     54 N          22.6518  -33.7300  -41.4082 N.am      9 UNK        -0.4200 
     55 CA         21.8068  -34.4341  -40.4276 C.3       9 UNK         0.0839 
     56 C          22.5941  -34.9544  -39.1897 C.2       9 UNK         0.5513 
     57 N          23.8746  -34.6406  -39.0301 N.am      9 UNK        -0.7519 
     58 O          22.0329  -35.6669  -38.3614 O.2       9 UNK        -0.4960 
     59 C59        20.5848  -33.5821  -39.9916 C.3       10 UNK        -0.0876 
     60 S60        19.4575  -33.1539  -41.3658 S.3       10 UNK        -0.2414 
     61 C61        20.0250  -31.4697  -41.7294 C.3       10 UNK         0.0169 
     62 H62        17.3340  -23.1432  -50.8948 H         1 UNK         0.0903 
     63 H63        16.1335  -23.6410  -49.7015 H         1 UNK         0.0903 
     64 H64        16.9191  -22.0677  -49.5574 H         1 UNK         0.0903 
     65 H65        16.9368  -25.0928  -48.1987 H         1 UNK         0.3096 
     66 H66        19.7764  -25.5242  -47.8503 H         1 UNK         0.1121 
     67 H67        17.6017  -26.7971  -46.1134 H         1 UNK         0.0849 
     68 H68        17.7987  -27.2876  -47.7735 H         1 UNK         0.0849 
     69 H69        17.8630  -29.5437  -46.8108 H         1 UNK         0.0865 
     70 H70        19.3898  -30.3523  -46.5945 H         1 UNK         0.0865 
     71 H71        20.1709  -30.9998  -44.4114 H         1 UNK         0.1346 
     72 H72        17.7654  -30.1697  -40.9637 H         1 UNK         0.1412 
     73 H73        16.7278  -28.4687  -44.7635 H         1 UNK         0.1426 
     74 H74        15.2544  -29.2131  -41.7346 H         1 UNK         0.0716 
     75 H75        15.4073  -27.9046  -42.8823 H         1 UNK         0.0716 
     76 H76        17.0466  -25.9504  -42.6489 H         1 UNK         0.0695 
     77 H77        17.4489  -25.1843  -41.1423 H         1 UNK         0.0695 
     78 H78        19.0449  -27.5458  -42.2451 H         1 UNK         0.0983 
     79 H79        19.9284  -26.3317  -43.7883 H         1 UNK         0.3095 
     80 H80        20.4191  -22.8928  -44.3800 H         1 UNK         0.0454 
     81 H81        22.5086  -23.5322  -43.1754 H         1 UNK         0.0851 
     82 H82        22.7298  -23.6366  -44.9135 H         1 UNK         0.0851 
     83 H83        22.5046  -25.1040  -43.9591 H         1 UNK         0.0851 
     84 H84        20.9667  -25.2564  -45.9096 H         1 UNK         0.2976 
     85 H85        18.2967  -26.8613  -39.4878 H         1 UNK         0.3116 
     86 H86        19.1364  -27.2885  -37.4742 H         1 UNK         0.0646 
     87 H87        21.7469  -25.8893  -38.3098 H         1 UNK         0.0847 
     88 H88        20.3775  -25.1349  -37.5115 H         1 UNK         0.0847 
     89 H89        21.2969  -26.3709  -36.6779 H         1 UNK         0.0847 
     90 H90        22.4325  -27.8612  -38.0060 H         1 UNK         0.3040 
     91 H91        22.0330  -30.7624  -38.4187 H         1 UNK         0.1015 
     92 H92        24.4894  -30.8694  -38.0677 H         1 UNK         0.0786 
     93 H93        23.7130  -29.9996  -36.7564 H         1 UNK         0.0786 
     94 H94        24.5857  -29.1137  -38.0063 H         1 UNK         0.0786 
     95 H95        22.9302  -27.9172  -40.2424 H         1 UNK         0.3172 
     96 H96        23.6481  -27.4114  -42.2521 H         1 UNK         0.0595 
     97 H97        22.1643  -29.8880  -43.2396 H         1 UNK         0.0839 
     98 H98        22.3886  -28.3703  -44.0846 H         1 UNK         0.0839 
     99 H99        21.3337  -28.4374  -42.6838 H         1 UNK         0.0839 
    100 H100       25.2734  -29.6823  -40.8491 H         1 UNK         0.2998 
    101 H101       26.9695  -31.0749  -41.1019 H         1 UNK         0.0822 
    102 H102       28.6773  -30.7238  -42.8368 H         1 UNK         0.0787 
    103 H103       28.1489  -29.1631  -42.2322 H         1 UNK         0.0787 
    104 H104       27.5785  -29.7454  -43.7957 H         1 UNK         0.0787 
    105 H105       24.3039  -31.8321  -41.9481 H         1 UNK         0.3055 
    106 H106       24.9284  -34.1238  -43.7627 H         1 UNK         0.1106 
    107 H107       23.9373  -32.3182  -45.1606 H         1 UNK         0.0828 
    108 H108       22.8201  -33.6652  -45.0060 H         1 UNK         0.0828 
    109 H109       22.5598  -32.2001  -44.0698 H         1 UNK         0.0828 
    110 H110       22.7432  -32.7282  -41.2694 H         1 UNK         0.2931 
    111 H111       21.4037  -35.3277  -40.9084 H         1 UNK         0.0412 
    112 H112       24.3726  -34.9900  -38.2264 H         1 UNK         0.3472 
    113 H113       24.3468  -34.0630  -39.7063 H         1 UNK         0.3472 
    114 H114       20.9132  -32.6766  -39.4798 H         1 UNK         0.0970 
    115 H115       19.9873  -34.1298  -39.2603 H         1 UNK         0.0970 
    116 H116       20.9973  -31.5377  -42.2134 H         1 UNK         0.0612 
    117 H117       20.1789  -30.9233  -40.8008 H         1 UNK         0.0612 
@<TRIPOS>BOND
     1    1    2 1    
     2    1   62 1    
     3    1   63 1    
     4    1   64 1    
     5    2    3 2    
     6    2    4 am   BACKBONE|DICT|INTERRES
     7    4    5 1    
     8    4   65 1    
     9    5    6 1    
    10    5   25 1    
    11    5   66 1    
    12    6    7 1    
    13    6   67 1    
    14    6   68 1    
    15    7    8 1    
    16    8    9 1    
    17    8   69 1    
    18    8   70 1    
    19    9   10 ar   
    20    9   14 ar   
    21   10   11 ar   
    22   10   71 1    
    23   11   12 ar   
    24   11   61 1    
    25   12   13 ar   
    26   12   72 1    
    27   13   14 ar   
    28   13   15 1    
    29   14   73 1    
    30   15   16 1    
    31   15   74 1    
    32   15   75 1    
    33   16   17 1    
    34   17   18 1    
    35   17   76 1    
    36   17   77 1    
    37   18   19 1    
    38   18   27 1    
    39   18   78 1    
    40   19   20 am   BACKBONE|DICT|INTERRES
    41   19   79 1    
    42   20   21 2    
    43   20   22 1    
    44   22   23 1    
    45   22   24 1    
    46   22   80 1    
    47   23   81 1    
    48   23   82 1    
    49   23   83 1    
    50   24   25 am   BACKBONE|DICT|INTERRES
    51   24   84 1    
    52   25   26 2    
    53   27   28 2    
    54   27   29 am   BACKBONE|DICT|INTERRES
    55   29   30 1    
    56   29   85 1    
    57   30   31 1    
    58   30   32 1    
    59   30   86 1    
    60   31   87 1    
    61   31   88 1    
    62   31   89 1    
    63   32   33 2    
    64   32   34 am   BACKBONE|DICT|INTERRES
    65   34   35 1    
    66   34   90 1    
    67   35   36 1    
    68   35   37 1    
    69   35   91 1    
    70   36   92 1    
    71   36   93 1    
    72   36   94 1    
    73   37   38 2    
    74   37   39 am   BACKBONE|DICT|INTERRES
    75   39   40 1    
    76   39   95 1    
    77   40   41 1    
    78   40   42 1    
    79   40   96 1    
    80   41   97 1    
    81   41   98 1    
    82   41   99 1    
    83   42   43 2    
    84   42   44 am   BACKBONE|DICT|INTERRES
    85   44   45 1    
    86   44  100 1    
    87   45   46 1    
    88   45   47 1    
    89   45  101 1    
    90   46  102 1    
    91   46  103 1    
    92   46  104 1    
    93   47   48 2    
    94   47   49 am   BACKBONE|DICT|INTERRES
    95   49   50 1    
    96   49  105 1    
    97   50   51 1    
    98   50   52 1    
    99   50  106 1    
   100   51  107 1    
   101   51  108 1    
   102   51  109 1    
   103   52   53 2    
   104   52   54 am   BACKBONE|DICT|INTERRES
   105   54   55 1    
   106   54  110 1    
   107   55   56 1    
   108   55   59 1    
   109   55  111 1    
   110   56   57 am   BACKBONE|DICT|INTERRES
   111   56   58 2    
   112   57  112 1    
   113   57  113 1    
   114   59   60 1    
   115   59  114 1    
   116   59  115 1    
   117   60   61 1    
   118   61  116 1    
   119   61  117 1    
@<TRIPOS>SUBSTRUCTURE
     1 UNK         1 GROUP             0       ****    0 ROOT    
