@<TRIPOS>MOLECULE
3R8
117   119    1
SMALL
USER_CHARGES


@<TRIPOS>ATOM
      1 CA         14.2020  -28.0343  -47.2000 C.3       0 UNK        -0.2013 
      2 C          14.7668  -29.3855  -46.7723 C.2       0 UNK         0.4866 
      3 O          14.2995  -30.4051  -47.2770 O.2       0 UNK        -0.5176 
      4 N          15.7441  -29.4820  -45.8587 N.am      1 UNK        -0.4884 
      5 CA         16.5391  -28.4547  -45.1645 C.3       1 UNK         0.0853 
      6 C6         15.7494  -27.2975  -44.4942 C.3       10 UNK        -0.0849 
      7 S7         14.4710  -27.9190  -43.3478 S.3       10 UNK        -0.2776 
      8 C8         15.0198  -27.2501  -41.7440 C.3       10 UNK         0.0316 
      9 C9         16.3995  -27.7478  -41.3301 C.ar      10 UNK        -0.0863 
     10 C10        16.6169  -29.1043  -41.0716 C.ar      10 UNK        -0.1009 
     11 C11        17.8731  -29.5585  -40.6511 C.ar      10 UNK        -0.0712 
     12 C12        18.9137  -28.6364  -40.4894 C.ar      10 UNK        -0.0894 
     13 C13        18.7040  -27.2737  -40.7219 C.ar      10 UNK        -0.0745 
     14 C14        17.4457  -26.8391  -41.1493 C.ar      10 UNK        -0.0972 
     15 C15        19.8046  -26.2586  -40.4349 C.3       10 UNK         0.0209 
     16 S16        20.2169  -25.2618  -41.9015 S.3       10 UNK        -0.2568 
     17 C17        21.9425  -25.7528  -42.2305 C.3       10 UNK        -0.0983 
     18 CA         22.0904  -27.1860  -42.8142 C.3       3 UNK         0.0876 
     19 N          21.1848  -27.4854  -43.9297 N.am      3 UNK        -0.4424 
     20 C          21.1360  -26.8428  -45.1071 C.2       2 UNK         0.4918 
     21 O          21.8526  -25.8895  -45.4119 O.2       2 UNK        -0.4875 
     22 CA         20.1000  -27.3439  -46.1181 C.3       2 UNK         0.0481 
     23 CB         20.6849  -28.5088  -46.9415 C.3       2 UNK        -0.1831 
     24 N          18.8600  -27.7399  -45.4456 N.am      2 UNK        -0.4498 
     25 C          17.6889  -27.9495  -46.0582 C.2       1 UNK         0.5027 
     26 O          17.5090  -27.7680  -47.2647 O.2       1 UNK        -0.4969 
     27 C          23.5462  -27.5386  -43.1862 C.2       3 UNK         0.5005 
     28 O          24.4651  -26.7500  -42.9505 O.2       3 UNK        -0.5279 
     29 N          23.7324  -28.7290  -43.7733 N.am      4 UNK        -0.4463 
     30 CA         25.0368  -29.2836  -44.1316 C.3       4 UNK         0.0283 
     31 CB         24.8500  -30.5231  -45.0187 C.3       4 UNK        -0.1875 
     32 C          25.8346  -29.5961  -42.8580 C.2       4 UNK         0.4949 
     33 O          25.2929  -30.2124  -41.9370 O.2       4 UNK        -0.5039 
     34 N          27.0664  -29.0725  -42.7893 N.am      5 UNK        -0.4663 
     35 CA         27.9325  -29.0314  -41.5993 C.3       5 UNK         0.0242 
     36 CB         28.4102  -30.4517  -41.2267 C.3       5 UNK        -0.1982 
     37 C          27.2957  -28.2926  -40.3982 C.2       5 UNK         0.5017 
     38 O          27.6867  -28.5420  -39.2572 O.2       5 UNK        -0.5012 
     39 N          26.3130  -27.4185  -40.6776 N.am      6 UNK        -0.4439 
     40 CA         25.4453  -26.7076  -39.7332 C.3       6 UNK         0.0297 
     41 CB         26.2567  -25.6997  -38.8907 C.3       6 UNK        -0.2006 
     42 C          24.5704  -27.6424  -38.8702 C.2       6 UNK         0.4892 
     43 O          24.1849  -27.2438  -37.7694 O.2       6 UNK        -0.5089 
     44 N          24.2710  -28.8571  -39.3601 N.am      7 UNK        -0.4243 
     45 CA         23.5718  -29.8850  -38.5857 C.3       7 UNK         0.0196 
     46 CB         24.6002  -30.7805  -37.8713 C.3       7 UNK        -0.2007 
     47 C          22.6041  -30.7310  -39.4207 C.2       7 UNK         0.5020 
     48 O          21.4738  -30.9414  -38.9814 O.2       7 UNK        -0.5147 
     49 N          23.0519  -31.2408  -40.5747 N.am      8 UNK        -0.4734 
     50 CA         22.2872  -32.1884  -41.3886 C.3       8 UNK         0.0238 
     51 CB         23.2593  -33.0779  -42.1785 C.3       8 UNK        -0.1912 
     52 C          21.2976  -31.4740  -42.3193 C.2       8 UNK         0.5038 
     53 O          21.5955  -30.3899  -42.8265 O.2       8 UNK        -0.5046 
     54 N          20.1406  -32.1080  -42.5405 N.am      9 UNK        -0.4200 
     55 CA         19.0209  -31.5560  -43.3186 C.3       9 UNK         0.0839 
     56 C          19.2300  -31.5878  -44.8631 C.2       9 UNK         0.5513 
     57 N          20.3446  -32.0844  -45.3847 N.am      9 UNK        -0.7519 
     58 O          18.3540  -31.1534  -45.6036 O.2       9 UNK        -0.4960 
     59 C59        17.6668  -32.2210  -42.9435 C.3       10 UNK        -0.0876 
     60 S60        17.1384  -32.2597  -41.1880 S.3       10 UNK        -0.2414 
     61 C61        18.1168  -31.0170  -40.2694 C.3       10 UNK         0.0169 
     62 H62        13.5369  -27.6407  -46.4322 H         1 UNK         0.0903 
     63 H63        14.9855  -27.3076  -47.4032 H         1 UNK         0.0903 
     64 H64        13.6201  -28.1417  -48.1152 H         1 UNK         0.0903 
     65 H65        16.0997  -30.4140  -45.6901 H         1 UNK         0.3096 
     66 H66        17.0113  -29.0079  -44.3503 H         1 UNK         0.1121 
     67 H67        15.2838  -26.6373  -45.2238 H         1 UNK         0.0849 
     68 H68        16.4365  -26.6548  -43.9413 H         1 UNK         0.0849 
     69 H69        14.9943  -26.1601  -41.7894 H         1 UNK         0.0865 
     70 H70        14.2974  -27.5373  -40.9788 H         1 UNK         0.0865 
     71 H71        15.7951  -29.7987  -41.1785 H         1 UNK         0.1346 
     72 H72        19.8777  -28.9782  -40.1370 H         1 UNK         0.1412 
     73 H73        17.2783  -25.7835  -41.3168 H         1 UNK         0.1426 
     74 H74        20.6980  -26.7498  -40.0465 H         1 UNK         0.0716 
     75 H75        19.4628  -25.5879  -39.6455 H         1 UNK         0.0716 
     76 H76        22.5123  -25.6564  -41.3050 H         1 UNK         0.0695 
     77 H77        22.3629  -25.0156  -42.9167 H         1 UNK         0.0695 
     78 H78        21.8200  -27.8804  -42.0173 H         1 UNK         0.0983 
     79 H79        20.6369  -28.3239  -43.8062 H         1 UNK         0.3095 
     80 H80        19.8740  -26.5153  -46.7928 H         1 UNK         0.0454 
     81 H81        20.9120  -29.3713  -46.3147 H         1 UNK         0.0851 
     82 H82        21.6121  -28.2113  -47.4331 H         1 UNK         0.0851 
     83 H83        19.9994  -28.8363  -47.7229 H         1 UNK         0.0851 
     84 H84        18.9036  -27.8038  -44.4386 H         1 UNK         0.2976 
     85 H85        22.9411  -29.3660  -43.7959 H         1 UNK         0.3116 
     86 H86        25.5765  -28.5322  -44.7122 H         1 UNK         0.0646 
     87 H87        24.4373  -30.2489  -45.9898 H         1 UNK         0.0847 
     88 H88        25.8010  -31.0251  -45.2013 H         1 UNK         0.0847 
     89 H89        24.1736  -31.2483  -44.5711 H         1 UNK         0.0847 
     90 H90        27.4123  -28.5653  -43.5935 H         1 UNK         0.3040 
     91 H91        28.8120  -28.4476  -41.8761 H         1 UNK         0.1015 
     92 H92        27.5926  -31.0708  -40.8558 H         1 UNK         0.0786 
     93 H93        29.1701  -30.4176  -40.4450 H         1 UNK         0.0786 
     94 H94        28.8532  -30.9592  -42.0835 H         1 UNK         0.0786 
     95 H95        26.0548  -27.2938  -41.6515 H         1 UNK         0.3172 
     96 H96        24.7495  -26.1296  -40.3415 H         1 UNK         0.0595 
     97 H97        26.9232  -26.2014  -38.1885 H         1 UNK         0.0839 
     98 H98        25.5972  -25.0565  -38.3068 H         1 UNK         0.0839 
     99 H99        26.8616  -25.0496  -39.5226 H         1 UNK         0.0839 
    100 H100       24.6199  -29.1281  -40.2731 H         1 UNK         0.2998 
    101 H101       22.9581  -29.4071  -37.8187 H         1 UNK         0.0822 
    102 H102       24.1070  -31.5705  -37.3033 H         1 UNK         0.0787 
    103 H103       25.2783  -31.2582  -38.5799 H         1 UNK         0.0787 
    104 H104       25.2044  -30.2054  -37.1693 H         1 UNK         0.0787 
    105 H105       23.9622  -30.9680  -40.9398 H         1 UNK         0.3055 
    106 H106       21.7145  -32.8375  -40.7215 H         1 UNK         0.1106 
    107 H107       22.7296  -33.7358  -42.8686 H         1 UNK         0.0828 
    108 H108       23.9680  -32.4905  -42.7579 H         1 UNK         0.0828 
    109 H109       23.8370  -33.7139  -41.5076 H         1 UNK         0.0828 
    110 H110       19.9799  -33.0115  -42.1203 H         1 UNK         0.2931 
    111 H111       18.9418  -30.4978  -43.0657 H         1 UNK         0.0412 
    112 H112       20.4513  -32.1042  -46.3863 H         1 UNK         0.3472 
    113 H113       21.0727  -32.4436  -44.7903 H         1 UNK         0.3472 
    114 H114       16.8574  -31.7262  -43.4839 H         1 UNK         0.0970 
    115 H115       17.6581  -33.2537  -43.2975 H         1 UNK         0.0970 
    116 H116       17.8546  -31.1185  -39.2158 H         1 UNK         0.0612 
    117 H117       19.1742  -31.2631  -40.3206 H         1 UNK         0.0612 
@<TRIPOS>BOND
     1    1    2 1    
     2    1   62 1    
     3    1   63 1    
     4    1   64 1    
     5    2    3 2    
     6    2    4 am   BACKBONE|DICT|INTERRES
     7    4    5 1    
     8    4   65 1    
     9    5    6 1    
    10    5   25 1    
    11    5   66 1    
    12    6    7 1    
    13    6   67 1    
    14    6   68 1    
    15    7    8 1    
    16    8    9 1    
    17    8   69 1    
    18    8   70 1    
    19    9   10 ar   
    20    9   14 ar   
    21   10   11 ar   
    22   10   71 1    
    23   11   12 ar   
    24   11   61 1    
    25   12   13 ar   
    26   12   72 1    
    27   13   14 ar   
    28   13   15 1    
    29   14   73 1    
    30   15   16 1    
    31   15   74 1    
    32   15   75 1    
    33   16   17 1    
    34   17   18 1    
    35   17   76 1    
    36   17   77 1    
    37   18   19 1    
    38   18   27 1    
    39   18   78 1    
    40   19   20 am   BACKBONE|DICT|INTERRES
    41   19   79 1    
    42   20   21 2    
    43   20   22 1    
    44   22   23 1    
    45   22   24 1    
    46   22   80 1    
    47   23   81 1    
    48   23   82 1    
    49   23   83 1    
    50   24   25 am   BACKBONE|DICT|INTERRES
    51   24   84 1    
    52   25   26 2    
    53   27   28 2    
    54   27   29 am   BACKBONE|DICT|INTERRES
    55   29   30 1    
    56   29   85 1    
    57   30   31 1    
    58   30   32 1    
    59   30   86 1    
    60   31   87 1    
    61   31   88 1    
    62   31   89 1    
    63   32   33 2    
    64   32   34 am   BACKBONE|DICT|INTERRES
    65   34   35 1    
    66   34   90 1    
    67   35   36 1    
    68   35   37 1    
    69   35   91 1    
    70   36   92 1    
    71   36   93 1    
    72   36   94 1    
    73   37   38 2    
    74   37   39 am   BACKBONE|DICT|INTERRES
    75   39   40 1    
    76   39   95 1    
    77   40   41 1    
    78   40   42 1    
    79   40   96 1    
    80   41   97 1    
    81   41   98 1    
    82   41   99 1    
    83   42   43 2    
    84   42   44 am   BACKBONE|DICT|INTERRES
    85   44   45 1    
    86   44  100 1    
    87   45   46 1    
    88   45   47 1    
    89   45  101 1    
    90   46  102 1    
    91   46  103 1    
    92   46  104 1    
    93   47   48 2    
    94   47   49 am   BACKBONE|DICT|INTERRES
    95   49   50 1    
    96   49  105 1    
    97   50   51 1    
    98   50   52 1    
    99   50  106 1    
   100   51  107 1    
   101   51  108 1    
   102   51  109 1    
   103   52   53 2    
   104   52   54 am   BACKBONE|DICT|INTERRES
   105   54   55 1    
   106   54  110 1    
   107   55   56 1    
   108   55   59 1    
   109   55  111 1    
   110   56   57 am   BACKBONE|DICT|INTERRES
   111   56   58 2    
   112   57  112 1    
   113   57  113 1    
   114   59   60 1    
   115   59  114 1    
   116   59  115 1    
   117   60   61 1    
   118   61  116 1    
   119   61  117 1    
@<TRIPOS>SUBSTRUCTURE
     1 UNK         1 GROUP             0       ****    0 ROOT    
