@<TRIPOS>MOLECULE
3R8
117   119    1
SMALL
USER_CHARGES


@<TRIPOS>ATOM
      1 CA         16.9853  -27.2158  -41.1904 C.3       0 UNK        -0.2013 
      2 C          17.4791  -26.8456  -42.5807 C.2       0 UNK         0.4866 
      3 O          18.6117  -27.1787  -42.9291 O.2       0 UNK        -0.5176 
      4 N          16.6380  -26.1585  -43.3709 N.am      1 UNK        -0.4884 
      5 CA         16.9138  -25.7031  -44.7441 C.3       1 UNK         0.0853 
      6 C6         17.0630  -26.8939  -45.7386 C.3       10 UNK        -0.0849 
      7 S7         15.5489  -27.8946  -45.9771 S.3       10 UNK        -0.2776 
      8 C8         15.6111  -29.2095  -44.6995 C.3       10 UNK         0.0316 
      9 C9         16.9411  -29.9481  -44.5377 C.ar      10 UNK        -0.0863 
     10 C10        17.2770  -30.4516  -43.2760 C.ar      10 UNK        -0.1009 
     11 C11        18.5147  -31.0599  -43.0519 C.ar      10 UNK        -0.0712 
     12 C12        19.4261  -31.1660  -44.1049 C.ar      10 UNK        -0.0894 
     13 C13        19.1040  -30.6728  -45.3726 C.ar      10 UNK        -0.0745 
     14 C14        17.8449  -30.1093  -45.5955 C.ar      10 UNK        -0.0972 
     15 C15        20.1553  -30.6562  -46.4727 C.3       10 UNK         0.0209 
     16 S16        20.8673  -28.9867  -46.6955 S.3       10 UNK        -0.2568 
     17 C17        21.4029  -28.5811  -44.9955 C.3       10 UNK        -0.0983 
     18 CA         21.9539  -27.1450  -44.8226 C.3       3 UNK         0.0876 
     19 N          21.0122  -26.1424  -45.3290 N.am      3 UNK        -0.4424 
     20 C          21.2666  -24.8423  -45.5351 C.2       2 UNK         0.4918 
     21 O          22.3561  -24.3166  -45.3085 O.2       2 UNK        -0.4875 
     22 CA         20.1090  -23.9821  -46.0840 C.3       2 UNK         0.0481 
     23 CB         20.3436  -23.6557  -47.5675 C.3       2 UNK        -0.1831 
     24 N          18.8039  -24.6371  -45.9369 N.am      2 UNK        -0.4498 
     25 C          18.1241  -24.7285  -44.7837 C.2       1 UNK         0.5027 
     26 O          18.4394  -24.0911  -43.7749 O.2       1 UNK        -0.4969 
     27 C          22.3241  -26.9330  -43.3390 C.2       3 UNK         0.5005 
     28 O          23.3201  -27.5039  -42.8934 O.2       3 UNK        -0.5279 
     29 N          21.5178  -26.1517  -42.6018 N.am      4 UNK        -0.4463 
     30 CA         21.5437  -25.9253  -41.1497 C.3       4 UNK         0.0283 
     31 CB         20.5066  -24.8445  -40.8030 C.3       4 UNK        -0.1875 
     32 C          22.9031  -25.5585  -40.5256 C.2       4 UNK         0.4949 
     33 O          23.0877  -25.7850  -39.3299 O.2       4 UNK        -0.5039 
     34 N          23.8322  -25.0213  -41.3283 N.am      5 UNK        -0.4663 
     35 CA         25.2259  -24.7767  -40.9437 C.3       5 UNK         0.0242 
     36 CB         25.9194  -23.9709  -42.0538 C.3       5 UNK        -0.1982 
     37 C          26.0140  -26.0678  -40.6412 C.2       5 UNK         0.5017 
     38 O          26.9518  -26.0211  -39.8442 O.2       5 UNK        -0.5012 
     39 N          25.6180  -27.1828  -41.2698 N.am      6 UNK        -0.4439 
     40 CA         26.1502  -28.5257  -41.0370 C.3       6 UNK         0.0297 
     41 CB         26.6250  -29.1245  -42.3715 C.3       6 UNK        -0.2006 
     42 C          25.0910  -29.4304  -40.3877 C.2       6 UNK         0.4892 
     43 O          25.4223  -30.1550  -39.4486 O.2       6 UNK        -0.5089 
     44 N          23.8468  -29.3617  -40.8902 N.am      7 UNK        -0.4243 
     45 CA         22.6738  -30.1500  -40.4962 C.3       7 UNK         0.0196 
     46 CB         22.1669  -29.7028  -39.1060 C.3       7 UNK        -0.2007 
     47 C          22.9356  -31.6656  -40.6294 C.2       7 UNK         0.5020 
     48 O          23.3327  -32.1064  -41.7088 O.2       7 UNK        -0.5147 
     49 N          22.7101  -32.4253  -39.5463 N.am      8 UNK        -0.4734 
     50 CA         23.0043  -33.8581  -39.3815 C.3       8 UNK         0.0238 
     51 CB         24.5286  -34.1037  -39.4274 C.3       8 UNK        -0.1912 
     52 C          22.2263  -34.7950  -40.3298 C.2       8 UNK         0.5038 
     53 O          22.7111  -35.8848  -40.6420 O.2       8 UNK        -0.5046 
     54 N          21.0311  -34.3703  -40.7568 N.am      9 UNK        -0.4200 
     55 CA         20.0853  -35.1796  -41.5379 C.3       9 UNK         0.0839 
     56 C          19.3974  -36.2916  -40.6957 C.2       9 UNK         0.5513 
     57 N          18.8735  -37.3221  -41.3458 N.am      9 UNK        -0.7519 
     58 O          19.3150  -36.2237  -39.4704 O.2       9 UNK        -0.4960 
     59 C59        19.0657  -34.2945  -42.3032 C.3       10 UNK        -0.0876 
     60 S60        18.1202  -33.1380  -41.2479 S.3       10 UNK        -0.2414 
     61 C61        18.8894  -31.5401  -41.6571 C.3       10 UNK         0.0169 
     62 H62        17.5643  -26.6864  -40.4344 H         1 UNK         0.0903 
     63 H63        15.9331  -26.9687  -41.0512 H         1 UNK         0.0903 
     64 H64        17.1076  -28.2854  -41.0231 H         1 UNK         0.0903 
     65 H65        15.7364  -25.8854  -43.0059 H         1 UNK         0.3096 
     66 H66        16.0519  -25.1099  -45.0540 H         1 UNK         0.1121 
     67 H67        17.9037  -27.5219  -45.4493 H         1 UNK         0.0849 
     68 H68        17.2999  -26.5370  -46.7412 H         1 UNK         0.0849 
     69 H69        15.3258  -28.7568  -43.7490 H         1 UNK         0.0865 
     70 H70        14.8375  -29.9440  -44.9261 H         1 UNK         0.0865 
     71 H71        16.5845  -30.3455  -42.4522 H         1 UNK         0.1346 
     72 H72        20.4053  -31.5893  -43.9273 H         1 UNK         0.1412 
     73 H73        17.6065  -29.7235  -46.5768 H         1 UNK         0.1426 
     74 H74        20.9584  -31.3605  -46.2499 H         1 UNK         0.0716 
     75 H75        19.7096  -30.9842  -47.4128 H         1 UNK         0.0716 
     76 H76        20.5495  -28.7084  -44.3277 H         1 UNK         0.0695 
     77 H77        22.1475  -29.3199  -44.6916 H         1 UNK         0.0695 
     78 H78        22.8766  -27.0562  -45.3999 H         1 UNK         0.0983 
     79 H79        20.0916  -26.4920  -45.5456 H         1 UNK         0.3095 
     80 H80        20.0997  -23.0431  -45.5265 H         1 UNK         0.0454 
     81 H81        20.3726  -24.5564  -48.1820 H         1 UNK         0.0851 
     82 H82        19.5618  -23.0051  -47.9598 H         1 UNK         0.0851 
     83 H83        21.2931  -23.1368  -47.7071 H         1 UNK         0.0851 
     84 H84        18.4632  -25.1388  -46.7446 H         1 UNK         0.2976 
     85 H85        20.6972  -25.7941  -43.0727 H         1 UNK         0.3116 
     86 H86        21.2256  -26.8614  -40.6876 H         1 UNK         0.0646 
     87 H87        20.7496  -23.8901  -41.2719 H         1 UNK         0.0847 
     88 H88        19.5070  -25.1288  -41.1294 H         1 UNK         0.0847 
     89 H89        20.4571  -24.6769  -39.7261 H         1 UNK         0.0847 
     90 H90        23.5888  -24.8661  -42.2965 H         1 UNK         0.3040 
     91 H91        25.2225  -24.1765  -40.0310 H         1 UNK         0.1015 
     92 H92        25.9344  -24.5156  -42.9989 H         1 UNK         0.0786 
     93 H93        26.9543  -23.7507  -41.7877 H         1 UNK         0.0786 
     94 H94        25.4202  -23.0166  -42.2232 H         1 UNK         0.0786 
     95 H95        24.8132  -27.1212  -41.8905 H         1 UNK         0.3172 
     96 H96        27.0078  -28.4841  -40.3623 H         1 UNK         0.0595 
     97 H97        27.0145  -30.1336  -42.2295 H         1 UNK         0.0839 
     98 H98        27.4242  -28.5268  -42.8099 H         1 UNK         0.0839 
     99 H99        25.8155  -29.1862  -43.1003 H         1 UNK         0.0839 
    100 H100       23.6932  -28.7428  -41.6845 H         1 UNK         0.2998 
    101 H101       21.8950  -29.9123  -41.2227 H         1 UNK         0.0822 
    102 H102       21.9824  -28.6286  -39.0866 H         1 UNK         0.0787 
    103 H103       21.2247  -30.1891  -38.8499 H         1 UNK         0.0787 
    104 H104       22.8865  -29.9208  -38.3157 H         1 UNK         0.0787 
    105 H105       22.3746  -31.9551  -38.7165 H         1 UNK         0.3055 
    106 H106       22.6658  -34.1211  -38.3779 H         1 UNK         0.1106 
    107 H107       25.0576  -33.4471  -38.7365 H         1 UNK         0.0828 
    108 H108       24.7718  -35.1293  -39.1467 H         1 UNK         0.0828 
    109 H109       24.9347  -33.9350  -40.4252 H         1 UNK         0.0828 
    110 H110       20.6841  -33.4855  -40.4205 H         1 UNK         0.2931 
    111 H111       20.6744  -35.6981  -42.2976 H         1 UNK         0.0412 
    112 H112       18.4151  -38.0507  -40.8204 H         1 UNK         0.3472 
    113 H113       18.9339  -37.3928  -42.3500 H         1 UNK         0.3472 
    114 H114       19.5950  -33.7354  -43.0737 H         1 UNK         0.0970 
    115 H115       18.3529  -34.9148  -42.8494 H         1 UNK         0.0970 
    116 H116       18.5702  -30.7986  -40.9232 H         1 UNK         0.0612 
    117 H117       19.9719  -31.6209  -41.5550 H         1 UNK         0.0612 
@<TRIPOS>BOND
     1    1    2 1    
     2    1   62 1    
     3    1   63 1    
     4    1   64 1    
     5    2    3 2    
     6    2    4 am   BACKBONE|DICT|INTERRES
     7    4    5 1    
     8    4   65 1    
     9    5    6 1    
    10    5   25 1    
    11    5   66 1    
    12    6    7 1    
    13    6   67 1    
    14    6   68 1    
    15    7    8 1    
    16    8    9 1    
    17    8   69 1    
    18    8   70 1    
    19    9   10 ar   
    20    9   14 ar   
    21   10   11 ar   
    22   10   71 1    
    23   11   12 ar   
    24   11   61 1    
    25   12   13 ar   
    26   12   72 1    
    27   13   14 ar   
    28   13   15 1    
    29   14   73 1    
    30   15   16 1    
    31   15   74 1    
    32   15   75 1    
    33   16   17 1    
    34   17   18 1    
    35   17   76 1    
    36   17   77 1    
    37   18   19 1    
    38   18   27 1    
    39   18   78 1    
    40   19   20 am   BACKBONE|DICT|INTERRES
    41   19   79 1    
    42   20   21 2    
    43   20   22 1    
    44   22   23 1    
    45   22   24 1    
    46   22   80 1    
    47   23   81 1    
    48   23   82 1    
    49   23   83 1    
    50   24   25 am   BACKBONE|DICT|INTERRES
    51   24   84 1    
    52   25   26 2    
    53   27   28 2    
    54   27   29 am   BACKBONE|DICT|INTERRES
    55   29   30 1    
    56   29   85 1    
    57   30   31 1    
    58   30   32 1    
    59   30   86 1    
    60   31   87 1    
    61   31   88 1    
    62   31   89 1    
    63   32   33 2    
    64   32   34 am   BACKBONE|DICT|INTERRES
    65   34   35 1    
    66   34   90 1    
    67   35   36 1    
    68   35   37 1    
    69   35   91 1    
    70   36   92 1    
    71   36   93 1    
    72   36   94 1    
    73   37   38 2    
    74   37   39 am   BACKBONE|DICT|INTERRES
    75   39   40 1    
    76   39   95 1    
    77   40   41 1    
    78   40   42 1    
    79   40   96 1    
    80   41   97 1    
    81   41   98 1    
    82   41   99 1    
    83   42   43 2    
    84   42   44 am   BACKBONE|DICT|INTERRES
    85   44   45 1    
    86   44  100 1    
    87   45   46 1    
    88   45   47 1    
    89   45  101 1    
    90   46  102 1    
    91   46  103 1    
    92   46  104 1    
    93   47   48 2    
    94   47   49 am   BACKBONE|DICT|INTERRES
    95   49   50 1    
    96   49  105 1    
    97   50   51 1    
    98   50   52 1    
    99   50  106 1    
   100   51  107 1    
   101   51  108 1    
   102   51  109 1    
   103   52   53 2    
   104   52   54 am   BACKBONE|DICT|INTERRES
   105   54   55 1    
   106   54  110 1    
   107   55   56 1    
   108   55   59 1    
   109   55  111 1    
   110   56   57 am   BACKBONE|DICT|INTERRES
   111   56   58 2    
   112   57  112 1    
   113   57  113 1    
   114   59   60 1    
   115   59  114 1    
   116   59  115 1    
   117   60   61 1    
   118   61  116 1    
   119   61  117 1    
@<TRIPOS>SUBSTRUCTURE
     1 UNK         1 GROUP             0       ****    0 ROOT    
