@<TRIPOS>MOLECULE
3R8
117   119    1
SMALL
USER_CHARGES


@<TRIPOS>ATOM
      1 CA         16.4576  -21.6393  -45.4773 C.3       0 UNK        -0.2013 
      2 C          16.7997  -23.1211  -45.4547 C.2       0 UNK         0.4866 
      3 O          17.1633  -23.6836  -46.4888 O.2       0 UNK        -0.5176 
      4 N          16.6988  -23.7624  -44.2828 N.am      1 UNK        -0.4884 
      5 CA         17.0001  -25.1826  -44.0611 C.3       1 UNK         0.0853 
      6 C6         16.1643  -25.7495  -42.8772 C.3       10 UNK        -0.0849 
      7 S7         15.6162  -27.4596  -43.1868 S.3       10 UNK        -0.2776 
      8 C8         16.8352  -28.4025  -42.2229 C.3       10 UNK         0.0316 
      9 C9         17.1275  -29.7459  -42.8689 C.ar      10 UNK        -0.0863 
     10 C10        16.8143  -30.9384  -42.2116 C.ar      10 UNK        -0.1009 
     11 C11        17.1224  -32.1747  -42.7887 C.ar      10 UNK        -0.0712 
     12 C12        17.7433  -32.2002  -44.0446 C.ar      10 UNK        -0.0894 
     13 C13        18.0978  -31.0158  -44.6975 C.ar      10 UNK        -0.0745 
     14 C14        17.7567  -29.7915  -44.1150 C.ar      10 UNK        -0.0972 
     15 C15        18.8810  -31.0836  -46.0086 C.3       10 UNK         0.0209 
     16 S16        20.2013  -29.8245  -46.1890 S.3       10 UNK        -0.2568 
     17 C17        21.0753  -29.8860  -44.5796 C.3       10 UNK        -0.0983 
     18 CA         21.7697  -28.5563  -44.1680 C.3       3 UNK         0.0876 
     19 N          21.0674  -27.3474  -44.6253 N.am      3 UNK        -0.4424 
     20 C          21.5616  -26.1047  -44.5351 C.2       2 UNK         0.4918 
     21 O          22.6496  -25.8433  -44.0228 O.2       2 UNK        -0.4875 
     22 CA         20.7100  -24.9496  -45.0883 C.3       2 UNK         0.0481 
     23 CB         21.1071  -24.6506  -46.5421 C.3       2 UNK        -0.1831 
     24 N          19.2541  -25.1176  -45.0143 N.am      2 UNK        -0.4498 
     25 C          18.5289  -25.3821  -43.9178 C.2       1 UNK         0.5027 
     26 O          19.0237  -25.7041  -42.8361 O.2       1 UNK        -0.4969 
     27 C          22.0285  -28.5359  -42.6450 C.2       3 UNK         0.5005 
     28 O          23.0703  -29.0172  -42.1961 O.2       3 UNK        -0.5279 
     29 N          21.1022  -27.9333  -41.8811 N.am      4 UNK        -0.4463 
     30 CA         21.1780  -27.8036  -40.4244 C.3       4 UNK         0.0283 
     31 CB         19.8320  -27.3096  -39.8731 C.3       4 UNK        -0.1875 
     32 C          22.3247  -26.8994  -39.9433 C.2       4 UNK         0.4949 
     33 O          22.8041  -27.0968  -38.8280 O.2       4 UNK        -0.5039 
     34 N          22.7894  -25.9680  -40.7906 N.am      5 UNK        -0.4663 
     35 CA         23.9645  -25.1304  -40.5207 C.3       5 UNK         0.0242 
     36 CB         24.0127  -23.9658  -41.5223 C.3       5 UNK        -0.1982 
     37 C          25.2825  -25.9272  -40.5474 C.2       5 UNK         0.5017 
     38 O          26.2348  -25.5373  -39.8718 O.2       5 UNK        -0.5012 
     39 N          25.3009  -27.0386  -41.2965 N.am      6 UNK        -0.4439 
     40 CA         26.3870  -28.0206  -41.3263 C.3       6 UNK         0.0297 
     41 CB         26.5366  -28.5397  -42.7675 C.3       6 UNK        -0.2006 
     42 C          26.1399  -29.1919  -40.3538 C.2       6 UNK         0.4892 
     43 O          26.9866  -30.0826  -40.2736 O.2       6 UNK        -0.5089 
     44 N          24.9884  -29.1867  -39.6606 N.am      7 UNK        -0.4243 
     45 CA         24.4447  -30.2488  -38.8048 C.3       7 UNK         0.0196 
     46 CB         25.3048  -30.4270  -37.5356 C.3       7 UNK        -0.2007 
     47 C          24.2079  -31.5690  -39.5677 C.2       7 UNK         0.5020 
     48 O          24.3937  -32.6481  -39.0018 O.2       7 UNK        -0.5147 
     49 N          23.8153  -31.4611  -40.8425 N.am      8 UNK        -0.4734 
     50 CA         23.5980  -32.5800  -41.7553 C.3       8 UNK         0.0238 
     51 CB         24.3389  -32.2735  -43.0690 C.3       8 UNK        -0.1912 
     52 C          22.1007  -32.7822  -42.0252 C.2       8 UNK         0.5038 
     53 O          21.3045  -31.8595  -41.8428 O.2       8 UNK        -0.5046 
     54 N          21.7622  -33.9831  -42.4997 N.am      9 UNK        -0.4200 
     55 CA         20.4455  -34.3813  -43.0003 C.3       9 UNK         0.0839 
     56 C          20.6325  -35.6694  -43.8419 C.2       9 UNK         0.5513 
     57 N          20.0942  -35.7163  -45.0525 N.am      9 UNK        -0.7519 
     58 O          21.2604  -36.6294  -43.3988 O.2       9 UNK        -0.4960 
     59 C59        19.3966  -34.5400  -41.8617 C.3       10 UNK        -0.0876 
     60 S60        17.7152  -34.9434  -42.4611 S.3       10 UNK        -0.2414 
     61 C61        16.7540  -33.4500  -42.0274 C.3       10 UNK         0.0169 
     62 H62        15.6442  -21.4533  -46.1781 H         1 UNK         0.0903 
     63 H63        16.1500  -21.2761  -44.4969 H         1 UNK         0.0903 
     64 H64        17.3229  -21.0597  -45.7979 H         1 UNK         0.0903 
     65 H65        16.4325  -23.2405  -43.4592 H         1 UNK         0.3096 
     66 H66        16.7019  -25.7196  -44.9652 H         1 UNK         0.1121 
     67 H67        15.2474  -25.1697  -42.7582 H         1 UNK         0.0849 
     68 H68        16.6732  -25.6671  -41.9149 H         1 UNK         0.0849 
     69 H69        16.4701  -28.5224  -41.2017 H         1 UNK         0.0865 
     70 H70        17.7707  -27.8504  -42.1518 H         1 UNK         0.0865 
     71 H71        16.3335  -30.9055  -41.2432 H         1 UNK         0.1346 
     72 H72        17.9746  -33.1454  -44.5123 H         1 UNK         0.1412 
     73 H73        18.0105  -28.8678  -44.6153 H         1 UNK         0.1426 
     74 H74        18.1827  -30.9807  -46.8399 H         1 UNK         0.0716 
     75 H75        19.3455  -32.0651  -46.1159 H         1 UNK         0.0716 
     76 H76        21.8146  -30.6868  -44.6289 H         1 UNK         0.0695 
     77 H77        20.3776  -30.1983  -43.8038 H         1 UNK         0.0695 
     78 H78        22.7494  -28.5397  -44.6510 H         1 UNK         0.0983 
     79 H79        20.1835  -27.4917  -45.0903 H         1 UNK         0.3095 
     80 H80        20.9500  -24.0690  -44.4891 H         1 UNK         0.0454 
     81 H81        20.8489  -25.4750  -47.2080 H         1 UNK         0.0851 
     82 H82        22.1821  -24.4854  -46.6293 H         1 UNK         0.0851 
     83 H83        20.6134  -23.7521  -46.9130 H         1 UNK         0.0851 
     84 H84        18.7313  -24.8117  -45.8292 H         1 UNK         0.2976 
     85 H85        20.3133  -27.4900  -42.3364 H         1 UNK         0.3116 
     86 H86        21.3623  -28.8005  -40.0175 H         1 UNK         0.0646 
     87 H87        19.0307  -28.0128  -40.0972 H         1 UNK         0.0847 
     88 H88        19.5574  -26.3369  -40.2823 H         1 UNK         0.0847 
     89 H89        19.8699  -27.2057  -38.7878 H         1 UNK         0.0847 
     90 H90        22.3670  -25.8827  -41.7067 H         1 UNK         0.3040 
     91 H91        23.8569  -24.7112  -39.5175 H         1 UNK         0.1015 
     92 H92        24.8217  -23.2769  -41.2759 H         1 UNK         0.0786 
     93 H93        23.0854  -23.3927  -41.5136 H         1 UNK         0.0786 
     94 H94        24.1850  -24.3134  -42.5411 H         1 UNK         0.0786 
     95 H95        24.4608  -27.2930  -41.8027 H         1 UNK         0.3172 
     96 H96        27.3264  -27.5457  -41.0363 H         1 UNK         0.0595 
     97 H97        25.6437  -29.0697  -43.1016 H         1 UNK         0.0839 
     98 H98        27.3744  -29.2334  -42.8490 H         1 UNK         0.0839 
     99 H99        26.7244  -27.7243  -43.4661 H         1 UNK         0.0839 
    100 H100       24.3782  -28.3899  -39.7844 H         1 UNK         0.2998 
    101 H101       23.4587  -29.9060  -38.4876 H         1 UNK         0.0822 
    102 H102       25.4420  -29.4797  -37.0143 H         1 UNK         0.0787 
    103 H103       24.8302  -31.1152  -36.8351 H         1 UNK         0.0787 
    104 H104       26.2914  -30.8292  -37.7676 H         1 UNK         0.0787 
    105 H105       23.6038  -30.5404  -41.2235 H         1 UNK         0.3055 
    106 H106       24.0019  -33.5021  -41.3309 H         1 UNK         0.1106 
    107 H107       23.9659  -31.3631  -43.5396 H         1 UNK         0.0828 
    108 H108       24.2250  -33.0848  -43.7890 H         1 UNK         0.0828 
    109 H109       25.4075  -32.1424  -42.8965 H         1 UNK         0.0828 
    110 H110       22.4756  -34.6899  -42.6210 H         1 UNK         0.2931 
    111 H111       20.1165  -33.5850  -43.6688 H         1 UNK         0.0412 
    112 H112       20.2067  -36.5522  -45.6051 H         1 UNK         0.3472 
    113 H113       19.5684  -34.9408  -45.4219 H         1 UNK         0.3472 
    114 H114       19.7098  -35.3214  -41.1672 H         1 UNK         0.0970 
    115 H115       19.3449  -33.6232  -41.2729 H         1 UNK         0.0970 
    116 H116       16.8522  -33.2831  -40.9535 H         1 UNK         0.0612 
    117 H117       15.6997  -33.6607  -42.2105 H         1 UNK         0.0612 
@<TRIPOS>BOND
     1    1    2 1    
     2    1   62 1    
     3    1   63 1    
     4    1   64 1    
     5    2    3 2    
     6    2    4 am   BACKBONE|DICT|INTERRES
     7    4    5 1    
     8    4   65 1    
     9    5    6 1    
    10    5   25 1    
    11    5   66 1    
    12    6    7 1    
    13    6   67 1    
    14    6   68 1    
    15    7    8 1    
    16    8    9 1    
    17    8   69 1    
    18    8   70 1    
    19    9   10 ar   
    20    9   14 ar   
    21   10   11 ar   
    22   10   71 1    
    23   11   12 ar   
    24   11   61 1    
    25   12   13 ar   
    26   12   72 1    
    27   13   14 ar   
    28   13   15 1    
    29   14   73 1    
    30   15   16 1    
    31   15   74 1    
    32   15   75 1    
    33   16   17 1    
    34   17   18 1    
    35   17   76 1    
    36   17   77 1    
    37   18   19 1    
    38   18   27 1    
    39   18   78 1    
    40   19   20 am   BACKBONE|DICT|INTERRES
    41   19   79 1    
    42   20   21 2    
    43   20   22 1    
    44   22   23 1    
    45   22   24 1    
    46   22   80 1    
    47   23   81 1    
    48   23   82 1    
    49   23   83 1    
    50   24   25 am   BACKBONE|DICT|INTERRES
    51   24   84 1    
    52   25   26 2    
    53   27   28 2    
    54   27   29 am   BACKBONE|DICT|INTERRES
    55   29   30 1    
    56   29   85 1    
    57   30   31 1    
    58   30   32 1    
    59   30   86 1    
    60   31   87 1    
    61   31   88 1    
    62   31   89 1    
    63   32   33 2    
    64   32   34 am   BACKBONE|DICT|INTERRES
    65   34   35 1    
    66   34   90 1    
    67   35   36 1    
    68   35   37 1    
    69   35   91 1    
    70   36   92 1    
    71   36   93 1    
    72   36   94 1    
    73   37   38 2    
    74   37   39 am   BACKBONE|DICT|INTERRES
    75   39   40 1    
    76   39   95 1    
    77   40   41 1    
    78   40   42 1    
    79   40   96 1    
    80   41   97 1    
    81   41   98 1    
    82   41   99 1    
    83   42   43 2    
    84   42   44 am   BACKBONE|DICT|INTERRES
    85   44   45 1    
    86   44  100 1    
    87   45   46 1    
    88   45   47 1    
    89   45  101 1    
    90   46  102 1    
    91   46  103 1    
    92   46  104 1    
    93   47   48 2    
    94   47   49 am   BACKBONE|DICT|INTERRES
    95   49   50 1    
    96   49  105 1    
    97   50   51 1    
    98   50   52 1    
    99   50  106 1    
   100   51  107 1    
   101   51  108 1    
   102   51  109 1    
   103   52   53 2    
   104   52   54 am   BACKBONE|DICT|INTERRES
   105   54   55 1    
   106   54  110 1    
   107   55   56 1    
   108   55   59 1    
   109   55  111 1    
   110   56   57 am   BACKBONE|DICT|INTERRES
   111   56   58 2    
   112   57  112 1    
   113   57  113 1    
   114   59   60 1    
   115   59  114 1    
   116   59  115 1    
   117   60   61 1    
   118   61  116 1    
   119   61  117 1    
@<TRIPOS>SUBSTRUCTURE
     1 UNK         1 GROUP             0       ****    0 ROOT    
