@<TRIPOS>MOLECULE
3R8
117   119    1
SMALL
USER_CHARGES


@<TRIPOS>ATOM
      1 CA         23.6270  -25.8245  -46.7424 C.3       0 UNK        -0.2013 
      2 C          22.1192  -25.8322  -46.9475 C.2       0 UNK         0.4866 
      3 O          21.6360  -25.2375  -47.9106 O.2       0 UNK        -0.5176 
      4 N          21.3888  -26.5012  -46.0434 N.am      1 UNK        -0.4884 
      5 CA         19.9293  -26.6602  -46.0148 C.3       1 UNK         0.0853 
      6 C6         19.4178  -27.5434  -47.1903 C.3       10 UNK        -0.0849 
      7 S7         20.1865  -29.2024  -47.2177 S.3       10 UNK        -0.2776 
      8 C8         18.7414  -30.3050  -47.1095 C.3       10 UNK         0.0316 
      9 C9         18.1276  -30.3040  -45.7178 C.ar      10 UNK        -0.0863 
     10 C10        18.7292  -31.0316  -44.6876 C.ar      10 UNK        -0.1009 
     11 C11        18.1723  -31.0406  -43.4056 C.ar      10 UNK        -0.0712 
     12 C12        16.9937  -30.3309  -43.1602 C.ar      10 UNK        -0.0894 
     13 C13        16.3925  -29.5870  -44.1800 C.ar      10 UNK        -0.0745 
     14 C14        16.9583  -29.5838  -45.4582 C.ar      10 UNK        -0.0972 
     15 C15        15.1437  -28.7661  -43.9025 C.3       10 UNK         0.0209 
     16 S16        15.5619  -27.0219  -43.5902 S.3       10 UNK        -0.2568 
     17 C17        16.2733  -27.1008  -41.9108 C.3       10 UNK        -0.0983 
     18 CA         17.8225  -27.1250  -41.8992 C.3       3 UNK         0.0876 
     19 N          18.3999  -25.9861  -42.6168 N.am      3 UNK        -0.4424 
     20 C          19.7067  -25.7697  -42.8089 C.2       2 UNK         0.4918 
     21 O          20.5982  -26.5251  -42.4182 O.2       2 UNK        -0.4875 
     22 CA         20.0544  -24.5157  -43.6247 C.3       2 UNK         0.0481 
     23 CB         21.5680  -24.2468  -43.7568 C.3       2 UNK        -0.1831 
     24 N          19.3512  -24.4342  -44.9164 N.am      2 UNK        -0.4498 
     25 C          19.1906  -25.2931  -45.9439 C.2       1 UNK         0.5027 
     26 O          18.4495  -24.9790  -46.8755 O.2       1 UNK        -0.4969 
     27 C          18.3425  -27.1909  -40.4500 C.2       3 UNK         0.5005 
     28 O          18.3400  -26.1678  -39.7616 O.2       3 UNK        -0.5279 
     29 N          18.8145  -28.3741  -40.0335 N.am      4 UNK        -0.4463 
     30 CA         19.4492  -28.7127  -38.7489 C.3       4 UNK         0.0283 
     31 CB         18.5178  -28.4211  -37.5559 C.3       4 UNK        -0.1875 
     32 C          20.8441  -28.0913  -38.5313 C.2       4 UNK         0.4949 
     33 O          21.6657  -28.7027  -37.8488 O.2       4 UNK        -0.5039 
     34 N          21.0948  -26.9061  -39.1005 N.am      5 UNK        -0.4663 
     35 CA         22.3690  -26.1897  -39.0408 C.3       5 UNK         0.0242 
     36 CB         22.1425  -24.7263  -39.4531 C.3       5 UNK        -0.1982 
     37 C          23.4635  -26.8324  -39.9087 C.2       5 UNK         0.5017 
     38 O          24.6314  -26.8020  -39.5175 O.2       5 UNK        -0.5012 
     39 N          23.0776  -27.3833  -41.0683 N.am      6 UNK        -0.4439 
     40 CA         23.9690  -28.0750  -42.0003 C.3       6 UNK         0.0297 
     41 CB         23.2110  -28.3589  -43.3065 C.3       6 UNK        -0.2006 
     42 C          24.5200  -29.3856  -41.4173 C.2       6 UNK         0.4892 
     43 O          23.7827  -30.1254  -40.7632 O.2       6 UNK        -0.5089 
     44 N          25.7889  -29.6842  -41.7312 N.am      7 UNK        -0.4243 
     45 CA         26.4829  -30.9186  -41.3391 C.3       7 UNK         0.0196 
     46 CB         27.9617  -30.8233  -41.7470 C.3       7 UNK        -0.2007 
     47 C          25.8460  -32.1958  -41.9173 C.2       7 UNK         0.5020 
     48 O          25.9531  -33.2585  -41.3048 O.2       7 UNK        -0.5147 
     49 N          25.1535  -32.0598  -43.0579 N.am      8 UNK        -0.4734 
     50 CA         24.3519  -33.1050  -43.7015 C.3       8 UNK         0.0238 
     51 CB         23.8178  -32.5703  -45.0410 C.3       8 UNK        -0.1912 
     52 C          23.1881  -33.6250  -42.8359 C.2       8 UNK         0.5038 
     53 O          22.7422  -34.7519  -43.0561 O.2       8 UNK        -0.5046 
     54 N          22.7270  -32.8141  -41.8739 N.am      9 UNK        -0.4200 
     55 CA         21.6966  -33.1833  -40.8941 C.3       9 UNK         0.0839 
     56 C          22.2267  -34.0555  -39.7185 C.2       9 UNK         0.5513 
     57 N          23.5271  -34.2984  -39.5910 N.am      9 UNK        -0.7519 
     58 O          21.4363  -34.5319  -38.9080 O.2       9 UNK        -0.4960 
     59 C59        20.9206  -31.9462  -40.3675 C.3       10 UNK        -0.0876 
     60 S60        20.2995  -30.8536  -41.6900 S.3       10 UNK        -0.2414 
     61 C61        18.8649  -31.7951  -42.2846 C.3       10 UNK         0.0169 
     62 H62        24.1272  -26.2178  -47.6270 H         1 UNK         0.0903 
     63 H63        23.9770  -24.8057  -46.5779 H         1 UNK         0.0903 
     64 H64        23.9296  -26.4289  -45.8878 H         1 UNK         0.0903 
     65 H65        21.8678  -26.9758  -45.2933 H         1 UNK         0.3096 
     66 H66        19.6845  -27.2052  -45.1039 H         1 UNK         0.1121 
     67 H67        19.6212  -27.0645  -48.1497 H         1 UNK         0.0849 
     68 H68        18.3336  -27.6505  -47.1380 H         1 UNK         0.0849 
     69 H69        18.0045  -30.0216  -47.8628 H         1 UNK         0.0865 
     70 H70        19.0548  -31.3190  -47.3627 H         1 UNK         0.0865 
     71 H71        19.6440  -31.5768  -44.8780 H         1 UNK         0.1346 
     72 H72        16.5598  -30.3340  -42.1697 H         1 UNK         0.1412 
     73 H73        16.4901  -29.0105  -46.2468 H         1 UNK         0.1426 
     74 H74        14.5859  -29.1743  -43.0583 H         1 UNK         0.0716 
     75 H75        14.4740  -28.8187  -44.7622 H         1 UNK         0.0716 
     76 H76        15.8711  -27.9735  -41.3931 H         1 UNK         0.0695 
     77 H77        15.9052  -26.2328  -41.3600 H         1 UNK         0.0695 
     78 H78        18.1653  -28.0169  -42.4250 H         1 UNK         0.0983 
     79 H79        17.7367  -25.3172  -42.9795 H         1 UNK         0.3095 
     80 H80        19.6534  -23.6802  -43.0490 H         1 UNK         0.0454 
     81 H81        22.1423  -25.1342  -44.0079 H         1 UNK         0.0851 
     82 H82        21.9700  -23.8870  -42.8097 H         1 UNK         0.0851 
     83 H83        21.7791  -23.4827  -44.5047 H         1 UNK         0.0851 
     84 H84        18.8361  -23.5712  -45.0177 H         1 UNK         0.2976 
     85 H85        18.8412  -29.1276  -40.7091 H         1 UNK         0.3116 
     86 H86        19.6002  -29.7925  -38.7788 H         1 UNK         0.0646 
     87 H87        18.3495  -27.3528  -37.4178 H         1 UNK         0.0847 
     88 H88        18.9487  -28.7995  -36.6281 H         1 UNK         0.0847 
     89 H89        17.5477  -28.9015  -37.6818 H         1 UNK         0.0847 
     90 H90        20.3315  -26.4577  -39.5957 H         1 UNK         0.3040 
     91 H91        22.7199  -26.2045  -38.0065 H         1 UNK         0.1015 
     92 H92        21.7551  -24.6500  -40.4694 H         1 UNK         0.0786 
     93 H93        23.0740  -24.1599  -39.4139 H         1 UNK         0.0786 
     94 H94        21.4347  -24.2322  -38.7873 H         1 UNK         0.0786 
     95 H95        22.0985  -27.3258  -41.3298 H         1 UNK         0.3172 
     96 H96        24.8039  -27.4068  -42.2217 H         1 UNK         0.0595 
     97 H97        23.8495  -28.8570  -44.0371 H         1 UNK         0.0839 
     98 H98        22.8615  -27.4336  -43.7584 H         1 UNK         0.0839 
     99 H99        22.3427  -28.9981  -43.1385 H         1 UNK         0.0839 
    100 H100       26.3212  -29.0232  -42.2793 H         1 UNK         0.2998 
    101 H101       26.4298  -30.9954  -40.2510 H         1 UNK         0.0822 
    102 H102       28.5079  -31.7181  -41.4445 H         1 UNK         0.0787 
    103 H103       28.0779  -30.7203  -42.8267 H         1 UNK         0.0787 
    104 H104       28.4511  -29.9725  -41.2724 H         1 UNK         0.0787 
    105 H105       25.1320  -31.1463  -43.4861 H         1 UNK         0.3055 
    106 H106       25.0098  -33.9537  -43.9009 H         1 UNK         0.1106 
    107 H107       23.2404  -33.3343  -45.5637 H         1 UNK         0.0828 
    108 H108       23.1631  -31.7088  -44.9003 H         1 UNK         0.0828 
    109 H109       24.6301  -32.2725  -45.7042 H         1 UNK         0.0828 
    110 H110       23.1545  -31.9057  -41.7356 H         1 UNK         0.2931 
    111 H111       20.9696  -33.8118  -41.4111 H         1 UNK         0.0412 
    112 H112       24.1968  -33.9185  -40.2485 H         1 UNK         0.3472 
    113 H113       23.8471  -34.8697  -38.8250 H         1 UNK         0.3472 
    114 H114       21.5661  -31.3461  -39.7229 H         1 UNK         0.0970 
    115 H115       20.0789  -32.2561  -39.7453 H         1 UNK         0.0970 
    116 H116       19.1901  -32.7710  -42.6475 H         1 UNK         0.0612 
    117 H117       18.1778  -31.9784  -41.4571 H         1 UNK         0.0612 
@<TRIPOS>BOND
     1    1    2 1    
     2    1   62 1    
     3    1   63 1    
     4    1   64 1    
     5    2    3 2    
     6    2    4 am   BACKBONE|DICT|INTERRES
     7    4    5 1    
     8    4   65 1    
     9    5    6 1    
    10    5   25 1    
    11    5   66 1    
    12    6    7 1    
    13    6   67 1    
    14    6   68 1    
    15    7    8 1    
    16    8    9 1    
    17    8   69 1    
    18    8   70 1    
    19    9   10 ar   
    20    9   14 ar   
    21   10   11 ar   
    22   10   71 1    
    23   11   12 ar   
    24   11   61 1    
    25   12   13 ar   
    26   12   72 1    
    27   13   14 ar   
    28   13   15 1    
    29   14   73 1    
    30   15   16 1    
    31   15   74 1    
    32   15   75 1    
    33   16   17 1    
    34   17   18 1    
    35   17   76 1    
    36   17   77 1    
    37   18   19 1    
    38   18   27 1    
    39   18   78 1    
    40   19   20 am   BACKBONE|DICT|INTERRES
    41   19   79 1    
    42   20   21 2    
    43   20   22 1    
    44   22   23 1    
    45   22   24 1    
    46   22   80 1    
    47   23   81 1    
    48   23   82 1    
    49   23   83 1    
    50   24   25 am   BACKBONE|DICT|INTERRES
    51   24   84 1    
    52   25   26 2    
    53   27   28 2    
    54   27   29 am   BACKBONE|DICT|INTERRES
    55   29   30 1    
    56   29   85 1    
    57   30   31 1    
    58   30   32 1    
    59   30   86 1    
    60   31   87 1    
    61   31   88 1    
    62   31   89 1    
    63   32   33 2    
    64   32   34 am   BACKBONE|DICT|INTERRES
    65   34   35 1    
    66   34   90 1    
    67   35   36 1    
    68   35   37 1    
    69   35   91 1    
    70   36   92 1    
    71   36   93 1    
    72   36   94 1    
    73   37   38 2    
    74   37   39 am   BACKBONE|DICT|INTERRES
    75   39   40 1    
    76   39   95 1    
    77   40   41 1    
    78   40   42 1    
    79   40   96 1    
    80   41   97 1    
    81   41   98 1    
    82   41   99 1    
    83   42   43 2    
    84   42   44 am   BACKBONE|DICT|INTERRES
    85   44   45 1    
    86   44  100 1    
    87   45   46 1    
    88   45   47 1    
    89   45  101 1    
    90   46  102 1    
    91   46  103 1    
    92   46  104 1    
    93   47   48 2    
    94   47   49 am   BACKBONE|DICT|INTERRES
    95   49   50 1    
    96   49  105 1    
    97   50   51 1    
    98   50   52 1    
    99   50  106 1    
   100   51  107 1    
   101   51  108 1    
   102   51  109 1    
   103   52   53 2    
   104   52   54 am   BACKBONE|DICT|INTERRES
   105   54   55 1    
   106   54  110 1    
   107   55   56 1    
   108   55   59 1    
   109   55  111 1    
   110   56   57 am   BACKBONE|DICT|INTERRES
   111   56   58 2    
   112   57  112 1    
   113   57  113 1    
   114   59   60 1    
   115   59  114 1    
   116   59  115 1    
   117   60   61 1    
   118   61  116 1    
   119   61  117 1    
@<TRIPOS>SUBSTRUCTURE
     1 UNK         1 GROUP             0       ****    0 ROOT    
