@<TRIPOS>MOLECULE
3R8
117   119    1
SMALL
USER_CHARGES


@<TRIPOS>ATOM
      1 CA         16.1229  -27.0029  -48.8977 C.3       0 UNK        -0.2013 
      2 C          16.2679  -26.5312  -47.4584 C.2       0 UNK         0.4866 
      3 O          15.6774  -25.5157  -47.0891 O.2       0 UNK        -0.5176 
      4 N          17.0465  -27.2642  -46.6504 N.am      1 UNK        -0.4884 
      5 CA         17.3515  -26.9881  -45.2405 C.3       1 UNK         0.0853 
      6 C6         16.1250  -27.1364  -44.2935 C.3       10 UNK        -0.0849 
      7 S7         15.5980  -28.8755  -44.1640 S.3       10 UNK        -0.2776 
      8 C8         15.9689  -29.2420  -42.4133 C.3       10 UNK         0.0316 
      9 C9         17.4509  -29.1300  -42.0618 C.ar      10 UNK        -0.0863 
     10 C10        18.4045  -29.8717  -42.7661 C.ar      10 UNK        -0.1009 
     11 C11        19.7523  -29.8333  -42.3971 C.ar      10 UNK        -0.0712 
     12 C12        20.1470  -29.0420  -41.3143 C.ar      10 UNK        -0.0894 
     13 C13        19.2095  -28.2843  -40.6060 C.ar      10 UNK        -0.0745 
     14 C14        17.8631  -28.3327  -40.9870 C.ar      10 UNK        -0.0972 
     15 C15        19.6382  -27.4696  -39.3889 C.3       10 UNK         0.0209 
     16 S16        19.3761  -25.6773  -39.6059 S.3       10 UNK        -0.2568 
     17 C17        20.9338  -25.1268  -40.3893 C.3       10 UNK        -0.0983 
     18 CA         20.9750  -25.3967  -41.9146 C.3       3 UNK         0.0876 
     19 N          19.7942  -24.9097  -42.6311 N.am      3 UNK        -0.4424 
     20 C          19.4783  -23.6504  -42.9644 C.2       2 UNK         0.4918 
     21 O          20.1340  -22.6639  -42.6277 O.2       2 UNK        -0.4875 
     22 CA         18.2135  -23.4609  -43.8329 C.3       2 UNK         0.0481 
     23 CB         18.4781  -22.5179  -45.0250 C.3       2 UNK        -0.1831 
     24 N          17.5947  -24.7200  -44.2847 N.am      2 UNK        -0.4498 
     25 C          18.1227  -25.6589  -45.0896 C.2       1 UNK         0.5027 
     26 O          19.2214  -25.5470  -45.6382 O.2       1 UNK        -0.4969 
     27 C          22.2929  -24.9655  -42.5971 C.2       3 UNK         0.5005 
     28 O          23.2579  -24.6018  -41.9213 O.2       3 UNK        -0.5279 
     29 N          22.3065  -25.0255  -43.9401 N.am      4 UNK        -0.4463 
     30 CA         23.4894  -24.8015  -44.7797 C.3       4 UNK         0.0283 
     31 CB         23.0478  -24.6471  -46.2437 C.3       4 UNK        -0.1875 
     32 C          24.5333  -25.9267  -44.6419 C.2       4 UNK         0.4949 
     33 O          25.7243  -25.6812  -44.8338 O.2       4 UNK        -0.5039 
     34 N          24.0613  -27.1244  -44.2821 N.am      5 UNK        -0.4663 
     35 CA         24.8479  -28.2507  -43.7919 C.3       5 UNK         0.0242 
     36 CB         24.5785  -29.4730  -44.6867 C.3       5 UNK        -0.1982 
     37 C          24.4103  -28.5324  -42.3467 C.2       5 UNK         0.5017 
     38 O          23.3380  -28.0813  -41.9335 O.2       5 UNK        -0.5012 
     39 N          25.2331  -29.2860  -41.6081 N.am      6 UNK        -0.4439 
     40 CA         24.9354  -29.7407  -40.2469 C.3       6 UNK         0.0297 
     41 CB         26.1912  -30.4016  -39.6543 C.3       6 UNK        -0.2006 
     42 C          23.7537  -30.7247  -40.2158 C.2       6 UNK         0.4892 
     43 O          23.5352  -31.4456  -41.1902 O.2       6 UNK        -0.5089 
     44 N          23.0571  -30.7842  -39.0718 N.am      7 UNK        -0.4243 
     45 CA         21.8814  -31.6337  -38.8190 C.3       7 UNK         0.0196 
     46 CB         21.2946  -31.2745  -37.4441 C.3       7 UNK        -0.2007 
     47 C          22.1218  -33.1553  -38.9324 C.2       7 UNK         0.5020 
     48 O          21.1573  -33.9200  -38.9530 O.2       7 UNK        -0.5147 
     49 N          23.3902  -33.5714  -39.0504 N.am      8 UNK        -0.4734 
     50 CA         23.8226  -34.9226  -39.4209 C.3       8 UNK         0.0238 
     51 CB         25.3348  -35.0409  -39.1642 C.3       8 UNK        -0.1912 
     52 C          23.4841  -35.3157  -40.8774 C.2       8 UNK         0.5038 
     53 O          23.6929  -36.4743  -41.2394 O.2       8 UNK        -0.5046 
     54 N          22.9762  -34.3664  -41.6782 N.am      9 UNK        -0.4200 
     55 CA         22.4634  -34.5410  -43.0470 C.3       9 UNK         0.0839 
     56 C          21.3752  -35.6416  -43.2392 C.2       9 UNK         0.5513 
     57 N          20.6327  -36.0296  -42.2086 N.am      9 UNK        -0.7519 
     58 O          21.2090  -36.1508  -44.3447 O.2       9 UNK        -0.4960 
     59 C59        21.9911  -33.1831  -43.6384 C.3       10 UNK        -0.0876 
     60 S60        20.6204  -32.4255  -42.6911 S.3       10 UNK        -0.2414 
     61 C61        20.7725  -30.6738  -43.1499 C.3       10 UNK         0.0169 
     62 H62        16.6889  -27.9145  -49.0886 H         1 UNK         0.0903 
     63 H63        15.0754  -27.2015  -49.1231 H         1 UNK         0.0903 
     64 H64        16.4788  -26.2333  -49.5822 H         1 UNK         0.0903 
     65 H65        17.5140  -28.0749  -47.0321 H         1 UNK         0.3096 
     66 H66        18.0765  -27.7481  -44.9425 H         1 UNK         0.1121 
     67 H67        16.3539  -26.7852  -43.2861 H         1 UNK         0.0849 
     68 H68        15.2802  -26.5389  -44.6398 H         1 UNK         0.0849 
     69 H69        15.6369  -30.2575  -42.1929 H         1 UNK         0.0865 
     70 H70        15.3685  -28.5848  -41.7821 H         1 UNK         0.0865 
     71 H71        18.0937  -30.5028  -43.5877 H         1 UNK         0.1346 
     72 H72        21.1844  -29.0322  -41.0112 H         1 UNK         0.1412 
     73 H73        17.1339  -27.7660  -40.4238 H         1 UNK         0.1426 
     74 H74        20.6816  -27.6613  -39.1334 H         1 UNK         0.0716 
     75 H75        19.0531  -27.8011  -38.5300 H         1 UNK         0.0716 
     76 H76        21.7707  -25.6177  -39.8892 H         1 UNK         0.0695 
     77 H77        21.0463  -24.0587  -40.1952 H         1 UNK         0.0695 
     78 H78        20.9586  -26.4793  -42.0379 H         1 UNK         0.0983 
     79 H79        19.1573  -25.6298  -42.9335 H         1 UNK         0.3095 
     80 H80        17.4759  -22.9798  -43.1891 H         1 UNK         0.0454 
     81 H81        17.5829  -22.3846  -45.6322 H         1 UNK         0.0851 
     82 H82        19.2707  -22.8924  -45.6734 H         1 UNK         0.0851 
     83 H83        18.7845  -21.5293  -44.6811 H         1 UNK         0.0851 
     84 H84        16.6790  -24.9022  -43.8975 H         1 UNK         0.2976 
     85 H85        21.4540  -25.2866  -44.4190 H         1 UNK         0.3116 
     86 H86        23.9614  -23.8692  -44.4622 H         1 UNK         0.0646 
     87 H87        23.9045  -24.4546  -46.8910 H         1 UNK         0.0847 
     88 H88        22.3575  -23.8119  -46.3644 H         1 UNK         0.0847 
     89 H89        22.5541  -25.5462  -46.6149 H         1 UNK         0.0847 
     90 H90        23.0751  -27.1865  -44.0717 H         1 UNK         0.3040 
     91 H91        25.9143  -28.0138  -43.7983 H         1 UNK         0.1015 
     92 H92        24.8682  -29.2768  -45.7192 H         1 UNK         0.0786 
     93 H93        23.5242  -29.7528  -44.6836 H         1 UNK         0.0786 
     94 H94        25.1463  -30.3416  -44.3505 H         1 UNK         0.0786 
     95 H95        26.0721  -29.6525  -42.0335 H         1 UNK         0.3172 
     96 H96        24.6784  -28.8660  -39.6455 H         1 UNK         0.0595 
     97 H97        26.4878  -31.2861  -40.2202 H         1 UNK         0.0839 
     98 H98        26.0221  -30.7167  -38.6237 H         1 UNK         0.0839 
     99 H99        27.0355  -29.7120  -39.6428 H         1 UNK         0.0839 
    100 H100       23.3339  -30.1772  -38.3132 H         1 UNK         0.2998 
    101 H101       21.1379  -31.3854  -39.5798 H         1 UNK         0.0822 
    102 H102       22.0039  -31.4717  -36.6394 H         1 UNK         0.0787 
    103 H103       21.0111  -30.2228  -37.3958 H         1 UNK         0.0787 
    104 H104       20.3959  -31.8575  -37.2370 H         1 UNK         0.0787 
    105 H105       24.1092  -32.8634  -39.0298 H         1 UNK         0.3055 
    106 H106       23.3043  -35.6329  -38.7729 H         1 UNK         0.1106 
    107 H107       25.6923  -36.0481  -39.3833 H         1 UNK         0.0828 
    108 H108       25.5790  -34.8346  -38.1219 H         1 UNK         0.0828 
    109 H109       25.9049  -34.3507  -39.7874 H         1 UNK         0.0828 
    110 H110       22.9001  -33.4235  -41.3131 H         1 UNK         0.2931 
    111 H111       23.3202  -34.8669  -43.6391 H         1 UNK         0.0412 
    112 H112       19.9331  -36.7429  -42.3399 H         1 UNK         0.3472 
    113 H113       20.7511  -35.5932  -41.3070 H         1 UNK         0.3472 
    114 H114       22.8308  -32.4864  -43.6586 H         1 UNK         0.0970 
    115 H115       21.6794  -33.3001  -44.6780 H         1 UNK         0.0970 
    116 H116       21.7843  -30.3281  -42.9355 H         1 UNK         0.0612 
    117 H117       20.6235  -30.5638  -44.2249 H         1 UNK         0.0612 
@<TRIPOS>BOND
     1    1    2 1    
     2    1   62 1    
     3    1   63 1    
     4    1   64 1    
     5    2    3 2    
     6    2    4 am   BACKBONE|DICT|INTERRES
     7    4    5 1    
     8    4   65 1    
     9    5    6 1    
    10    5   25 1    
    11    5   66 1    
    12    6    7 1    
    13    6   67 1    
    14    6   68 1    
    15    7    8 1    
    16    8    9 1    
    17    8   69 1    
    18    8   70 1    
    19    9   10 ar   
    20    9   14 ar   
    21   10   11 ar   
    22   10   71 1    
    23   11   12 ar   
    24   11   61 1    
    25   12   13 ar   
    26   12   72 1    
    27   13   14 ar   
    28   13   15 1    
    29   14   73 1    
    30   15   16 1    
    31   15   74 1    
    32   15   75 1    
    33   16   17 1    
    34   17   18 1    
    35   17   76 1    
    36   17   77 1    
    37   18   19 1    
    38   18   27 1    
    39   18   78 1    
    40   19   20 am   BACKBONE|DICT|INTERRES
    41   19   79 1    
    42   20   21 2    
    43   20   22 1    
    44   22   23 1    
    45   22   24 1    
    46   22   80 1    
    47   23   81 1    
    48   23   82 1    
    49   23   83 1    
    50   24   25 am   BACKBONE|DICT|INTERRES
    51   24   84 1    
    52   25   26 2    
    53   27   28 2    
    54   27   29 am   BACKBONE|DICT|INTERRES
    55   29   30 1    
    56   29   85 1    
    57   30   31 1    
    58   30   32 1    
    59   30   86 1    
    60   31   87 1    
    61   31   88 1    
    62   31   89 1    
    63   32   33 2    
    64   32   34 am   BACKBONE|DICT|INTERRES
    65   34   35 1    
    66   34   90 1    
    67   35   36 1    
    68   35   37 1    
    69   35   91 1    
    70   36   92 1    
    71   36   93 1    
    72   36   94 1    
    73   37   38 2    
    74   37   39 am   BACKBONE|DICT|INTERRES
    75   39   40 1    
    76   39   95 1    
    77   40   41 1    
    78   40   42 1    
    79   40   96 1    
    80   41   97 1    
    81   41   98 1    
    82   41   99 1    
    83   42   43 2    
    84   42   44 am   BACKBONE|DICT|INTERRES
    85   44   45 1    
    86   44  100 1    
    87   45   46 1    
    88   45   47 1    
    89   45  101 1    
    90   46  102 1    
    91   46  103 1    
    92   46  104 1    
    93   47   48 2    
    94   47   49 am   BACKBONE|DICT|INTERRES
    95   49   50 1    
    96   49  105 1    
    97   50   51 1    
    98   50   52 1    
    99   50  106 1    
   100   51  107 1    
   101   51  108 1    
   102   51  109 1    
   103   52   53 2    
   104   52   54 am   BACKBONE|DICT|INTERRES
   105   54   55 1    
   106   54  110 1    
   107   55   56 1    
   108   55   59 1    
   109   55  111 1    
   110   56   57 am   BACKBONE|DICT|INTERRES
   111   56   58 2    
   112   57  112 1    
   113   57  113 1    
   114   59   60 1    
   115   59  114 1    
   116   59  115 1    
   117   60   61 1    
   118   61  116 1    
   119   61  117 1    
@<TRIPOS>SUBSTRUCTURE
     1 UNK         1 GROUP             0       ****    0 ROOT    
