@<TRIPOS>MOLECULE
3R8
117   119    1
SMALL
USER_CHARGES


@<TRIPOS>ATOM
      1 CA         13.4655  -26.1886  -41.0273 C.3       0 UNK        -0.2013 
      2 C          14.3787  -26.0177  -42.2321 C.2       0 UNK         0.4866 
      3 O          14.9869  -24.9596  -42.3930 O.2       0 UNK        -0.5176 
      4 N          14.4751  -27.0492  -43.0821 N.am      1 UNK        -0.4884 
      5 CA         15.3273  -27.0706  -44.2788 C.3       1 UNK         0.0853 
      6 C6         14.9425  -28.2476  -45.2114 C.3       10 UNK        -0.0849 
      7 S7         15.5389  -28.0327  -46.9230 S.3       10 UNK        -0.2776 
      8 C8         16.5320  -29.5432  -47.1854 C.3       10 UNK         0.0316 
      9 C9         17.9682  -29.4510  -46.6722 C.ar      10 UNK        -0.0863 
     10 C10        18.4979  -30.4728  -45.8758 C.ar      10 UNK        -0.1009 
     11 C11        19.8506  -30.4695  -45.5162 C.ar      10 UNK        -0.0712 
     12 C12        20.6713  -29.4159  -45.9301 C.ar      10 UNK        -0.0894 
     13 C13        20.1543  -28.3825  -46.7174 C.ar      10 UNK        -0.0745 
     14 C14        18.8044  -28.4072  -47.0840 C.ar      10 UNK        -0.0972 
     15 C15        21.0648  -27.2819  -47.2467 C.3       10 UNK         0.0209 
     16 S16        21.0345  -25.7846  -46.2118 S.3       10 UNK        -0.2568 
     17 C17        22.1962  -26.2152  -44.8732 C.3       10 UNK        -0.0983 
     18 CA         21.5325  -26.1611  -43.4766 C.3       3 UNK         0.0876 
     19 N          20.4366  -27.1197  -43.3603 N.am      3 UNK        -0.4424 
     20 C          19.5238  -27.1277  -42.3842 C.2       2 UNK         0.4918 
     21 O          19.4642  -26.2928  -41.4788 O.2       2 UNK        -0.4875 
     22 CA         18.4990  -28.2712  -42.4418 C.3       2 UNK         0.0481 
     23 CB         18.3994  -28.9844  -41.0843 C.3       2 UNK        -0.1831 
     24 N          17.1579  -27.8707  -42.8689 N.am      2 UNK        -0.4498 
     25 C          16.8286  -27.1159  -43.9294 C.2       1 UNK         0.5027 
     26 O          17.6265  -26.4925  -44.6283 O.2       1 UNK        -0.4969 
     27 C          22.5842  -26.4269  -42.3860 C.2       3 UNK         0.5005 
     28 O          22.9292  -27.5877  -42.1486 O.2       3 UNK        -0.5279 
     29 N          23.1301  -25.3560  -41.7924 N.am      4 UNK        -0.4463 
     30 CA         24.1695  -25.4098  -40.7543 C.3       4 UNK         0.0283 
     31 CB         24.4046  -23.9971  -40.1963 C.3       4 UNK        -0.1875 
     32 C          25.4999  -26.0301  -41.2229 C.2       4 UNK         0.4949 
     33 O          26.2588  -26.5271  -40.3919 O.2       4 UNK        -0.5039 
     34 N          25.7486  -26.0124  -42.5401 N.am      5 UNK        -0.4663 
     35 CA         26.8716  -26.6950  -43.1868 C.3       5 UNK         0.0242 
     36 CB         27.0122  -26.1756  -44.6270 C.3       5 UNK        -0.1982 
     37 C          26.7335  -28.2297  -43.1801 C.2       5 UNK         0.5017 
     38 O          27.7534  -28.9181  -43.2275 O.2       5 UNK        -0.5012 
     39 N          25.4919  -28.7336  -43.1253 N.am      6 UNK        -0.4439 
     40 CA         25.1762  -30.1563  -43.0070 C.3       6 UNK         0.0297 
     41 CB         23.9269  -30.4856  -43.8413 C.3       6 UNK        -0.2006 
     42 C          24.9701  -30.5307  -41.5338 C.2       6 UNK         0.4892 
     43 O          25.5986  -31.4783  -41.0611 O.2       6 UNK        -0.5089 
     44 N          24.1038  -29.7722  -40.8431 N.am      7 UNK        -0.4243 
     45 CA         23.7239  -29.8326  -39.4237 C.3       7 UNK         0.0196 
     46 CB         24.9281  -29.5265  -38.5136 C.3       7 UNK        -0.2007 
     47 C          23.0176  -31.1262  -38.9776 C.2       7 UNK         0.5020 
     48 O          22.0035  -31.0485  -38.2839 O.2       7 UNK        -0.5147 
     49 N          23.5509  -32.2880  -39.3738 N.am      8 UNK        -0.4734 
     50 CA         23.0953  -33.6294  -38.9908 C.3       8 UNK         0.0238 
     51 CB         24.0804  -34.6696  -39.5478 C.3       8 UNK        -0.1912 
     52 C          21.6579  -33.9657  -39.4239 C.2       8 UNK         0.5038 
     53 O          21.0182  -34.7988  -38.7803 O.2       8 UNK        -0.5046 
     54 N          21.1770  -33.3113  -40.4876 N.am      9 UNK        -0.4200 
     55 CA         19.7853  -33.3738  -40.9520 C.3       9 UNK         0.0839 
     56 C          18.7724  -32.5632  -40.0897 C.2       9 UNK         0.5513 
     57 N          19.1994  -31.7774  -39.1069 N.am      9 UNK        -0.7519 
     58 O          17.5680  -32.6660  -40.3072 O.2       9 UNK        -0.4960 
     59 C59        19.6728  -33.0584  -42.4661 C.3       10 UNK        -0.0876 
     60 S60        20.3454  -31.4316  -42.9541 S.3       10 UNK        -0.2414 
     61 C61        20.4423  -31.6489  -44.7575 C.3       10 UNK         0.0169 
     62 H62        12.9854  -27.1669  -41.0131 H         1 UNK         0.0903 
     63 H63        14.0363  -26.0779  -40.1057 H         1 UNK         0.0903 
     64 H64        12.6848  -25.4285  -41.0377 H         1 UNK         0.0903 
     65 H65        13.9357  -27.8857  -42.9063 H         1 UNK         0.3096 
     66 H66        15.1502  -26.1355  -44.8161 H         1 UNK         0.1121 
     67 H67        15.2853  -29.2008  -44.8038 H         1 UNK         0.0849 
     68 H68        13.8560  -28.3280  -45.2734 H         1 UNK         0.0849 
     69 H69        16.0124  -30.3988  -46.7512 H         1 UNK         0.0865 
     70 H70        16.5740  -29.7369  -48.2581 H         1 UNK         0.0865 
     71 H71        17.8708  -31.3009  -45.5746 H         1 UNK         0.1346 
     72 H72        21.7215  -29.4231  -45.6739 H         1 UNK         0.1412 
     73 H73        18.4082  -27.6233  -47.7151 H         1 UNK         0.1426 
     74 H74        20.7478  -27.0075  -48.2539 H         1 UNK         0.0716 
     75 H75        22.0895  -27.6430  -47.3484 H         1 UNK         0.0716 
     76 H76        22.6292  -27.2002  -45.0571 H         1 UNK         0.0695 
     77 H77        23.0252  -25.5071  -44.9295 H         1 UNK         0.0695 
     78 H78        21.1173  -25.1620  -43.3258 H         1 UNK         0.0983 
     79 H79        20.3772  -27.8170  -44.0882 H         1 UNK         0.3095 
     80 H80        18.8436  -28.9977  -43.1772 H         1 UNK         0.0454 
     81 H81        19.3834  -29.3090  -40.7427 H         1 UNK         0.0851 
     82 H82        17.7722  -29.8731  -41.1488 H         1 UNK         0.0851 
     83 H83        17.9852  -28.3337  -40.3133 H         1 UNK         0.0851 
     84 H84        16.3952  -28.2826  -42.3528 H         1 UNK         0.2976 
     85 H85        22.8031  -24.4353  -42.0513 H         1 UNK         0.3116 
     86 H86        23.7919  -26.0382  -39.9446 H         1 UNK         0.0646 
     87 H87        24.7625  -23.3121  -40.9659 H         1 UNK         0.0847 
     88 H88        23.4920  -23.5798  -39.7704 H         1 UNK         0.0847 
     89 H89        25.1518  -24.0111  -39.4013 H         1 UNK         0.0847 
     90 H90        25.0865  -25.5479  -43.1436 H         1 UNK         0.3040 
     91 H91        27.7840  -26.4467  -42.6395 H         1 UNK         0.1015 
     92 H92        27.8588  -26.6456  -45.1297 H         1 UNK         0.0786 
     93 H93        27.1841  -25.0992  -44.6463 H         1 UNK         0.0786 
     94 H94        26.1225  -26.3860  -45.2223 H         1 UNK         0.0786 
     95 H95        24.7153  -28.0922  -43.0128 H         1 UNK         0.3172 
     96 H96        26.0017  -30.7562  -43.3963 H         1 UNK         0.0595 
     97 H97        23.0553  -29.9130  -43.5229 H         1 UNK         0.0839 
     98 H98        23.6706  -31.5422  -43.7541 H         1 UNK         0.0839 
     99 H99        24.0937  -30.2794  -44.8985 H         1 UNK         0.0839 
    100 H100       23.6315  -29.0305  -41.3601 H         1 UNK         0.2998 
    101 H101       23.0012  -29.0259  -39.2884 H         1 UNK         0.0822 
    102 H102       24.6264  -29.4925  -37.4659 H         1 UNK         0.0787 
    103 H103       25.3693  -28.5595  -38.7546 H         1 UNK         0.0787 
    104 H104       25.7097  -30.2817  -38.6020 H         1 UNK         0.0787 
    105 H105       24.3853  -32.2286  -39.9560 H         1 UNK         0.3055 
    106 H106       23.1181  -33.6823  -37.9001 H         1 UNK         0.1106 
    107 H107       25.0884  -34.5061  -39.1661 H         1 UNK         0.0828 
    108 H108       23.7872  -35.6806  -39.2611 H         1 UNK         0.0828 
    109 H109       24.1253  -34.6387  -40.6373 H         1 UNK         0.0828 
    110 H110       21.7654  -32.6295  -40.9428 H         1 UNK         0.2931 
    111 H111       19.4667  -34.4124  -40.8421 H         1 UNK         0.0412 
    112 H112       18.5235  -31.2751  -38.5546 H         1 UNK         0.3472 
    113 H113       20.1877  -31.6722  -38.9059 H         1 UNK         0.3472 
    114 H114       20.2075  -33.8297  -43.0229 H         1 UNK         0.0970 
    115 H115       18.6350  -33.1233  -42.7989 H         1 UNK         0.0970 
    116 H116       19.9239  -32.5609  -45.0568 H         1 UNK         0.0612 
    117 H117       21.4854  -31.7948  -45.0402 H         1 UNK         0.0612 
@<TRIPOS>BOND
     1    1    2 1    
     2    1   62 1    
     3    1   63 1    
     4    1   64 1    
     5    2    3 2    
     6    2    4 am   BACKBONE|DICT|INTERRES
     7    4    5 1    
     8    4   65 1    
     9    5    6 1    
    10    5   25 1    
    11    5   66 1    
    12    6    7 1    
    13    6   67 1    
    14    6   68 1    
    15    7    8 1    
    16    8    9 1    
    17    8   69 1    
    18    8   70 1    
    19    9   10 ar   
    20    9   14 ar   
    21   10   11 ar   
    22   10   71 1    
    23   11   12 ar   
    24   11   61 1    
    25   12   13 ar   
    26   12   72 1    
    27   13   14 ar   
    28   13   15 1    
    29   14   73 1    
    30   15   16 1    
    31   15   74 1    
    32   15   75 1    
    33   16   17 1    
    34   17   18 1    
    35   17   76 1    
    36   17   77 1    
    37   18   19 1    
    38   18   27 1    
    39   18   78 1    
    40   19   20 am   BACKBONE|DICT|INTERRES
    41   19   79 1    
    42   20   21 2    
    43   20   22 1    
    44   22   23 1    
    45   22   24 1    
    46   22   80 1    
    47   23   81 1    
    48   23   82 1    
    49   23   83 1    
    50   24   25 am   BACKBONE|DICT|INTERRES
    51   24   84 1    
    52   25   26 2    
    53   27   28 2    
    54   27   29 am   BACKBONE|DICT|INTERRES
    55   29   30 1    
    56   29   85 1    
    57   30   31 1    
    58   30   32 1    
    59   30   86 1    
    60   31   87 1    
    61   31   88 1    
    62   31   89 1    
    63   32   33 2    
    64   32   34 am   BACKBONE|DICT|INTERRES
    65   34   35 1    
    66   34   90 1    
    67   35   36 1    
    68   35   37 1    
    69   35   91 1    
    70   36   92 1    
    71   36   93 1    
    72   36   94 1    
    73   37   38 2    
    74   37   39 am   BACKBONE|DICT|INTERRES
    75   39   40 1    
    76   39   95 1    
    77   40   41 1    
    78   40   42 1    
    79   40   96 1    
    80   41   97 1    
    81   41   98 1    
    82   41   99 1    
    83   42   43 2    
    84   42   44 am   BACKBONE|DICT|INTERRES
    85   44   45 1    
    86   44  100 1    
    87   45   46 1    
    88   45   47 1    
    89   45  101 1    
    90   46  102 1    
    91   46  103 1    
    92   46  104 1    
    93   47   48 2    
    94   47   49 am   BACKBONE|DICT|INTERRES
    95   49   50 1    
    96   49  105 1    
    97   50   51 1    
    98   50   52 1    
    99   50  106 1    
   100   51  107 1    
   101   51  108 1    
   102   51  109 1    
   103   52   53 2    
   104   52   54 am   BACKBONE|DICT|INTERRES
   105   54   55 1    
   106   54  110 1    
   107   55   56 1    
   108   55   59 1    
   109   55  111 1    
   110   56   57 am   BACKBONE|DICT|INTERRES
   111   56   58 2    
   112   57  112 1    
   113   57  113 1    
   114   59   60 1    
   115   59  114 1    
   116   59  115 1    
   117   60   61 1    
   118   61  116 1    
   119   61  117 1    
@<TRIPOS>SUBSTRUCTURE
     1 UNK         1 GROUP             0       ****    0 ROOT    
