@<TRIPOS>MOLECULE
3R8
117   119    1
SMALL
USER_CHARGES


@<TRIPOS>ATOM
      1 CA         16.4719  -23.5662  -48.2371 C.3       0 UNK        -0.2013 
      2 C          16.9859  -24.7711  -47.4632 C.2       0 UNK         0.4866 
      3 O          18.1785  -24.8450  -47.1701 O.2       0 UNK        -0.5176 
      4 N          16.0971  -25.7183  -47.1405 N.am      1 UNK        -0.4884 
      5 CA         16.3926  -26.9018  -46.3265 C.3       1 UNK         0.0853 
      6 C6         15.4609  -28.0740  -46.7330 C.3       10 UNK        -0.0849 
      7 S7         15.8868  -29.7267  -46.0738 S.3       10 UNK        -0.2776 
      8 C8         17.5593  -30.0454  -46.7313 C.3       10 UNK         0.0316 
      9 C9         18.6486  -29.6422  -45.7430 C.ar      10 UNK        -0.0863 
     10 C10        18.7418  -30.2834  -44.5035 C.ar      10 UNK        -0.1009 
     11 C11        19.7343  -29.9350  -43.5821 C.ar      10 UNK        -0.0712 
     12 C12        20.6509  -28.9328  -43.9255 C.ar      10 UNK        -0.0894 
     13 C13        20.5741  -28.2833  -45.1614 C.ar      10 UNK        -0.0745 
     14 C14        19.5765  -28.6489  -46.0686 C.ar      10 UNK        -0.0972 
     15 C15        21.5807  -27.2029  -45.5344 C.3       10 UNK         0.0209 
     16 S16        21.0582  -25.5501  -44.9741 S.3       10 UNK        -0.2568 
     17 C17        21.4994  -25.5981  -43.2037 C.3       10 UNK        -0.0983 
     18 CA         20.2886  -25.4122  -42.2499 C.3       3 UNK         0.0876 
     19 N          19.1844  -26.3184  -42.5793 N.am      3 UNK        -0.4424 
     20 C          17.9359  -26.2310  -42.1058 C.2       2 UNK         0.4918 
     21 O          17.5278  -25.3103  -41.3946 O.2       2 UNK        -0.4875 
     22 CA         16.9957  -27.3727  -42.5283 C.3       2 UNK         0.0481 
     23 CB         15.6138  -27.3179  -41.8430 C.3       2 UNK        -0.1831 
     24 N          16.8714  -27.4567  -43.9869 N.am      2 UNK        -0.4498 
     25 C          16.3272  -26.5573  -44.8200 C.2       1 UNK         0.5027 
     26 O          15.7849  -25.5124  -44.4490 O.2       1 UNK        -0.4969 
     27 C          20.7399  -25.5779  -40.7798 C.2       3 UNK         0.5005 
     28 O          20.3299  -26.5237  -40.1014 O.2       3 UNK        -0.5279 
     29 N          21.6175  -24.6726  -40.3211 N.am      4 UNK        -0.4463 
     30 CA         22.2336  -24.7116  -38.9884 C.3       4 UNK         0.0283 
     31 CB         23.0437  -23.4249  -38.7611 C.3       4 UNK        -0.1875 
     32 C          23.1164  -25.9524  -38.7472 C.2       4 UNK         0.4949 
     33 O          23.2020  -26.4155  -37.6097 O.2       4 UNK        -0.5039 
     34 N          23.7375  -26.4712  -39.8130 N.am      5 UNK        -0.4663 
     35 CA         24.5104  -27.7086  -39.8351 C.3       5 UNK         0.0242 
     36 CB         25.8959  -27.4906  -39.1964 C.3       5 UNK        -0.1982 
     37 C          24.6480  -28.1767  -41.2888 C.2       5 UNK         0.5017 
     38 O          24.5691  -27.3538  -42.2048 O.2       5 UNK        -0.5012 
     39 N          24.8830  -29.4800  -41.4567 N.am      6 UNK        -0.4439 
     40 CA         25.1296  -30.2096  -42.7002 C.3       6 UNK         0.0297 
     41 CB         23.9164  -30.1337  -43.6499 C.3       6 UNK        -0.2006 
     42 C          25.4148  -31.6667  -42.3135 C.2       6 UNK         0.4892 
     43 O          25.2952  -32.0178  -41.1372 O.2       6 UNK        -0.5089 
     44 N          25.7178  -32.5204  -43.2990 N.am      7 UNK        -0.4243 
     45 CA         25.9093  -33.9655  -43.1036 C.3       7 UNK         0.0196 
     46 CB         26.3375  -34.6015  -44.4362 C.3       7 UNK        -0.2007 
     47 C          24.6771  -34.6991  -42.5297 C.2       7 UNK         0.5020 
     48 O          24.8349  -35.7605  -41.9263 O.2       7 UNK        -0.5147 
     49 N          23.4837  -34.1219  -42.7233 N.am      8 UNK        -0.4734 
     50 CA         22.2019  -34.6557  -42.2638 C.3       8 UNK         0.0238 
     51 CB         21.1777  -34.4847  -43.4008 C.3       8 UNK        -0.1912 
     52 C          21.6790  -34.0093  -40.9652 C.2       8 UNK         0.5038 
     53 O          20.6470  -34.4700  -40.4736 O.2       8 UNK        -0.5046 
     54 N          22.3379  -32.9660  -40.4349 N.am      9 UNK        -0.4200 
     55 CA         21.8294  -32.1958  -39.2801 C.3       9 UNK         0.0839 
     56 C          22.8935  -31.4978  -38.3871 C.2       9 UNK         0.5513 
     57 N          24.1850  -31.5687  -38.6744 N.am      9 UNK        -0.7519 
     58 O          22.5412  -30.9030  -37.3720 O.2       9 UNK        -0.4960 
     59 C59        20.6413  -31.2590  -39.6473 C.3       10 UNK        -0.0876 
     60 S60        20.9901  -30.1031  -41.0193 S.3       10 UNK        -0.2414 
     61 C61        19.7647  -30.6802  -42.2456 C.3       10 UNK         0.0169 
     62 H62        16.6458  -22.6536  -47.6675 H         1 UNK         0.0903 
     63 H63        16.9964  -23.4795  -49.1883 H         1 UNK         0.0903 
     64 H64        15.4043  -23.6383  -48.4441 H         1 UNK         0.0903 
     65 H65        15.1232  -25.5786  -47.3707 H         1 UNK         0.3096 
     66 H66        17.4184  -27.1898  -46.5453 H         1 UNK         0.1121 
     67 H67        15.4450  -28.1652  -47.8206 H         1 UNK         0.0849 
     68 H68        14.4315  -27.8526  -46.4446 H         1 UNK         0.0849 
     69 H69        17.6549  -31.1130  -46.9349 H         1 UNK         0.0865 
     70 H70        17.6843  -29.5431  -47.6920 H         1 UNK         0.0865 
     71 H71        18.0309  -31.0602  -44.2538 H         1 UNK         0.1346 
     72 H72        21.4333  -28.6543  -43.2366 H         1 UNK         0.1412 
     73 H73        19.5269  -28.1556  -47.0303 H         1 UNK         0.1426 
     74 H74        21.7049  -27.1747  -46.6180 H         1 UNK         0.0716 
     75 H75        22.5660  -27.4356  -45.1295 H         1 UNK         0.0716 
     76 H76        22.2315  -24.8051  -43.0426 H         1 UNK         0.0695 
     77 H77        22.0277  -26.5256  -42.9829 H         1 UNK         0.0695 
     78 H78        19.9144  -24.3924  -42.3639 H         1 UNK         0.0983 
     79 H79        19.4245  -27.1009  -43.1705 H         1 UNK         0.3095 
     80 H80        17.4746  -28.3002  -42.2106 H         1 UNK         0.0454 
     81 H81        15.0775  -26.3963  -42.0695 H         1 UNK         0.0851 
     82 H82        15.7188  -27.3697  -40.7587 H         1 UNK         0.0851 
     83 H83        14.9865  -28.1551  -42.1485 H         1 UNK         0.0851 
     84 H84        17.2679  -28.2906  -44.4032 H         1 UNK         0.2976 
     85 H85        21.9069  -23.9194  -40.9292 H         1 UNK         0.3116 
     86 H86        21.4263  -24.7388  -38.2533 H         1 UNK         0.0646 
     87 H87        23.8560  -23.3248  -39.4821 H         1 UNK         0.0847 
     88 H88        23.4908  -23.4176  -37.7659 H         1 UNK         0.0847 
     89 H89        22.4139  -22.5383  -38.8363 H         1 UNK         0.0847 
     90 H90        23.6106  -26.0476  -40.7237 H         1 UNK         0.3040 
     91 H91        23.9617  -28.4710  -39.2764 H         1 UNK         0.1015 
     92 H92        26.4592  -26.7151  -39.7170 H         1 UNK         0.0786 
     93 H93        26.4912  -28.4040  -39.2272 H         1 UNK         0.0786 
     94 H94        25.8136  -27.1982  -38.1496 H         1 UNK         0.0786 
     95 H95        24.9496  -30.0808  -40.6422 H         1 UNK         0.3172 
     96 H96        26.0145  -29.7936  -43.1848 H         1 UNK         0.0595 
     97 H97        24.0980  -30.6744  -44.5791 H         1 UNK         0.0839 
     98 H98        23.6952  -29.1066  -43.9323 H         1 UNK         0.0839 
     99 H99        23.0224  -30.5599  -43.1948 H         1 UNK         0.0839 
    100 H100       25.8016  -32.1725  -44.2437 H         1 UNK         0.2998 
    101 H101       26.7217  -34.0953  -42.3852 H         1 UNK         0.0822 
    102 H102       26.5163  -35.6714  -44.3188 H         1 UNK         0.0787 
    103 H103       25.5726  -34.4817  -45.2047 H         1 UNK         0.0787 
    104 H104       27.2622  -34.1604  -44.8088 H         1 UNK         0.0787 
    105 H105       23.4551  -33.2548  -43.2391 H         1 UNK         0.3055 
    106 H106       22.2984  -35.7246  -42.0596 H         1 UNK         0.1106 
    107 H107       20.1960  -34.8624  -43.1114 H         1 UNK         0.0828 
    108 H108       21.0554  -33.4390  -43.6841 H         1 UNK         0.0828 
    109 H109       21.4818  -35.0366  -44.2903 H         1 UNK         0.0828 
    110 H110       23.2042  -32.6497  -40.8491 H         1 UNK         0.2931 
    111 H111       21.4214  -32.9362  -38.5888 H         1 UNK         0.0412 
    112 H112       24.5374  -32.0267  -39.5098 H         1 UNK         0.3472 
    113 H113       24.8374  -31.1437  -38.0354 H         1 UNK         0.3472 
    114 H114       20.3196  -30.6753  -38.7829 H         1 UNK         0.0970 
    115 H115       19.7750  -31.8701  -39.9037 H         1 UNK         0.0970 
    116 H116       18.7752  -30.6119  -41.7910 H         1 UNK         0.0612 
    117 H117       19.9453  -31.7371  -42.4410 H         1 UNK         0.0612 
@<TRIPOS>BOND
     1    1    2 1    
     2    1   62 1    
     3    1   63 1    
     4    1   64 1    
     5    2    3 2    
     6    2    4 am   BACKBONE|DICT|INTERRES
     7    4    5 1    
     8    4   65 1    
     9    5    6 1    
    10    5   25 1    
    11    5   66 1    
    12    6    7 1    
    13    6   67 1    
    14    6   68 1    
    15    7    8 1    
    16    8    9 1    
    17    8   69 1    
    18    8   70 1    
    19    9   10 ar   
    20    9   14 ar   
    21   10   11 ar   
    22   10   71 1    
    23   11   12 ar   
    24   11   61 1    
    25   12   13 ar   
    26   12   72 1    
    27   13   14 ar   
    28   13   15 1    
    29   14   73 1    
    30   15   16 1    
    31   15   74 1    
    32   15   75 1    
    33   16   17 1    
    34   17   18 1    
    35   17   76 1    
    36   17   77 1    
    37   18   19 1    
    38   18   27 1    
    39   18   78 1    
    40   19   20 am   BACKBONE|DICT|INTERRES
    41   19   79 1    
    42   20   21 2    
    43   20   22 1    
    44   22   23 1    
    45   22   24 1    
    46   22   80 1    
    47   23   81 1    
    48   23   82 1    
    49   23   83 1    
    50   24   25 am   BACKBONE|DICT|INTERRES
    51   24   84 1    
    52   25   26 2    
    53   27   28 2    
    54   27   29 am   BACKBONE|DICT|INTERRES
    55   29   30 1    
    56   29   85 1    
    57   30   31 1    
    58   30   32 1    
    59   30   86 1    
    60   31   87 1    
    61   31   88 1    
    62   31   89 1    
    63   32   33 2    
    64   32   34 am   BACKBONE|DICT|INTERRES
    65   34   35 1    
    66   34   90 1    
    67   35   36 1    
    68   35   37 1    
    69   35   91 1    
    70   36   92 1    
    71   36   93 1    
    72   36   94 1    
    73   37   38 2    
    74   37   39 am   BACKBONE|DICT|INTERRES
    75   39   40 1    
    76   39   95 1    
    77   40   41 1    
    78   40   42 1    
    79   40   96 1    
    80   41   97 1    
    81   41   98 1    
    82   41   99 1    
    83   42   43 2    
    84   42   44 am   BACKBONE|DICT|INTERRES
    85   44   45 1    
    86   44  100 1    
    87   45   46 1    
    88   45   47 1    
    89   45  101 1    
    90   46  102 1    
    91   46  103 1    
    92   46  104 1    
    93   47   48 2    
    94   47   49 am   BACKBONE|DICT|INTERRES
    95   49   50 1    
    96   49  105 1    
    97   50   51 1    
    98   50   52 1    
    99   50  106 1    
   100   51  107 1    
   101   51  108 1    
   102   51  109 1    
   103   52   53 2    
   104   52   54 am   BACKBONE|DICT|INTERRES
   105   54   55 1    
   106   54  110 1    
   107   55   56 1    
   108   55   59 1    
   109   55  111 1    
   110   56   57 am   BACKBONE|DICT|INTERRES
   111   56   58 2    
   112   57  112 1    
   113   57  113 1    
   114   59   60 1    
   115   59  114 1    
   116   59  115 1    
   117   60   61 1    
   118   61  116 1    
   119   61  117 1    
@<TRIPOS>SUBSTRUCTURE
     1 UNK         1 GROUP             0       ****    0 ROOT    
