@<TRIPOS>MOLECULE
3R8
117   119    1
SMALL
USER_CHARGES


@<TRIPOS>ATOM
      1 CA         15.0055  -25.3093  -40.3386 C.3       0 UNK        -0.2013 
      2 C          16.1441  -25.5600  -41.3166 C.2       0 UNK         0.4866 
      3 O          17.1302  -26.1934  -40.9442 O.2       0 UNK        -0.5176 
      4 N          15.9992  -25.0707  -42.5563 N.am      1 UNK        -0.4884 
      5 CA         16.9540  -25.1565  -43.6732 C.3       1 UNK         0.0853 
      6 C6         17.3475  -26.6104  -44.0633 C.3       10 UNK        -0.0849 
      7 S7         15.9575  -27.7221  -44.4765 S.3       10 UNK        -0.2776 
      8 C8         16.3750  -29.2410  -43.5321 C.3       10 UNK         0.0316 
      9 C9         17.6154  -30.0282  -43.9847 C.ar      10 UNK        -0.0863 
     10 C10        17.8708  -31.2758  -43.3995 C.ar      10 UNK        -0.1009 
     11 C11        19.0131  -32.0145  -43.7369 C.ar      10 UNK        -0.0712 
     12 C12        19.9221  -31.4833  -44.6592 C.ar      10 UNK        -0.0894 
     13 C13        19.6959  -30.2336  -45.2342 C.ar      10 UNK        -0.0745 
     14 C14        18.5273  -29.5382  -44.9275 C.ar      10 UNK        -0.0972 
     15 C15        20.7290  -29.5921  -46.1440 C.3       10 UNK         0.0209 
     16 S16        21.7532  -28.4305  -45.1860 S.3       10 UNK        -0.2568 
     17 C17        22.4220  -27.3749  -46.5173 C.3       10 UNK        -0.0983 
     18 CA         23.1468  -26.0906  -46.0141 C.3       3 UNK         0.0876 
     19 N          22.3112  -25.2324  -45.1737 N.am      3 UNK        -0.4424 
     20 C          21.2096  -24.5840  -45.5563 C.2       2 UNK         0.4918 
     21 O          20.7595  -24.6038  -46.7040 O.2       2 UNK        -0.4875 
     22 CA         20.4566  -23.7975  -44.4764 C.3       2 UNK         0.0481 
     23 CB         20.4975  -22.2822  -44.7403 C.3       2 UNK        -0.1831 
     24 N          19.0844  -24.2880  -44.4918 N.am      2 UNK        -0.4498 
     25 C          18.2278  -24.2981  -43.4634 C.2       1 UNK         0.5027 
     26 O          18.4248  -23.6865  -42.4101 O.2       1 UNK        -0.4969 
     27 C          24.4233  -26.4216  -45.2208 C.2       3 UNK         0.5005 
     28 O          24.4812  -26.1515  -44.0166 O.2       3 UNK        -0.5279 
     29 N          25.4068  -27.0422  -45.8882 N.am      4 UNK        -0.4463 
     30 CA         26.6777  -27.4838  -45.2972 C.3       4 UNK         0.0283 
     31 CB         27.5998  -28.0088  -46.4096 C.3       4 UNK        -0.1875 
     32 C          26.5282  -28.5394  -44.1834 C.2       4 UNK         0.4949 
     33 O          27.3956  -28.6215  -43.3141 O.2       4 UNK        -0.5039 
     34 N          25.4302  -29.3088  -44.2119 N.am      5 UNK        -0.4663 
     35 CA         25.0596  -30.2675  -43.1663 C.3       5 UNK         0.0242 
     36 CB         24.0821  -31.2999  -43.7548 C.3       5 UNK        -0.1982 
     37 C          24.4463  -29.6022  -41.9194 C.2       5 UNK         0.5017 
     38 O          24.2847  -30.2817  -40.9048 O.2       5 UNK        -0.5012 
     39 N          24.0710  -28.3145  -42.0200 N.am      6 UNK        -0.4439 
     40 CA         23.4574  -27.4711  -40.9822 C.3       6 UNK         0.0297 
     41 CB         24.4880  -27.1614  -39.8764 C.3       6 UNK        -0.2006 
     42 C          22.1360  -28.0233  -40.4046 C.2       6 UNK         0.4892 
     43 O          21.7495  -27.6370  -39.3006 O.2       6 UNK        -0.5089 
     44 N          21.4907  -28.9356  -41.1480 N.am      7 UNK        -0.4243 
     45 CA         20.3304  -29.7457  -40.7655 C.3       7 UNK         0.0196 
     46 CB         19.0674  -28.8728  -40.6461 C.3       7 UNK        -0.2007 
     47 C          20.5606  -30.6301  -39.5211 C.2       7 UNK         0.5020 
     48 O          19.5904  -31.0148  -38.8668 O.2       7 UNK        -0.5147 
     49 N          21.8231  -30.9851  -39.2240 N.am      8 UNK        -0.4734 
     50 CA         22.2002  -31.8711  -38.1094 C.3       8 UNK         0.0238 
     51 CB         23.7293  -31.8718  -37.9573 C.3       8 UNK        -0.1912 
     52 C          21.6689  -33.3086  -38.2719 C.2       8 UNK         0.5038 
     53 O          21.4576  -34.0068  -37.2800 O.2       8 UNK        -0.5046 
     54 N          21.4353  -33.6907  -39.5295 N.am      9 UNK        -0.4200 
     55 CA         20.6859  -34.8619  -39.9947 C.3       9 UNK         0.0839 
     56 C          19.1690  -34.8641  -39.6389 C.2       9 UNK         0.5513 
     57 N          18.5731  -33.7660  -39.1884 N.am      9 UNK        -0.7519 
     58 O          18.5177  -35.8967  -39.7718 O.2       9 UNK        -0.4960 
     59 C59        20.9163  -35.0892  -41.5183 C.3       10 UNK        -0.0876 
     60 S60        20.9796  -33.5427  -42.4979 S.3       10 UNK        -0.2414 
     61 C61        19.2667  -33.3758  -43.0947 C.3       10 UNK         0.0169 
     62 H62        14.1884  -24.7507  -40.7949 H         1 UNK         0.0903 
     63 H63        14.6073  -26.2570  -39.9771 H         1 UNK         0.0903 
     64 H64        15.3668  -24.7421  -39.4812 H         1 UNK         0.0903 
     65 H65        15.1614  -24.5462  -42.7666 H         1 UNK         0.3096 
     66 H66        16.4373  -24.7145  -44.5271 H         1 UNK         0.1121 
     67 H67        17.9787  -26.5817  -44.9507 H         1 UNK         0.0849 
     68 H68        17.9556  -27.0647  -43.2806 H         1 UNK         0.0849 
     69 H69        16.4946  -28.9709  -42.4817 H         1 UNK         0.0865 
     70 H70        15.5102  -29.9045  -43.5778 H         1 UNK         0.0865 
     71 H71        17.1775  -31.6715  -42.6696 H         1 UNK         0.1346 
     72 H72        20.8214  -32.0296  -44.9084 H         1 UNK         0.1412 
     73 H73        18.3683  -28.5965  -45.4209 H         1 UNK         0.1426 
     74 H74        20.2253  -29.0668  -46.9569 H         1 UNK         0.0716 
     75 H75        21.3672  -30.3471  -46.6056 H         1 UNK         0.0716 
     76 H76        23.0852  -27.9795  -47.1379 H         1 UNK         0.0695 
     77 H77        21.5983  -27.0911  -47.1732 H         1 UNK         0.0695 
     78 H78        23.4539  -25.5001  -46.8799 H         1 UNK         0.0983 
     79 H79        22.6486  -25.1654  -44.2207 H         1 UNK         0.3095 
     80 H80        20.9036  -24.0063  -43.5018 H         1 UNK         0.0454 
     81 H81        21.5250  -21.9171  -44.7534 H         1 UNK         0.0851 
     82 H82        20.0471  -22.0275  -45.7004 H         1 UNK         0.0851 
     83 H83        19.9668  -21.7296  -43.9650 H         1 UNK         0.0851 
     84 H84        18.8436  -24.7826  -45.3415 H         1 UNK         0.2976 
     85 H85        25.2816  -27.2317  -46.8729 H         1 UNK         0.3116 
     86 H86        27.1513  -26.6082  -44.8481 H         1 UNK         0.0646 
     87 H87        28.5643  -28.3175  -46.0035 H         1 UNK         0.0847 
     88 H88        27.7986  -27.2417  -47.1582 H         1 UNK         0.0847 
     89 H89        27.1700  -28.8732  -46.9174 H         1 UNK         0.0847 
     90 H90        24.7718  -29.1799  -44.9670 H         1 UNK         0.3040 
     91 H91        25.9584  -30.7956  -42.8397 H         1 UNK         0.1015 
     92 H92        24.5145  -31.8131  -44.6137 H         1 UNK         0.0786 
     93 H93        23.1462  -30.8409  -44.0735 H         1 UNK         0.0786 
     94 H94        23.8311  -32.0641  -43.0176 H         1 UNK         0.0786 
     95 H95        24.2556  -27.8327  -42.8946 H         1 UNK         0.3172 
     96 H96        23.2018  -26.5302  -41.4714 H         1 UNK         0.0595 
     97 H97        25.4085  -26.7551  -40.2956 H         1 UNK         0.0839 
     98 H98        24.7446  -28.0533  -39.3035 H         1 UNK         0.0839 
     99 H99        24.1018  -26.4228  -39.1729 H         1 UNK         0.0839 
    100 H100       21.8978  -29.1613  -42.0447 H         1 UNK         0.2998 
    101 H101       20.1695  -30.4387  -41.5919 H         1 UNK         0.0822 
    102 H102       18.9161  -28.2804  -41.5468 H         1 UNK         0.0787 
    103 H103       18.1754  -29.4854  -40.5112 H         1 UNK         0.0787 
    104 H104       19.1240  -28.1872  -39.8003 H         1 UNK         0.0787 
    105 H105       22.5809  -30.6389  -39.8060 H         1 UNK         0.3055 
    106 H106       21.7609  -31.4650  -37.1955 H         1 UNK         0.1106 
    107 H107       24.0383  -32.4903  -37.1135 H         1 UNK         0.0828 
    108 H108       24.2227  -32.2631  -38.8481 H         1 UNK         0.0828 
    109 H109       24.1107  -30.8661  -37.7796 H         1 UNK         0.0828 
    110 H110       21.6555  -33.0271  -40.2581 H         1 UNK         0.2931 
    111 H111       21.1038  -35.7232  -39.4703 H         1 UNK         0.0412 
    112 H112       17.5925  -33.8031  -38.9610 H         1 UNK         0.3472 
    113 H113       19.0786  -32.8938  -39.0715 H         1 UNK         0.3472 
    114 H114       20.1851  -35.7768  -41.9486 H         1 UNK         0.0970 
    115 H115       21.8800  -35.5824  -41.6534 H         1 UNK         0.0970 
    116 H116       18.5845  -33.5320  -42.2582 H         1 UNK         0.0612 
    117 H117       19.0605  -34.1608  -43.8232 H         1 UNK         0.0612 
@<TRIPOS>BOND
     1    1    2 1    
     2    1   62 1    
     3    1   63 1    
     4    1   64 1    
     5    2    3 2    
     6    2    4 am   BACKBONE|DICT|INTERRES
     7    4    5 1    
     8    4   65 1    
     9    5    6 1    
    10    5   25 1    
    11    5   66 1    
    12    6    7 1    
    13    6   67 1    
    14    6   68 1    
    15    7    8 1    
    16    8    9 1    
    17    8   69 1    
    18    8   70 1    
    19    9   10 ar   
    20    9   14 ar   
    21   10   11 ar   
    22   10   71 1    
    23   11   12 ar   
    24   11   61 1    
    25   12   13 ar   
    26   12   72 1    
    27   13   14 ar   
    28   13   15 1    
    29   14   73 1    
    30   15   16 1    
    31   15   74 1    
    32   15   75 1    
    33   16   17 1    
    34   17   18 1    
    35   17   76 1    
    36   17   77 1    
    37   18   19 1    
    38   18   27 1    
    39   18   78 1    
    40   19   20 am   BACKBONE|DICT|INTERRES
    41   19   79 1    
    42   20   21 2    
    43   20   22 1    
    44   22   23 1    
    45   22   24 1    
    46   22   80 1    
    47   23   81 1    
    48   23   82 1    
    49   23   83 1    
    50   24   25 am   BACKBONE|DICT|INTERRES
    51   24   84 1    
    52   25   26 2    
    53   27   28 2    
    54   27   29 am   BACKBONE|DICT|INTERRES
    55   29   30 1    
    56   29   85 1    
    57   30   31 1    
    58   30   32 1    
    59   30   86 1    
    60   31   87 1    
    61   31   88 1    
    62   31   89 1    
    63   32   33 2    
    64   32   34 am   BACKBONE|DICT|INTERRES
    65   34   35 1    
    66   34   90 1    
    67   35   36 1    
    68   35   37 1    
    69   35   91 1    
    70   36   92 1    
    71   36   93 1    
    72   36   94 1    
    73   37   38 2    
    74   37   39 am   BACKBONE|DICT|INTERRES
    75   39   40 1    
    76   39   95 1    
    77   40   41 1    
    78   40   42 1    
    79   40   96 1    
    80   41   97 1    
    81   41   98 1    
    82   41   99 1    
    83   42   43 2    
    84   42   44 am   BACKBONE|DICT|INTERRES
    85   44   45 1    
    86   44  100 1    
    87   45   46 1    
    88   45   47 1    
    89   45  101 1    
    90   46  102 1    
    91   46  103 1    
    92   46  104 1    
    93   47   48 2    
    94   47   49 am   BACKBONE|DICT|INTERRES
    95   49   50 1    
    96   49  105 1    
    97   50   51 1    
    98   50   52 1    
    99   50  106 1    
   100   51  107 1    
   101   51  108 1    
   102   51  109 1    
   103   52   53 2    
   104   52   54 am   BACKBONE|DICT|INTERRES
   105   54   55 1    
   106   54  110 1    
   107   55   56 1    
   108   55   59 1    
   109   55  111 1    
   110   56   57 am   BACKBONE|DICT|INTERRES
   111   56   58 2    
   112   57  112 1    
   113   57  113 1    
   114   59   60 1    
   115   59  114 1    
   116   59  115 1    
   117   60   61 1    
   118   61  116 1    
   119   61  117 1    
@<TRIPOS>SUBSTRUCTURE
     1 UNK         1 GROUP             0       ****    0 ROOT    
