@<TRIPOS>MOLECULE
3R8
117   119    1
SMALL
USER_CHARGES


@<TRIPOS>ATOM
      1 CA         23.0129  -23.9655  -48.5147 C.3       0 UNK        -0.2013 
      2 C          22.9669  -24.8578  -47.2834 C.2       0 UNK         0.4866 
      3 O          23.7402  -24.6497  -46.3487 O.2       0 UNK        -0.5176 
      4 N          22.0675  -25.8518  -47.2766 N.am      1 UNK        -0.4884 
      5 CA         21.8706  -26.7939  -46.1666 C.3       1 UNK         0.0853 
      6 C6         21.0437  -28.0209  -46.6238 C.3       10 UNK        -0.0849 
      7 S7         21.2364  -29.4566  -45.5166 S.3       10 UNK        -0.2776 
      8 C8         19.6943  -30.3774  -45.8308 C.3       10 UNK         0.0316 
      9 C9         18.9294  -30.6401  -44.5421 C.ar      10 UNK        -0.0863 
     10 C10        19.5063  -31.4167  -43.5337 C.ar      10 UNK        -0.1009 
     11 C11        18.8141  -31.6809  -42.3509 C.ar      10 UNK        -0.0712 
     12 C12        17.5259  -31.1674  -42.1799 C.ar      10 UNK        -0.0894 
     13 C13        16.9401  -30.3771  -43.1751 C.ar      10 UNK        -0.0745 
     14 C14        17.6444  -30.1203  -44.3566 C.ar      10 UNK        -0.0972 
     15 C15        15.5537  -29.7864  -42.9608 C.3       10 UNK         0.0209 
     16 S16        15.5568  -28.4998  -41.6696 S.3       10 UNK        -0.2568 
     17 C17        16.4730  -27.1393  -42.4722 C.3       10 UNK        -0.0983 
     18 CA         18.0008  -27.1603  -42.1937 C.3       3 UNK         0.0876 
     19 N          18.7717  -26.2879  -43.0884 N.am      3 UNK        -0.4424 
     20 C          18.6539  -24.9663  -43.2701 C.2       2 UNK         0.4918 
     21 O          17.8084  -24.2790  -42.6967 O.2       2 UNK        -0.4875 
     22 CA         19.6536  -24.2660  -44.2134 C.3       2 UNK         0.0481 
     23 CB         20.6486  -23.4107  -43.4050 C.3       2 UNK        -0.1831 
     24 N          20.3689  -25.1287  -45.1673 N.am      2 UNK        -0.4498 
     25 C          21.2419  -26.1207  -44.9274 C.2       1 UNK         0.5027 
     26 O          21.5343  -26.5198  -43.7989 O.2       1 UNK        -0.4969 
     27 C          18.3658  -26.9355  -40.7114 C.2       3 UNK         0.5005 
     28 O          18.7121  -27.8967  -40.0258 O.2       3 UNK        -0.5279 
     29 N          18.3681  -25.6732  -40.2603 N.am      4 UNK        -0.4463 
     30 CA         18.8068  -25.2460  -38.9277 C.3       4 UNK         0.0283 
     31 CB         18.5023  -23.7505  -38.7480 C.3       4 UNK        -0.1875 
     32 C          20.2958  -25.5296  -38.6515 C.2       4 UNK         0.4949 
     33 O          20.6540  -25.8080  -37.5074 O.2       4 UNK        -0.5039 
     34 N          21.1294  -25.4760  -39.7014 N.am      5 UNK        -0.4663 
     35 CA         22.5485  -25.8453  -39.6494 C.3       5 UNK         0.0242 
     36 CB         23.2922  -25.1669  -40.8114 C.3       5 UNK        -0.1982 
     37 C          22.7726  -27.3688  -39.6891 C.2       5 UNK         0.5017 
     38 O          23.8403  -27.8242  -39.2793 O.2       5 UNK        -0.5012 
     39 N          21.7720  -28.1152  -40.1847 N.am      6 UNK        -0.4439 
     40 CA         21.7014  -29.5760  -40.3072 C.3       6 UNK         0.0297 
     41 CB         21.5359  -30.2127  -38.9107 C.3       6 UNK        -0.2006 
     42 C          22.8571  -30.2068  -41.1132 C.2       6 UNK         0.4892 
     43 O          23.2843  -31.3199  -40.7974 O.2       6 UNK        -0.5089 
     44 N          23.3452  -29.4823  -42.1314 N.am      7 UNK        -0.4243 
     45 CA         24.5974  -29.7561  -42.8449 C.3       7 UNK         0.0196 
     46 CB         24.8316  -28.6654  -43.9011 C.3       7 UNK        -0.2007 
     47 C          24.7013  -31.1523  -43.4809 C.2       7 UNK         0.5020 
     48 O          25.7669  -31.7649  -43.4080 O.2       7 UNK        -0.5147 
     49 N          23.6073  -31.6338  -44.0861 N.am      8 UNK        -0.4734 
     50 CA         23.5585  -32.9543  -44.7232 C.3       8 UNK         0.0238 
     51 CB         22.4677  -32.9737  -45.8056 C.3       8 UNK        -0.1912 
     52 C          23.3482  -34.1101  -43.7292 C.2       8 UNK         0.5038 
     53 O          23.6951  -35.2430  -44.0675 O.2       8 UNK        -0.5046 
     54 N          22.7789  -33.8273  -42.5489 N.am      9 UNK        -0.4200 
     55 CA         22.5302  -34.8327  -41.5012 C.3       9 UNK         0.0839 
     56 C          23.7595  -35.0326  -40.5762 C.2       9 UNK         0.5513 
     57 N          24.5274  -33.9893  -40.2844 N.am      9 UNK        -0.7519 
     58 O          24.0186  -36.1441  -40.1227 O.2       9 UNK        -0.4960 
     59 C59        21.2600  -34.5421  -40.6572 C.3       10 UNK        -0.0876 
     60 S60        19.7724  -34.2061  -41.6675 S.3       10 UNK        -0.2414 
     61 C61        19.4962  -32.4612  -41.2402 C.3       10 UNK         0.0169 
     62 H62        22.2804  -24.2643  -49.2643 H         1 UNK         0.0903 
     63 H63        22.8106  -22.9316  -48.2361 H         1 UNK         0.0903 
     64 H64        24.0014  -24.0078  -48.9715 H         1 UNK         0.0903 
     65 H65        21.4707  -25.9825  -48.0819 H         1 UNK         0.3096 
     66 H66        22.8623  -27.1388  -45.8688 H         1 UNK         0.1121 
     67 H67        21.3700  -28.3442  -47.6137 H         1 UNK         0.0849 
     68 H68        19.9889  -27.7579  -46.7254 H         1 UNK         0.0849 
     69 H69        19.0668  -29.8460  -46.5472 H         1 UNK         0.0865 
     70 H70        19.9372  -31.3291  -46.3038 H         1 UNK         0.0865 
     71 H71        20.5046  -31.8079  -43.6593 H         1 UNK         0.1346 
     72 H72        16.9883  -31.3537  -41.2600 H         1 UNK         0.1412 
     73 H73        17.1935  -29.5105  -45.1279 H         1 UNK         0.1426 
     74 H74        14.8706  -30.5825  -42.6616 H         1 UNK         0.0716 
     75 H75        15.1528  -29.3726  -43.8874 H         1 UNK         0.0716 
     76 H76        16.0333  -26.1973  -42.1410 H         1 UNK         0.0695 
     77 H77        16.2918  -27.1894  -43.5468 H         1 UNK         0.0695 
     78 H78        18.3613  -28.1617  -42.4294 H         1 UNK         0.0983 
     79 H79        19.5769  -26.7236  -43.5246 H         1 UNK         0.3095 
     80 H80        19.0600  -23.5855  -44.8256 H         1 UNK         0.0454 
     81 H81        21.3037  -22.8390  -44.0623 H         1 UNK         0.0851 
     82 H82        21.2775  -24.0199  -42.7571 H         1 UNK         0.0851 
     83 H83        20.1259  -22.6947  -42.7693 H         1 UNK         0.0851 
     84 H84        20.1939  -24.9151  -46.1394 H         1 UNK         0.2976 
     85 H85        18.0754  -24.9495  -40.9117 H         1 UNK         0.3116 
     86 H86        18.2242  -25.8058  -38.1931 H         1 UNK         0.0646 
     87 H87        19.0345  -23.1382  -39.4773 H         1 UNK         0.0847 
     88 H88        17.4365  -23.5467  -38.8526 H         1 UNK         0.0847 
     89 H89        18.7998  -23.4081  -37.7558 H         1 UNK         0.0847 
     90 H90        20.7542  -25.2174  -40.6016 H         1 UNK         0.3040 
     91 H91        22.9730  -25.4771  -38.7123 H         1 UNK         0.1015 
     92 H92        24.3633  -25.3667  -40.7556 H         1 UNK         0.0786 
     93 H93        23.1650  -24.0844  -40.7893 H         1 UNK         0.0786 
     94 H94        22.9481  -25.5289  -41.7801 H         1 UNK         0.0786 
     95 H95        20.9184  -27.6318  -40.4292 H         1 UNK         0.3172 
     96 H96        20.7918  -29.7693  -40.8758 H         1 UNK         0.0595 
     97 H97        22.4184  -30.0533  -38.2903 H         1 UNK         0.0839 
     98 H98        21.3783  -31.2893  -38.9750 H         1 UNK         0.0839 
     99 H99        20.6768  -29.7931  -38.3869 H         1 UNK         0.0839 
    100 H100       22.8983  -28.5992  -42.3359 H         1 UNK         0.2998 
    101 H101       25.3966  -29.6823  -42.1043 H         1 UNK         0.0822 
    102 H102       25.8034  -28.7899  -44.3808 H         1 UNK         0.0787 
    103 H103       24.0766  -28.7039  -44.6851 H         1 UNK         0.0787 
    104 H104       24.8121  -27.6680  -43.4610 H         1 UNK         0.0787 
    105 H105       22.7833  -31.0504  -44.1418 H         1 UNK         0.3055 
    106 H106       24.5153  -33.1316  -45.2205 H         1 UNK         0.1106 
    107 H107       21.4681  -32.9204  -45.3776 H         1 UNK         0.0828 
    108 H108       22.5844  -32.1483  -46.5082 H         1 UNK         0.0828 
    109 H109       22.5163  -33.8973  -46.3839 H         1 UNK         0.0828 
    110 H110       22.6082  -32.8633  -42.3003 H         1 UNK         0.2931 
    111 H111       22.3506  -35.7917  -41.9918 H         1 UNK         0.0412 
    112 H112       24.2678  -33.0594  -40.5972 H         1 UNK         0.3472 
    113 H113       25.3297  -34.1145  -39.6881 H         1 UNK         0.3472 
    114 H114       21.0367  -35.4011  -40.0216 H         1 UNK         0.0970 
    115 H115       21.4410  -33.7139  -39.9696 H         1 UNK         0.0970 
    116 H116       18.9347  -32.3998  -40.3068 H         1 UNK         0.0612 
    117 H117       20.4603  -31.9956  -41.0557 H         1 UNK         0.0612 
@<TRIPOS>BOND
     1    1    2 1    
     2    1   62 1    
     3    1   63 1    
     4    1   64 1    
     5    2    3 2    
     6    2    4 am   BACKBONE|DICT|INTERRES
     7    4    5 1    
     8    4   65 1    
     9    5    6 1    
    10    5   25 1    
    11    5   66 1    
    12    6    7 1    
    13    6   67 1    
    14    6   68 1    
    15    7    8 1    
    16    8    9 1    
    17    8   69 1    
    18    8   70 1    
    19    9   10 ar   
    20    9   14 ar   
    21   10   11 ar   
    22   10   71 1    
    23   11   12 ar   
    24   11   61 1    
    25   12   13 ar   
    26   12   72 1    
    27   13   14 ar   
    28   13   15 1    
    29   14   73 1    
    30   15   16 1    
    31   15   74 1    
    32   15   75 1    
    33   16   17 1    
    34   17   18 1    
    35   17   76 1    
    36   17   77 1    
    37   18   19 1    
    38   18   27 1    
    39   18   78 1    
    40   19   20 am   BACKBONE|DICT|INTERRES
    41   19   79 1    
    42   20   21 2    
    43   20   22 1    
    44   22   23 1    
    45   22   24 1    
    46   22   80 1    
    47   23   81 1    
    48   23   82 1    
    49   23   83 1    
    50   24   25 am   BACKBONE|DICT|INTERRES
    51   24   84 1    
    52   25   26 2    
    53   27   28 2    
    54   27   29 am   BACKBONE|DICT|INTERRES
    55   29   30 1    
    56   29   85 1    
    57   30   31 1    
    58   30   32 1    
    59   30   86 1    
    60   31   87 1    
    61   31   88 1    
    62   31   89 1    
    63   32   33 2    
    64   32   34 am   BACKBONE|DICT|INTERRES
    65   34   35 1    
    66   34   90 1    
    67   35   36 1    
    68   35   37 1    
    69   35   91 1    
    70   36   92 1    
    71   36   93 1    
    72   36   94 1    
    73   37   38 2    
    74   37   39 am   BACKBONE|DICT|INTERRES
    75   39   40 1    
    76   39   95 1    
    77   40   41 1    
    78   40   42 1    
    79   40   96 1    
    80   41   97 1    
    81   41   98 1    
    82   41   99 1    
    83   42   43 2    
    84   42   44 am   BACKBONE|DICT|INTERRES
    85   44   45 1    
    86   44  100 1    
    87   45   46 1    
    88   45   47 1    
    89   45  101 1    
    90   46  102 1    
    91   46  103 1    
    92   46  104 1    
    93   47   48 2    
    94   47   49 am   BACKBONE|DICT|INTERRES
    95   49   50 1    
    96   49  105 1    
    97   50   51 1    
    98   50   52 1    
    99   50  106 1    
   100   51  107 1    
   101   51  108 1    
   102   51  109 1    
   103   52   53 2    
   104   52   54 am   BACKBONE|DICT|INTERRES
   105   54   55 1    
   106   54  110 1    
   107   55   56 1    
   108   55   59 1    
   109   55  111 1    
   110   56   57 am   BACKBONE|DICT|INTERRES
   111   56   58 2    
   112   57  112 1    
   113   57  113 1    
   114   59   60 1    
   115   59  114 1    
   116   59  115 1    
   117   60   61 1    
   118   61  116 1    
   119   61  117 1    
@<TRIPOS>SUBSTRUCTURE
     1 UNK         1 GROUP             0       ****    0 ROOT    
