@<TRIPOS>MOLECULE
3R8
117   119    1
SMALL
USER_CHARGES


@<TRIPOS>ATOM
      1 CA         18.8582  -21.9112  -40.8619 C.3       0 UNK        -0.2013 
      2 C          18.1893  -22.9971  -41.6906 C.2       0 UNK         0.4866 
      3 O          17.0461  -23.3606  -41.4145 O.2       0 UNK        -0.5176 
      4 N          18.8886  -23.5142  -42.7050 N.am      1 UNK        -0.4884 
      5 CA         18.4070  -24.5326  -43.6374 C.3       1 UNK         0.0853 
      6 C6         18.3896  -25.9538  -43.0081 C.3       10 UNK        -0.0849 
      7 S7         17.0141  -26.9637  -43.6445 S.3       10 UNK        -0.2776 
      8 C8         17.3186  -28.5445  -42.7798 C.3       10 UNK         0.0316 
      9 C9         18.2353  -29.5410  -43.4954 C.ar      10 UNK        -0.0863 
     10 C10        18.3502  -30.8245  -42.9536 C.ar      10 UNK        -0.1009 
     11 C11        19.1517  -31.7951  -43.5607 C.ar      10 UNK        -0.0712 
     12 C12        19.8480  -31.4775  -44.7302 C.ar      10 UNK        -0.0894 
     13 C13        19.7394  -30.2033  -45.2941 C.ar      10 UNK        -0.0745 
     14 C14        18.9382  -29.2405  -44.6707 C.ar      10 UNK        -0.0972 
     15 C15        20.4389  -29.8800  -46.6088 C.3       10 UNK         0.0209 
     16 S16        22.2584  -29.8534  -46.4952 S.3       10 UNK        -0.2568 
     17 C17        22.5997  -28.6704  -45.1500 C.3       10 UNK        -0.0983 
     18 CA         22.6734  -27.1901  -45.6156 C.3       3 UNK         0.0876 
     19 N          21.3481  -26.6879  -45.9945 N.am      3 UNK        -0.4424 
     20 C          21.0616  -25.9559  -47.0782 C.2       2 UNK         0.4918 
     21 O          21.8846  -25.6652  -47.9454 O.2       2 UNK        -0.4875 
     22 CA         19.6196  -25.4185  -47.1966 C.3       2 UNK         0.0481 
     23 CB         18.7893  -26.2883  -48.1538 C.3       2 UNK        -0.1831 
     24 N          18.9108  -25.2959  -45.9148 N.am      2 UNK        -0.4498 
     25 C          19.2586  -24.4692  -44.9185 C.2       1 UNK         0.5027 
     26 O          20.2283  -23.7079  -44.9760 O.2       1 UNK        -0.4969 
     27 C          23.2962  -26.2751  -44.5308 C.2       3 UNK         0.5005 
     28 O          24.0841  -26.7483  -43.7112 O.2       3 UNK        -0.5279 
     29 N          22.8972  -24.9918  -44.4983 N.am      4 UNK        -0.4463 
     30 CA         23.1778  -23.9481  -43.4975 C.3       4 UNK         0.0283 
     31 CB         24.6861  -23.7459  -43.2537 C.3       4 UNK        -0.1875 
     32 C          22.4111  -24.1479  -42.1775 C.2       4 UNK         0.4949 
     33 O          21.9302  -23.1704  -41.6066 O.2       4 UNK        -0.5039 
     34 N          22.2661  -25.4015  -41.7471 N.am      5 UNK        -0.4663 
     35 CA         21.4596  -25.8727  -40.6270 C.3       5 UNK         0.0242 
     36 CB         22.2265  -25.6627  -39.3056 C.3       5 UNK        -0.1982 
     37 C          21.1273  -27.3506  -40.8921 C.2       5 UNK         0.5017 
     38 O          21.3695  -27.8379  -41.9992 O.2       5 UNK        -0.5012 
     39 N          20.5987  -28.0557  -39.8842 N.am      6 UNK        -0.4439 
     40 CA         20.4417  -29.5121  -39.9060 C.3       6 UNK         0.0297 
     41 CB         19.4310  -29.9375  -38.8270 C.3       6 UNK        -0.2006 
     42 C          21.8168  -30.1764  -39.7140 C.2       6 UNK         0.4892 
     43 O          22.2266  -30.4287  -38.5785 O.2       6 UNK        -0.5089 
     44 N          22.5322  -30.3737  -40.8277 N.am      7 UNK        -0.4243 
     45 CA         23.9083  -30.8679  -40.9006 C.3       7 UNK         0.0196 
     46 CB         24.4780  -30.5148  -42.2866 C.3       7 UNK        -0.2007 
     47 C          24.0149  -32.3715  -40.5835 C.2       7 UNK         0.5020 
     48 O          24.2931  -33.1744  -41.4765 O.2       7 UNK        -0.5147 
     49 N          23.7661  -32.7235  -39.3148 N.am      8 UNK        -0.4734 
     50 CA         23.7468  -34.0600  -38.6988 C.3       8 UNK         0.0238 
     51 CB         25.1040  -34.7784  -38.8352 C.3       8 UNK        -0.1912 
     52 C          22.5869  -34.9481  -39.1809 C.2       8 UNK         0.5038 
     53 O          21.8660  -35.4963  -38.3464 O.2       8 UNK        -0.5046 
     54 N          22.4150  -35.0451  -40.5041 N.am      9 UNK        -0.4200 
     55 CA         21.2976  -35.6975  -41.2062 C.3       9 UNK         0.0839 
     56 C          21.2228  -37.2450  -41.0326 C.2       9 UNK         0.5513 
     57 N          22.2931  -37.9141  -40.6210 N.am      9 UNK        -0.7519 
     58 O          20.1927  -37.8564  -41.3055 O.2       9 UNK        -0.4960 
     59 C59        19.9368  -34.9898  -40.9424 C.3       10 UNK        -0.0876 
     60 S60        19.9901  -33.2043  -41.3274 S.3       10 UNK        -0.2414 
     61 C61        19.2229  -33.1972  -42.9749 C.3       10 UNK         0.0169 
     62 H62        19.1335  -22.3031  -39.8832 H         1 UNK         0.0903 
     63 H63        19.7600  -21.5324  -41.3426 H         1 UNK         0.0903 
     64 H64        18.1776  -21.0728  -40.7167 H         1 UNK         0.0903 
     65 H65        19.8134  -23.1603  -42.9249 H         1 UNK         0.3096 
     66 H66        17.3927  -24.2434  -43.9235 H         1 UNK         0.1121 
     67 H67        19.3354  -26.4775  -43.1564 H         1 UNK         0.0849 
     68 H68        18.2552  -25.8914  -41.9272 H         1 UNK         0.0849 
     69 H69        17.7184  -28.3439  -41.7845 H         1 UNK         0.0865 
     70 H70        16.3496  -29.0220  -42.6260 H         1 UNK         0.0865 
     71 H71        17.8067  -31.0770  -42.0529 H         1 UNK         0.1346 
     72 H72        20.4605  -32.2247  -45.2160 H         1 UNK         0.1412 
     73 H73        18.8509  -28.2660  -45.1239 H         1 UNK         0.1426 
     74 H74        20.0974  -28.9264  -47.0077 H         1 UNK         0.0716 
     75 H75        20.1528  -30.6276  -47.3498 H         1 UNK         0.0716 
     76 H76        23.5560  -28.9867  -44.7317 H         1 UNK         0.0695 
     77 H77        21.8719  -28.7972  -44.3490 H         1 UNK         0.0695 
     78 H78        23.3490  -27.1408  -46.4723 H         1 UNK         0.0983 
     79 H79        20.6138  -26.8577  -45.3254 H         1 UNK         0.3095 
     80 H80        19.6892  -24.4184  -47.6296 H         1 UNK         0.0454 
     81 H81        19.3043  -26.4273  -49.1056 H         1 UNK         0.0851 
     82 H82        17.8287  -25.8232  -48.3755 H         1 UNK         0.0851 
     83 H83        18.5918  -27.2774  -47.7414 H         1 UNK         0.0851 
     84 H84        18.0950  -25.8804  -45.7877 H         1 UNK         0.2976 
     85 H85        22.2026  -24.7138  -45.1812 H         1 UNK         0.3116 
     86 H86        22.7976  -23.0243  -43.9365 H         1 UNK         0.0646 
     87 H87        25.1381  -24.5944  -42.7398 H         1 UNK         0.0847 
     88 H88        24.8600  -22.8674  -42.6311 H         1 UNK         0.0847 
     89 H89        25.2236  -23.5924  -44.1892 H         1 UNK         0.0847 
     90 H90        22.6812  -26.1471  -42.3004 H         1 UNK         0.3040 
     91 H91        20.5212  -25.3145  -40.6035 H         1 UNK         0.1015 
     92 H92        23.1329  -26.2686  -39.2679 H         1 UNK         0.0786 
     93 H93        21.6167  -25.9251  -38.4408 H         1 UNK         0.0786 
     94 H94        22.5194  -24.6203  -39.1785 H         1 UNK         0.0786 
     95 H95        20.4487  -27.6000  -38.9957 H         1 UNK         0.3172 
     96 H96        20.0420  -29.8178  -40.8751 H         1 UNK         0.0595 
     97 H97        19.7483  -29.6375  -37.8275 H         1 UNK         0.0839 
     98 H98        19.3098  -31.0217  -38.8190 H         1 UNK         0.0839 
     99 H99        18.4482  -29.5039  -39.0125 H         1 UNK         0.0839 
    100 H100       22.1153  -30.0834  -41.7028 H         1 UNK         0.2998 
    101 H101       24.5028  -30.3364  -40.1543 H         1 UNK         0.0822 
    102 H102       24.4732  -29.4367  -42.4520 H         1 UNK         0.0787 
    103 H103       25.5108  -30.8519  -42.3837 H         1 UNK         0.0787 
    104 H104       23.9044  -30.9801  -43.0895 H         1 UNK         0.0787 
    105 H105       23.4346  -31.9723  -38.7139 H         1 UNK         0.3055 
    106 H106       23.5784  -33.8873  -37.6343 H         1 UNK         0.1106 
    107 H107       25.0991  -35.7221  -38.2883 H         1 UNK         0.0828 
    108 H108       25.3476  -35.0089  -39.8726 H         1 UNK         0.0828 
    109 H109       25.9142  -34.1735  -38.4281 H         1 UNK         0.0828 
    110 H110       23.0702  -34.5319  -41.0881 H         1 UNK         0.2931 
    111 H111       21.5203  -35.5609  -42.2649 H         1 UNK         0.0412 
    112 H112       23.1467  -37.4249  -40.4042 H         1 UNK         0.3472 
    113 H113       22.2431  -38.9160  -40.5207 H         1 UNK         0.3472 
    114 H114       19.1400  -35.4538  -41.5263 H         1 UNK         0.0970 
    115 H115       19.6437  -35.1070  -39.8980 H         1 UNK         0.0970 
    116 H116       18.2136  -33.6054  -42.9058 H         1 UNK         0.0612 
    117 H117       19.7863  -33.8626  -43.6311 H         1 UNK         0.0612 
@<TRIPOS>BOND
     1    1    2 1    
     2    1   62 1    
     3    1   63 1    
     4    1   64 1    
     5    2    3 2    
     6    2    4 am   BACKBONE|DICT|INTERRES
     7    4    5 1    
     8    4   65 1    
     9    5    6 1    
    10    5   25 1    
    11    5   66 1    
    12    6    7 1    
    13    6   67 1    
    14    6   68 1    
    15    7    8 1    
    16    8    9 1    
    17    8   69 1    
    18    8   70 1    
    19    9   10 ar   
    20    9   14 ar   
    21   10   11 ar   
    22   10   71 1    
    23   11   12 ar   
    24   11   61 1    
    25   12   13 ar   
    26   12   72 1    
    27   13   14 ar   
    28   13   15 1    
    29   14   73 1    
    30   15   16 1    
    31   15   74 1    
    32   15   75 1    
    33   16   17 1    
    34   17   18 1    
    35   17   76 1    
    36   17   77 1    
    37   18   19 1    
    38   18   27 1    
    39   18   78 1    
    40   19   20 am   BACKBONE|DICT|INTERRES
    41   19   79 1    
    42   20   21 2    
    43   20   22 1    
    44   22   23 1    
    45   22   24 1    
    46   22   80 1    
    47   23   81 1    
    48   23   82 1    
    49   23   83 1    
    50   24   25 am   BACKBONE|DICT|INTERRES
    51   24   84 1    
    52   25   26 2    
    53   27   28 2    
    54   27   29 am   BACKBONE|DICT|INTERRES
    55   29   30 1    
    56   29   85 1    
    57   30   31 1    
    58   30   32 1    
    59   30   86 1    
    60   31   87 1    
    61   31   88 1    
    62   31   89 1    
    63   32   33 2    
    64   32   34 am   BACKBONE|DICT|INTERRES
    65   34   35 1    
    66   34   90 1    
    67   35   36 1    
    68   35   37 1    
    69   35   91 1    
    70   36   92 1    
    71   36   93 1    
    72   36   94 1    
    73   37   38 2    
    74   37   39 am   BACKBONE|DICT|INTERRES
    75   39   40 1    
    76   39   95 1    
    77   40   41 1    
    78   40   42 1    
    79   40   96 1    
    80   41   97 1    
    81   41   98 1    
    82   41   99 1    
    83   42   43 2    
    84   42   44 am   BACKBONE|DICT|INTERRES
    85   44   45 1    
    86   44  100 1    
    87   45   46 1    
    88   45   47 1    
    89   45  101 1    
    90   46  102 1    
    91   46  103 1    
    92   46  104 1    
    93   47   48 2    
    94   47   49 am   BACKBONE|DICT|INTERRES
    95   49   50 1    
    96   49  105 1    
    97   50   51 1    
    98   50   52 1    
    99   50  106 1    
   100   51  107 1    
   101   51  108 1    
   102   51  109 1    
   103   52   53 2    
   104   52   54 am   BACKBONE|DICT|INTERRES
   105   54   55 1    
   106   54  110 1    
   107   55   56 1    
   108   55   59 1    
   109   55  111 1    
   110   56   57 am   BACKBONE|DICT|INTERRES
   111   56   58 2    
   112   57  112 1    
   113   57  113 1    
   114   59   60 1    
   115   59  114 1    
   116   59  115 1    
   117   60   61 1    
   118   61  116 1    
   119   61  117 1    
@<TRIPOS>SUBSTRUCTURE
     1 UNK         1 GROUP             0       ****    0 ROOT    
