@<TRIPOS>MOLECULE
3R8
117   119    1
SMALL
USER_CHARGES


@<TRIPOS>ATOM
      1 CA         13.5751  -27.7502  -40.7851 C.3       0 UNK        -0.2013 
      2 C          13.9420  -27.4069  -42.2213 C.2       0 UNK         0.4866 
      3 O          13.0635  -27.0442  -43.0049 O.2       0 UNK        -0.5176 
      4 N          15.2292  -27.5180  -42.5628 N.am      1 UNK        -0.4884 
      5 CA         15.7963  -27.1897  -43.8718 C.3       1 UNK         0.0853 
      6 C6         16.2497  -28.4465  -44.6684 C.3       10 UNK        -0.0849 
      7 S7         14.9499  -29.7024  -44.9190 S.3       10 UNK        -0.2776 
      8 C8         15.6881  -30.7441  -46.2267 C.3       10 UNK         0.0316 
      9 C9         17.1528  -31.0738  -45.9604 C.ar      10 UNK        -0.0863 
     10 C10        17.5183  -31.8110  -44.8298 C.ar      10 UNK        -0.1009 
     11 C11        18.8664  -32.0491  -44.5394 C.ar      10 UNK        -0.0712 
     12 C12        19.8470  -31.5907  -45.4256 C.ar      10 UNK        -0.0894 
     13 C13        19.4945  -30.8743  -46.5722 C.ar      10 UNK        -0.0745 
     14 C14        18.1461  -30.6131  -46.8306 C.ar      10 UNK        -0.0972 
     15 C15        20.5647  -30.3976  -47.5446 C.3       10 UNK         0.0209 
     16 S16        20.9766  -28.6412  -47.3055 S.3       10 UNK        -0.2568 
     17 C17        22.1441  -28.7237  -45.9052 C.3       10 UNK        -0.0983 
     18 CA         22.5664  -27.3076  -45.4183 C.3       3 UNK         0.0876 
     19 N          21.4328  -26.4695  -44.9962 N.am      3 UNK        -0.4424 
     20 C          20.5575  -26.7385  -44.0176 C.2       2 UNK         0.4918 
     21 O          20.6250  -27.7253  -43.2839 O.2       2 UNK        -0.4875 
     22 CA         19.3882  -25.7574  -43.8358 C.3       2 UNK         0.0481 
     23 CB         19.4294  -24.5188  -44.7609 C.3       2 UNK        -0.1831 
     24 N          18.1603  -26.5148  -44.0442 N.am      2 UNK        -0.4498 
     25 C          16.9356  -26.1797  -43.6199 C.2       1 UNK         0.5027 
     26 O          16.6847  -25.1228  -43.0359 O.2       1 UNK        -0.4969 
     27 C          23.7329  -27.3189  -44.3987 C.2       3 UNK         0.5005 
     28 O          24.5841  -28.2090  -44.4523 O.2       3 UNK        -0.5279 
     29 N          23.7828  -26.2906  -43.5348 N.am      4 UNK        -0.4463 
     30 CA         24.8046  -25.9949  -42.5211 C.3       4 UNK         0.0283 
     31 CB         26.1876  -25.8005  -43.1833 C.3       4 UNK        -0.1875 
     32 C          24.8590  -27.0140  -41.3663 C.2       4 UNK         0.4949 
     33 O          24.1144  -27.9960  -41.3450 O.2       4 UNK        -0.5039 
     34 N          25.7596  -26.7571  -40.4072 N.am      5 UNK        -0.4663 
     35 CA         25.9921  -27.5817  -39.2137 C.3       5 UNK         0.0242 
     36 CB         26.9469  -26.8360  -38.2673 C.3       5 UNK        -0.1982 
     37 C          26.5256  -28.9957  -39.5119 C.2       5 UNK         0.5017 
     38 O          26.4016  -29.8735  -38.6584 O.2       5 UNK        -0.5012 
     39 N          27.0893  -29.1956  -40.7123 N.am      6 UNK        -0.4439 
     40 CA         27.4929  -30.4994  -41.2425 C.3       6 UNK         0.0297 
     41 CB         28.2968  -30.2990  -42.5373 C.3       6 UNK        -0.2006 
     42 C          26.2936  -31.4332  -41.4884 C.2       6 UNK         0.4892 
     43 O          26.4077  -32.6346  -41.2431 O.2       6 UNK        -0.5089 
     44 N          25.1706  -30.8647  -41.9493 N.am      7 UNK        -0.4243 
     45 CA         23.8949  -31.5633  -42.0984 C.3       7 UNK         0.0196 
     46 CB         23.1003  -30.9216  -43.2421 C.3       7 UNK        -0.2007 
     47 C          23.0808  -31.5121  -40.7985 C.2       7 UNK         0.5020 
     48 O          22.4715  -32.5146  -40.4279 O.2       7 UNK        -0.5147 
     49 N          23.0844  -30.3396  -40.1453 N.am      8 UNK        -0.4734 
     50 CA         22.3921  -29.9991  -38.8953 C.3       8 UNK         0.0238 
     51 CB         22.8785  -30.8820  -37.7263 C.3       8 UNK        -0.1912 
     52 C          20.8544  -29.9608  -39.0114 C.2       8 UNK         0.5038 
     53 O          20.1745  -29.9586  -37.9836 O.2       8 UNK        -0.5046 
     54 N          20.3329  -29.8935  -40.2433 N.am      9 UNK        -0.4200 
     55 CA         18.9031  -29.7207  -40.5421 C.3       9 UNK         0.0839 
     56 C          18.4195  -28.2425  -40.4838 C.2       9 UNK         0.5513 
     57 N          19.2820  -27.2553  -40.2763 N.am      9 UNK        -0.7519 
     58 O          17.2251  -27.9894  -40.6141 O.2       9 UNK        -0.4960 
     59 C59        18.5137  -30.3945  -41.8832 C.3       10 UNK        -0.0876 
     60 S60        18.4469  -32.2154  -41.7524 S.3       10 UNK        -0.2414 
     61 C61        19.2786  -32.7954  -43.2725 C.3       10 UNK         0.0169 
     62 H62        13.1344  -26.8840  -40.2925 H         1 UNK         0.0903 
     63 H63        12.8471  -28.5608  -40.7676 H         1 UNK         0.0903 
     64 H64        14.4442  -28.0634  -40.2066 H         1 UNK         0.0903 
     65 H65        15.9157  -27.7433  -41.8429 H         1 UNK         0.3096 
     66 H66        15.0578  -26.6591  -44.4768 H         1 UNK         0.1121 
     67 H67        17.0781  -28.9427  -44.1623 H         1 UNK         0.0849 
     68 H68        16.6166  -28.1496  -45.6532 H         1 UNK         0.0849 
     69 H69        15.1190  -31.6712  -46.3074 H         1 UNK         0.0865 
     70 H70        15.5756  -30.2331  -47.1842 H         1 UNK         0.0865 
     71 H71        16.7521  -32.1627  -44.1524 H         1 UNK         0.1346 
     72 H72        20.8899  -31.7910  -45.2285 H         1 UNK         0.1412 
     73 H73        17.8742  -30.0447  -47.7099 H         1 UNK         0.1426 
     74 H74        20.2082  -30.5352  -48.5665 H         1 UNK         0.0716 
     75 H75        21.4682  -31.0032  -47.4568 H         1 UNK         0.0716 
     76 H76        23.0128  -29.2972  -46.2330 H         1 UNK         0.0695 
     77 H77        21.6851  -29.2921  -45.0968 H         1 UNK         0.0695 
     78 H78        22.9878  -26.7972  -46.2860 H         1 UNK         0.0983 
     79 H79        21.2776  -25.6432  -45.5556 H         1 UNK         0.3095 
     80 H80        19.4195  -25.4195  -42.7981 H         1 UNK         0.0454 
     81 H81        19.3494  -24.7910  -45.8141 H         1 UNK         0.0851 
     82 H82        20.3497  -23.9495  -44.6245 H         1 UNK         0.0851 
     83 H83        18.6091  -23.8360  -44.5399 H         1 UNK         0.0851 
     84 H84        18.2976  -27.4197  -44.4734 H         1 UNK         0.2976 
     85 H85        23.0115  -25.6399  -43.5657 H         1 UNK         0.3116 
     86 H86        24.5102  -25.0431  -42.0763 H         1 UNK         0.0646 
     87 H87        26.6012  -26.7410  -43.5489 H         1 UNK         0.0847 
     88 H88        26.9121  -25.3775  -42.4871 H         1 UNK         0.0847 
     89 H89        26.1278  -25.1147  -44.0285 H         1 UNK         0.0847 
     90 H90        26.3231  -25.9223  -40.4873 H         1 UNK         0.3040 
     91 H91        25.0337  -27.7064  -38.7049 H         1 UNK         0.1015 
     92 H92        27.9199  -26.6627  -38.7289 H         1 UNK         0.0786 
     93 H93        27.1173  -27.4077  -37.3536 H         1 UNK         0.0786 
     94 H94        26.5379  -25.8703  -37.9692 H         1 UNK         0.0786 
     95 H95        27.1645  -28.4036  -41.3332 H         1 UNK         0.3172 
     96 H96        28.1429  -30.9761  -40.5056 H         1 UNK         0.0595 
     97 H97        28.6266  -31.2570  -42.9421 H         1 UNK         0.0839 
     98 H98        29.1900  -29.6990  -42.3625 H         1 UNK         0.0839 
     99 H99        27.7053  -29.8060  -43.3103 H         1 UNK         0.0839 
    100 H100       25.1563  -29.8652  -42.1103 H         1 UNK         0.2998 
    101 H101       24.0748  -32.6106  -42.3511 H         1 UNK         0.0822 
    102 H102       22.1531  -31.4338  -43.3868 H         1 UNK         0.0787 
    103 H103       22.8718  -29.8753  -43.0367 H         1 UNK         0.0787 
    104 H104       23.6475  -30.9686  -44.1838 H         1 UNK         0.0787 
    105 H105       23.5672  -29.5583  -40.5882 H         1 UNK         0.3055 
    106 H106       22.6884  -28.9737  -38.6691 H         1 UNK         0.1106 
    107 H107       22.4975  -30.5148  -36.7727 H         1 UNK         0.0828 
    108 H108       22.5449  -31.9146  -37.8307 H         1 UNK         0.0828 
    109 H109       23.9664  -30.8855  -37.6579 H         1 UNK         0.0828 
    110 H110       20.9614  -29.8762  -41.0323 H         1 UNK         0.2931 
    111 H111       18.3346  -30.2235  -39.7572 H         1 UNK         0.0412 
    112 H112       18.9417  -26.3086  -40.2295 H         1 UNK         0.3472 
    113 H113       20.2675  -27.4448  -40.2004 H         1 UNK         0.3472 
    114 H114       17.5174  -30.0839  -42.2010 H         1 UNK         0.0970 
    115 H115       19.1971  -30.0848  -42.6758 H         1 UNK         0.0970 
    116 H116       20.3538  -32.7294  -43.1131 H         1 UNK         0.0612 
    117 H117       19.0573  -33.8550  -43.4049 H         1 UNK         0.0612 
@<TRIPOS>BOND
     1    1    2 1    
     2    1   62 1    
     3    1   63 1    
     4    1   64 1    
     5    2    3 2    
     6    2    4 am   BACKBONE|DICT|INTERRES
     7    4    5 1    
     8    4   65 1    
     9    5    6 1    
    10    5   25 1    
    11    5   66 1    
    12    6    7 1    
    13    6   67 1    
    14    6   68 1    
    15    7    8 1    
    16    8    9 1    
    17    8   69 1    
    18    8   70 1    
    19    9   10 ar   
    20    9   14 ar   
    21   10   11 ar   
    22   10   71 1    
    23   11   12 ar   
    24   11   61 1    
    25   12   13 ar   
    26   12   72 1    
    27   13   14 ar   
    28   13   15 1    
    29   14   73 1    
    30   15   16 1    
    31   15   74 1    
    32   15   75 1    
    33   16   17 1    
    34   17   18 1    
    35   17   76 1    
    36   17   77 1    
    37   18   19 1    
    38   18   27 1    
    39   18   78 1    
    40   19   20 am   BACKBONE|DICT|INTERRES
    41   19   79 1    
    42   20   21 2    
    43   20   22 1    
    44   22   23 1    
    45   22   24 1    
    46   22   80 1    
    47   23   81 1    
    48   23   82 1    
    49   23   83 1    
    50   24   25 am   BACKBONE|DICT|INTERRES
    51   24   84 1    
    52   25   26 2    
    53   27   28 2    
    54   27   29 am   BACKBONE|DICT|INTERRES
    55   29   30 1    
    56   29   85 1    
    57   30   31 1    
    58   30   32 1    
    59   30   86 1    
    60   31   87 1    
    61   31   88 1    
    62   31   89 1    
    63   32   33 2    
    64   32   34 am   BACKBONE|DICT|INTERRES
    65   34   35 1    
    66   34   90 1    
    67   35   36 1    
    68   35   37 1    
    69   35   91 1    
    70   36   92 1    
    71   36   93 1    
    72   36   94 1    
    73   37   38 2    
    74   37   39 am   BACKBONE|DICT|INTERRES
    75   39   40 1    
    76   39   95 1    
    77   40   41 1    
    78   40   42 1    
    79   40   96 1    
    80   41   97 1    
    81   41   98 1    
    82   41   99 1    
    83   42   43 2    
    84   42   44 am   BACKBONE|DICT|INTERRES
    85   44   45 1    
    86   44  100 1    
    87   45   46 1    
    88   45   47 1    
    89   45  101 1    
    90   46  102 1    
    91   46  103 1    
    92   46  104 1    
    93   47   48 2    
    94   47   49 am   BACKBONE|DICT|INTERRES
    95   49   50 1    
    96   49  105 1    
    97   50   51 1    
    98   50   52 1    
    99   50  106 1    
   100   51  107 1    
   101   51  108 1    
   102   51  109 1    
   103   52   53 2    
   104   52   54 am   BACKBONE|DICT|INTERRES
   105   54   55 1    
   106   54  110 1    
   107   55   56 1    
   108   55   59 1    
   109   55  111 1    
   110   56   57 am   BACKBONE|DICT|INTERRES
   111   56   58 2    
   112   57  112 1    
   113   57  113 1    
   114   59   60 1    
   115   59  114 1    
   116   59  115 1    
   117   60   61 1    
   118   61  116 1    
   119   61  117 1    
@<TRIPOS>SUBSTRUCTURE
     1 UNK         1 GROUP             0       ****    0 ROOT    
