@<TRIPOS>MOLECULE
3R8
117   119    1
SMALL
USER_CHARGES


@<TRIPOS>ATOM
      1 CA         17.1608  -21.5359  -43.6477 C.3       0 UNK        -0.2013 
      2 C          17.3405  -22.8821  -44.3335 C.2       0 UNK         0.4866 
      3 O          16.9770  -23.0280  -45.5013 O.2       0 UNK        -0.5176 
      4 N          17.8889  -23.8695  -43.6151 N.am      1 UNK        -0.4884 
      5 CA         18.1810  -25.2129  -44.1256 C.3       1 UNK         0.0853 
      6 C6         18.4953  -26.2045  -42.9784 C.3       10 UNK        -0.0849 
      7 S7         17.0367  -26.5508  -41.9381 S.3       10 UNK        -0.2776 
      8 C8         16.1859  -27.8723  -42.8635 C.3       10 UNK         0.0316 
      9 C9         17.0254  -29.1359  -43.0023 C.ar      10 UNK        -0.0863 
     10 C10        17.1171  -30.0463  -41.9442 C.ar      10 UNK        -0.1009 
     11 C11        17.8584  -31.2259  -42.0798 C.ar      10 UNK        -0.0712 
     12 C12        18.5060  -31.4846  -43.2916 C.ar      10 UNK        -0.0894 
     13 C13        18.4617  -30.5632  -44.3403 C.ar      10 UNK        -0.0745 
     14 C14        17.6980  -29.4024  -44.1985 C.ar      10 UNK        -0.0972 
     15 C15        19.2579  -30.8056  -45.6167 C.3       10 UNK         0.0209 
     16 S16        21.0197  -31.1957  -45.3154 S.3       10 UNK        -0.2568 
     17 C17        21.5655  -29.9159  -44.1280 C.3       10 UNK        -0.0983 
     18 CA         22.1913  -28.6830  -44.8175 C.3       3 UNK         0.0876 
     19 N          21.2040  -27.9424  -45.6009 N.am      3 UNK        -0.4424 
     20 C          21.4922  -27.0714  -46.5762 C.2       2 UNK         0.4918 
     21 O          22.6267  -26.8817  -47.0158 O.2       2 UNK        -0.4875 
     22 CA         20.3121  -26.2685  -47.1545 C.3       2 UNK         0.0481 
     23 CB         19.7264  -26.9872  -48.3805 C.3       2 UNK        -0.1831 
     24 N          19.2487  -26.0362  -46.1710 N.am      2 UNK        -0.4498 
     25 C          19.3463  -25.1890  -45.1351 C.2       1 UNK         0.5027 
     26 O          20.3136  -24.4489  -44.9394 O.2       1 UNK        -0.4969 
     27 C          22.8127  -27.7276  -43.7806 C.2       3 UNK         0.5005 
     28 O          22.0724  -26.9879  -43.1238 O.2       3 UNK        -0.5279 
     29 N          24.1494  -27.7547  -43.6707 N.am      4 UNK        -0.4463 
     30 CA         24.9808  -26.8538  -42.8649 C.3       4 UNK         0.0283 
     31 CB         26.4490  -27.3033  -42.9577 C.3       4 UNK        -0.1875 
     32 C          24.5302  -26.7598  -41.3983 C.2       4 UNK         0.4949 
     33 O          24.6855  -27.7253  -40.6509 O.2       4 UNK        -0.5039 
     34 N          23.9443  -25.6083  -41.0386 N.am      5 UNK        -0.4663 
     35 CA         23.3762  -25.2722  -39.7250 C.3       5 UNK         0.0242 
     36 CB         24.5014  -25.1272  -38.6774 C.3       5 UNK        -0.1982 
     37 C          22.2582  -26.2305  -39.2584 C.2       5 UNK         0.5017 
     38 O          22.0480  -26.3667  -38.0519 O.2       5 UNK        -0.5012 
     39 N          21.5734  -26.8813  -40.2147 N.am      6 UNK        -0.4439 
     40 CA         20.5661  -27.9324  -40.0174 C.3       6 UNK         0.0297 
     41 CB         19.3221  -27.3774  -39.2914 C.3       6 UNK        -0.2006 
     42 C          21.1328  -29.1955  -39.3322 C.2       6 UNK         0.4892 
     43 O          20.3975  -29.8837  -38.6222 O.2       6 UNK        -0.5089 
     44 N          22.4248  -29.4729  -39.5478 N.am      7 UNK        -0.4243 
     45 CA         23.1359  -30.6561  -39.0722 C.3       7 UNK         0.0196 
     46 CB         24.2760  -30.2065  -38.1424 C.3       7 UNK        -0.2007 
     47 C          23.6861  -31.4296  -40.2777 C.2       7 UNK         0.5020 
     48 O          23.7537  -30.8841  -41.3811 O.2       7 UNK        -0.5147 
     49 N          24.0743  -32.6913  -40.0367 N.am      8 UNK        -0.4734 
     50 CA         24.5479  -33.6681  -41.0314 C.3       8 UNK         0.0238 
     51 CB         25.9041  -33.2371  -41.6321 C.3       8 UNK        -0.1912 
     52 C          23.4773  -33.9678  -42.1010 C.2       8 UNK         0.5038 
     53 O          23.7721  -33.9668  -43.2975 O.2       8 UNK        -0.5046 
     54 N          22.2448  -34.1955  -41.6282 N.am      9 UNK        -0.4200 
     55 CA         21.0314  -34.3945  -42.4362 C.3       9 UNK         0.0839 
     56 C          21.0108  -35.6820  -43.3113 C.2       9 UNK         0.5513 
     57 N          21.8748  -36.6627  -43.0777 N.am      9 UNK        -0.7519 
     58 O          20.1883  -35.7924  -44.2165 O.2       9 UNK        -0.4960 
     59 C59        19.7514  -34.3218  -41.5584 C.3       10 UNK        -0.0876 
     60 S60        19.6322  -32.7925  -40.5607 S.3       10 UNK        -0.2414 
     61 C61        17.9363  -32.2145  -40.9194 C.3       10 UNK         0.0169 
     62 H62        16.1081  -21.2546  -43.6433 H         1 UNK         0.0903 
     63 H63        17.5111  -21.5536  -42.6158 H         1 UNK         0.0903 
     64 H64        17.7174  -20.7661  -44.1815 H         1 UNK         0.0903 
     65 H65        18.1757  -23.6938  -42.6629 H         1 UNK         0.3096 
     66 H66        17.2908  -25.5619  -44.6536 H         1 UNK         0.1121 
     67 H67        19.2823  -25.8018  -42.3372 H         1 UNK         0.0849 
     68 H68        18.8975  -27.1450  -43.3539 H         1 UNK         0.0849 
     69 H69        15.2554  -28.1143  -42.3478 H         1 UNK         0.0865 
     70 H70        15.8917  -27.4961  -43.8442 H         1 UNK         0.0865 
     71 H71        16.6034  -29.8355  -41.0160 H         1 UNK         0.1346 
     72 H72        19.0794  -32.3891  -43.4160 H         1 UNK         0.1412 
     73 H73        17.6335  -28.6988  -45.0163 H         1 UNK         0.1426 
     74 H74        19.2037  -29.9403  -46.2783 H         1 UNK         0.0716 
     75 H75        18.8049  -31.6345  -46.1619 H         1 UNK         0.0716 
     76 H76        22.3048  -30.3955  -43.4856 H         1 UNK         0.0695 
     77 H77        20.7519  -29.6221  -43.4638 H         1 UNK         0.0695 
     78 H78        22.9773  -29.0287  -45.4931 H         1 UNK         0.0983 
     79 H79        20.2537  -28.0024  -45.2757 H         1 UNK         0.3095 
     80 H80        20.6962  -25.2996  -47.4807 H         1 UNK         0.0454 
     81 H81        19.3153  -27.9640  -48.1229 H         1 UNK         0.0851 
     82 H82        20.4931  -27.1481  -49.1397 H         1 UNK         0.0851 
     83 H83        18.9339  -26.3998  -48.8446 H         1 UNK         0.0851 
     84 H84        18.4015  -26.5723  -46.2907 H         1 UNK         0.2976 
     85 H85        24.6551  -28.4308  -44.2245 H         1 UNK         0.3116 
     86 H86        24.9080  -25.8619  -43.3154 H         1 UNK         0.0646 
     87 H87        26.8129  -27.2726  -43.9848 H         1 UNK         0.0847 
     88 H88        26.5840  -28.3188  -42.5823 H         1 UNK         0.0847 
     89 H89        27.0945  -26.6512  -42.3677 H         1 UNK         0.0847 
     90 H90        23.8257  -24.9012  -41.7520 H         1 UNK         0.3040 
     91 H91        22.9010  -24.2962  -39.8365 H         1 UNK         0.1015 
     92 H92        24.9757  -26.0850  -38.4601 H         1 UNK         0.0786 
     93 H93        24.1147  -24.7353  -37.7358 H         1 UNK         0.0786 
     94 H94        25.2750  -24.4390  -39.0177 H         1 UNK         0.0786 
     95 H95        21.8405  -26.7203  -41.1841 H         1 UNK         0.3172 
     96 H96        20.2552  -28.2398  -41.0173 H         1 UNK         0.0595 
     97 H97        19.5118  -27.2094  -38.2310 H         1 UNK         0.0839 
     98 H98        18.4878  -28.0760  -39.3656 H         1 UNK         0.0839 
     99 H99        18.9951  -26.4326  -39.7235 H         1 UNK         0.0839 
    100 H100       22.9699  -28.8715  -40.1576 H         1 UNK         0.2998 
    101 H101       22.4608  -31.3155  -38.5226 H         1 UNK         0.0822 
    102 H102       23.8936  -29.6275  -37.3015 H         1 UNK         0.0787 
    103 H103       24.8119  -31.0622  -37.7304 H         1 UNK         0.0787 
    104 H104       25.0039  -29.5875  -38.6687 H         1 UNK         0.0787 
    105 H105       23.9921  -33.0395  -39.0908 H         1 UNK         0.3055 
    106 H106       24.7124  -34.6056  -40.4974 H         1 UNK         0.1106 
    107 H107       25.8145  -32.3336  -42.2361 H         1 UNK         0.0828 
    108 H108       26.3095  -34.0173  -42.2775 H         1 UNK         0.0828 
    109 H109       26.6413  -33.0470  -40.8523 H         1 UNK         0.0828 
    110 H110       22.0999  -34.1570  -40.6306 H         1 UNK         0.2931 
    111 H111       21.0018  -33.5604  -43.1388 H         1 UNK         0.0412 
    112 H112       21.8507  -37.4904  -43.6528 H         1 UNK         0.3472 
    113 H113       22.5550  -36.5803  -42.3394 H         1 UNK         0.3472 
    114 H114       19.7172  -35.1700  -40.8721 H         1 UNK         0.0970 
    115 H115       18.8617  -34.4138  -42.1839 H         1 UNK         0.0970 
    116 H116       17.5576  -31.7455  -40.0099 H         1 UNK         0.0612 
    117 H117       17.2798  -33.0625  -41.1171 H         1 UNK         0.0612 
@<TRIPOS>BOND
     1    1    2 1    
     2    1   62 1    
     3    1   63 1    
     4    1   64 1    
     5    2    3 2    
     6    2    4 am   BACKBONE|DICT|INTERRES
     7    4    5 1    
     8    4   65 1    
     9    5    6 1    
    10    5   25 1    
    11    5   66 1    
    12    6    7 1    
    13    6   67 1    
    14    6   68 1    
    15    7    8 1    
    16    8    9 1    
    17    8   69 1    
    18    8   70 1    
    19    9   10 ar   
    20    9   14 ar   
    21   10   11 ar   
    22   10   71 1    
    23   11   12 ar   
    24   11   61 1    
    25   12   13 ar   
    26   12   72 1    
    27   13   14 ar   
    28   13   15 1    
    29   14   73 1    
    30   15   16 1    
    31   15   74 1    
    32   15   75 1    
    33   16   17 1    
    34   17   18 1    
    35   17   76 1    
    36   17   77 1    
    37   18   19 1    
    38   18   27 1    
    39   18   78 1    
    40   19   20 am   BACKBONE|DICT|INTERRES
    41   19   79 1    
    42   20   21 2    
    43   20   22 1    
    44   22   23 1    
    45   22   24 1    
    46   22   80 1    
    47   23   81 1    
    48   23   82 1    
    49   23   83 1    
    50   24   25 am   BACKBONE|DICT|INTERRES
    51   24   84 1    
    52   25   26 2    
    53   27   28 2    
    54   27   29 am   BACKBONE|DICT|INTERRES
    55   29   30 1    
    56   29   85 1    
    57   30   31 1    
    58   30   32 1    
    59   30   86 1    
    60   31   87 1    
    61   31   88 1    
    62   31   89 1    
    63   32   33 2    
    64   32   34 am   BACKBONE|DICT|INTERRES
    65   34   35 1    
    66   34   90 1    
    67   35   36 1    
    68   35   37 1    
    69   35   91 1    
    70   36   92 1    
    71   36   93 1    
    72   36   94 1    
    73   37   38 2    
    74   37   39 am   BACKBONE|DICT|INTERRES
    75   39   40 1    
    76   39   95 1    
    77   40   41 1    
    78   40   42 1    
    79   40   96 1    
    80   41   97 1    
    81   41   98 1    
    82   41   99 1    
    83   42   43 2    
    84   42   44 am   BACKBONE|DICT|INTERRES
    85   44   45 1    
    86   44  100 1    
    87   45   46 1    
    88   45   47 1    
    89   45  101 1    
    90   46  102 1    
    91   46  103 1    
    92   46  104 1    
    93   47   48 2    
    94   47   49 am   BACKBONE|DICT|INTERRES
    95   49   50 1    
    96   49  105 1    
    97   50   51 1    
    98   50   52 1    
    99   50  106 1    
   100   51  107 1    
   101   51  108 1    
   102   51  109 1    
   103   52   53 2    
   104   52   54 am   BACKBONE|DICT|INTERRES
   105   54   55 1    
   106   54  110 1    
   107   55   56 1    
   108   55   59 1    
   109   55  111 1    
   110   56   57 am   BACKBONE|DICT|INTERRES
   111   56   58 2    
   112   57  112 1    
   113   57  113 1    
   114   59   60 1    
   115   59  114 1    
   116   59  115 1    
   117   60   61 1    
   118   61  116 1    
   119   61  117 1    
@<TRIPOS>SUBSTRUCTURE
     1 UNK         1 GROUP             0       ****    0 ROOT    
