@<TRIPOS>MOLECULE
3R8
117   119    1
SMALL
USER_CHARGES


@<TRIPOS>ATOM
      1 CA         16.0912  -22.7914  -43.6952 C.3       0 UNK        -0.2013 
      2 C          16.9739  -24.0297  -43.6777 C.2       0 UNK         0.4866 
      3 O          17.3262  -24.5488  -44.7375 O.2       0 UNK        -0.5176 
      4 N          17.3553  -24.5029  -42.4839 N.am      1 UNK        -0.4884 
      5 CA         18.1914  -25.6895  -42.2548 C.3       1 UNK         0.0853 
      6 C6         17.9017  -26.2960  -40.8533 C.3       10 UNK        -0.0849 
      7 S7         18.3942  -28.0472  -40.7058 S.3       10 UNK        -0.2776 
      8 C8         16.9370  -28.9025  -41.3858 C.3       10 UNK         0.0316 
      9 C9         17.3486  -29.9832  -42.3744 C.ar      10 UNK        -0.0863 
     10 C10        17.0274  -31.3227  -42.1481 C.ar      10 UNK        -0.1009 
     11 C11        17.4101  -32.3084  -43.0638 C.ar      10 UNK        -0.0712 
     12 C12        18.0993  -31.9413  -44.2260 C.ar      10 UNK        -0.0894 
     13 C13        18.4247  -30.6021  -44.4698 C.ar      10 UNK        -0.0745 
     14 C14        18.0502  -29.6355  -43.5296 C.ar      10 UNK        -0.0972 
     15 C15        19.2229  -30.2324  -45.7212 C.3       10 UNK         0.0209 
     16 S16        18.9787  -28.5073  -46.2820 S.3       10 UNK        -0.2568 
     17 C17        20.5060  -28.1802  -47.2284 C.3       10 UNK        -0.0983 
     18 CA         21.6693  -27.5554  -46.4039 C.3       3 UNK         0.0876 
     19 N          21.2169  -26.4452  -45.5621 N.am      3 UNK        -0.4424 
     20 C          22.0081  -25.5094  -45.0224 C.2       2 UNK         0.4918 
     21 O          23.2205  -25.4408  -45.2270 O.2       2 UNK        -0.4875 
     22 CA         21.3427  -24.4498  -44.1264 C.3       2 UNK         0.0481 
     23 CB         21.2550  -23.1068  -44.8695 C.3       2 UNK        -0.1831 
     24 N          19.9959  -24.8334  -43.6928 N.am      2 UNK        -0.4498 
     25 C          19.6909  -25.3973  -42.5176 C.2       1 UNK         0.5027 
     26 O          20.5326  -25.6517  -41.6564 O.2       1 UNK        -0.4969 
     27 C          22.4342  -28.6227  -45.5933 C.2       3 UNK         0.5005 
     28 O          22.2914  -28.7030  -44.3695 O.2       3 UNK        -0.5279 
     29 N          23.1950  -29.4571  -46.3184 N.am      4 UNK        -0.4463 
     30 CA         23.9589  -30.6077  -45.8290 C.3       4 UNK         0.0283 
     31 CB         23.0045  -31.7412  -45.3915 C.3       4 UNK        -0.1875 
     32 C          24.9873  -30.1959  -44.7595 C.2       4 UNK         0.4949 
     33 O          25.9015  -29.4330  -45.0747 O.2       4 UNK        -0.5039 
     34 N          24.8291  -30.6977  -43.5286 N.am      5 UNK        -0.4663 
     35 CA         25.6856  -30.3789  -42.3860 C.3       5 UNK         0.0242 
     36 CB         25.4757  -31.4488  -41.3012 C.3       5 UNK        -0.1982 
     37 C          25.4407  -28.9737  -41.8049 C.2       5 UNK         0.5017 
     38 O          26.3266  -28.4671  -41.1153 O.2       5 UNK        -0.5012 
     39 N          24.2623  -28.3930  -42.0869 N.am      6 UNK        -0.4439 
     40 CA         23.6688  -27.1811  -41.5096 C.3       6 UNK         0.0297 
     41 CB         24.5667  -25.9407  -41.6780 C.3       6 UNK        -0.2006 
     42 C          23.2483  -27.3982  -40.0443 C.2       6 UNK         0.4892 
     43 O          24.0382  -27.8797  -39.2305 O.2       6 UNK        -0.5089 
     44 N          21.9876  -27.0576  -39.7447 N.am      7 UNK        -0.4243 
     45 CA         21.2690  -27.3044  -38.4848 C.3       7 UNK         0.0196 
     46 CB         21.9071  -26.5246  -37.3154 C.3       7 UNK        -0.2007 
     47 C          21.0685  -28.8024  -38.1584 C.2       7 UNK         0.5020 
     48 O          20.7191  -29.1344  -37.0245 O.2       7 UNK        -0.5147 
     49 N          21.2696  -29.6777  -39.1499 N.am      8 UNK        -0.4734 
     50 CA         21.1431  -31.1289  -39.0877 C.3       8 UNK         0.0238 
     51 CB         22.2978  -31.7347  -38.2648 C.3       8 UNK        -0.1912 
     52 C          21.1615  -31.6730  -40.5216 C.2       8 UNK         0.5038 
     53 O          21.6894  -31.0084  -41.4190 O.2       8 UNK        -0.5046 
     54 N          20.6060  -32.8772  -40.6976 N.am      9 UNK        -0.4200 
     55 CA         20.5757  -33.6116  -41.9710 C.3       9 UNK         0.0839 
     56 C          21.9789  -34.0927  -42.4393 C.2       9 UNK         0.5513 
     57 N          22.1014  -34.5011  -43.6949 N.am      9 UNK        -0.7519 
     58 O          22.9413  -34.1451  -41.6762 O.2       9 UNK        -0.4960 
     59 C59        19.5760  -34.8018  -41.9379 C.3       10 UNK        -0.0876 
     60 S60        17.9142  -34.3916  -41.3016 S.3       10 UNK        -0.2414 
     61 C61        17.0677  -33.7661  -42.7894 C.3       10 UNK         0.0169 
     62 H62        15.1519  -23.0085  -44.2029 H         1 UNK         0.0903 
     63 H63        15.8599  -22.4404  -42.6897 H         1 UNK         0.0903 
     64 H64        16.5893  -21.9836  -44.2308 H         1 UNK         0.0903 
     65 H65        17.0696  -24.0079  -41.6502 H         1 UNK         0.3096 
     66 H66        17.8958  -26.4323  -42.9979 H         1 UNK         0.1121 
     67 H67        16.8363  -26.2329  -40.6251 H         1 UNK         0.0849 
     68 H68        18.3981  -25.7215  -40.0689 H         1 UNK         0.0849 
     69 H69        16.3570  -29.3217  -40.5623 H         1 UNK         0.0865 
     70 H70        16.2805  -28.1973  -41.8972 H         1 UNK         0.0865 
     71 H71        16.4898  -31.6058  -41.2534 H         1 UNK         0.1346 
     72 H72        18.3962  -32.7016  -44.9355 H         1 UNK         0.1412 
     73 H73        18.3161  -28.6009  -43.6803 H         1 UNK         0.1426 
     74 H74        18.9631  -30.9003  -46.5438 H         1 UNK         0.0716 
     75 H75        20.2747  -30.4054  -45.5013 H         1 UNK         0.0716 
     76 H76        20.2337  -27.4843  -48.0233 H         1 UNK         0.0695 
     77 H77        20.8161  -29.0909  -47.7445 H         1 UNK         0.0695 
     78 H78        22.3860  -27.1398  -47.1163 H         1 UNK         0.0983 
     79 H79        20.2388  -26.4584  -45.3162 H         1 UNK         0.3095 
     80 H80        21.9866  -24.3098  -43.2555 H         1 UNK         0.0454 
     81 H81        22.2424  -22.7708  -45.1893 H         1 UNK         0.0851 
     82 H82        20.8411  -22.3269  -44.2302 H         1 UNK         0.0851 
     83 H83        20.6298  -23.1772  -45.7606 H         1 UNK         0.0851 
     84 H84        19.2254  -24.6368  -44.3265 H         1 UNK         0.2976 
     85 H85        23.2748  -29.2854  -47.3114 H         1 UNK         0.3116 
     86 H86        24.5369  -30.9779  -46.6771 H         1 UNK         0.0646 
     87 H87        22.3774  -31.4579  -44.5446 H         1 UNK         0.0847 
     88 H88        22.3420  -32.0324  -46.2064 H         1 UNK         0.0847 
     89 H89        23.5677  -32.6308  -45.1091 H         1 UNK         0.0847 
     90 H90        24.0315  -31.2908  -43.3451 H         1 UNK         0.3040 
     91 H91        26.7276  -30.4196  -42.7119 H         1 UNK         0.1015 
     92 H92        26.1142  -31.2612  -40.4368 H         1 UNK         0.0786 
     93 H93        25.7161  -32.4455  -41.6719 H         1 UNK         0.0786 
     94 H94        24.4442  -31.4644  -40.9468 H         1 UNK         0.0786 
     95 H95        23.6402  -28.8962  -42.7127 H         1 UNK         0.3172 
     96 H96        22.7680  -27.0092  -42.1003 H         1 UNK         0.0595 
     97 H97        25.4669  -25.9992  -41.0659 H         1 UNK         0.0839 
     98 H98        24.0324  -25.0381  -41.3792 H         1 UNK         0.0839 
     99 H99        24.8697  -25.8096  -42.7169 H         1 UNK         0.0839 
    100 H100       21.4250  -26.6258  -40.4798 H         1 UNK         0.2998 
    101 H101       20.2682  -26.8981  -38.6340 H         1 UNK         0.0822 
    102 H102       21.2787  -26.5723  -36.4253 H         1 UNK         0.0787 
    103 H103       22.0346  -25.4710  -37.5639 H         1 UNK         0.0787 
    104 H104       22.8830  -26.9271  -37.0430 H         1 UNK         0.0787 
    105 H105       21.5173  -29.3321  -40.0696 H         1 UNK         0.3055 
    106 H106       20.1841  -31.3767  -38.6275 H         1 UNK         0.1106 
    107 H107       22.2664  -31.4066  -37.2260 H         1 UNK         0.0828 
    108 H108       22.2488  -32.8243  -38.2580 H         1 UNK         0.0828 
    109 H109       23.2693  -31.4544  -38.6737 H         1 UNK         0.0828 
    110 H110       20.2084  -33.3595  -39.9060 H         1 UNK         0.2931 
    111 H111       20.2303  -32.9027  -42.7242 H         1 UNK         0.0412 
    112 H112       21.3210  -34.4840  -44.3319 H         1 UNK         0.3472 
    113 H113       22.9937  -34.8499  -44.0073 H         1 UNK         0.3472 
    114 H114       19.4678  -35.2401  -42.9314 H         1 UNK         0.0970 
    115 H115       19.9711  -35.6004  -41.3069 H         1 UNK         0.0970 
    116 H116       15.9908  -33.8494  -42.6370 H         1 UNK         0.0612 
    117 H117       17.3051  -34.3993  -43.6455 H         1 UNK         0.0612 
@<TRIPOS>BOND
     1    1    2 1    
     2    1   62 1    
     3    1   63 1    
     4    1   64 1    
     5    2    3 2    
     6    2    4 am   BACKBONE|DICT|INTERRES
     7    4    5 1    
     8    4   65 1    
     9    5    6 1    
    10    5   25 1    
    11    5   66 1    
    12    6    7 1    
    13    6   67 1    
    14    6   68 1    
    15    7    8 1    
    16    8    9 1    
    17    8   69 1    
    18    8   70 1    
    19    9   10 ar   
    20    9   14 ar   
    21   10   11 ar   
    22   10   71 1    
    23   11   12 ar   
    24   11   61 1    
    25   12   13 ar   
    26   12   72 1    
    27   13   14 ar   
    28   13   15 1    
    29   14   73 1    
    30   15   16 1    
    31   15   74 1    
    32   15   75 1    
    33   16   17 1    
    34   17   18 1    
    35   17   76 1    
    36   17   77 1    
    37   18   19 1    
    38   18   27 1    
    39   18   78 1    
    40   19   20 am   BACKBONE|DICT|INTERRES
    41   19   79 1    
    42   20   21 2    
    43   20   22 1    
    44   22   23 1    
    45   22   24 1    
    46   22   80 1    
    47   23   81 1    
    48   23   82 1    
    49   23   83 1    
    50   24   25 am   BACKBONE|DICT|INTERRES
    51   24   84 1    
    52   25   26 2    
    53   27   28 2    
    54   27   29 am   BACKBONE|DICT|INTERRES
    55   29   30 1    
    56   29   85 1    
    57   30   31 1    
    58   30   32 1    
    59   30   86 1    
    60   31   87 1    
    61   31   88 1    
    62   31   89 1    
    63   32   33 2    
    64   32   34 am   BACKBONE|DICT|INTERRES
    65   34   35 1    
    66   34   90 1    
    67   35   36 1    
    68   35   37 1    
    69   35   91 1    
    70   36   92 1    
    71   36   93 1    
    72   36   94 1    
    73   37   38 2    
    74   37   39 am   BACKBONE|DICT|INTERRES
    75   39   40 1    
    76   39   95 1    
    77   40   41 1    
    78   40   42 1    
    79   40   96 1    
    80   41   97 1    
    81   41   98 1    
    82   41   99 1    
    83   42   43 2    
    84   42   44 am   BACKBONE|DICT|INTERRES
    85   44   45 1    
    86   44  100 1    
    87   45   46 1    
    88   45   47 1    
    89   45  101 1    
    90   46  102 1    
    91   46  103 1    
    92   46  104 1    
    93   47   48 2    
    94   47   49 am   BACKBONE|DICT|INTERRES
    95   49   50 1    
    96   49  105 1    
    97   50   51 1    
    98   50   52 1    
    99   50  106 1    
   100   51  107 1    
   101   51  108 1    
   102   51  109 1    
   103   52   53 2    
   104   52   54 am   BACKBONE|DICT|INTERRES
   105   54   55 1    
   106   54  110 1    
   107   55   56 1    
   108   55   59 1    
   109   55  111 1    
   110   56   57 am   BACKBONE|DICT|INTERRES
   111   56   58 2    
   112   57  112 1    
   113   57  113 1    
   114   59   60 1    
   115   59  114 1    
   116   59  115 1    
   117   60   61 1    
   118   61  116 1    
   119   61  117 1    
@<TRIPOS>SUBSTRUCTURE
     1 UNK         1 GROUP             0       ****    0 ROOT    
