@<TRIPOS>MOLECULE
3R8
117   119    1
SMALL
USER_CHARGES


@<TRIPOS>ATOM
      1 CA         14.8757  -22.8117  -46.5156 C.3       0 UNK        -0.2013 
      2 C          16.2573  -23.2987  -46.9253 C.2       0 UNK         0.4866 
      3 O          17.1162  -22.4874  -47.2707 O.2       0 UNK        -0.5176 
      4 N          16.4822  -24.6183  -46.8838 N.am      1 UNK        -0.4884 
      5 CA         17.7482  -25.2702  -47.2498 C.3       1 UNK         0.0853 
      6 C6         17.5146  -26.7138  -47.7677 C.3       10 UNK        -0.0849 
      7 S7         16.6755  -27.8216  -46.5793 S.3       10 UNK        -0.2776 
      8 C8         18.1081  -28.7222  -45.9005 C.3       10 UNK         0.0316 
      9 C9         17.7199  -29.7833  -44.8801 C.ar      10 UNK        -0.0863 
     10 C10        18.2601  -31.0686  -44.9778 C.ar      10 UNK        -0.1009 
     11 C11        17.9844  -32.0322  -44.0041 C.ar      10 UNK        -0.0712 
     12 C12        17.1447  -31.7098  -42.9346 C.ar      10 UNK        -0.0894 
     13 C13        16.5887  -30.4323  -42.8304 C.ar      10 UNK        -0.0745 
     14 C14        16.8768  -29.4746  -43.8073 C.ar      10 UNK        -0.0972 
     15 C15        15.6848  -30.0913  -41.6559 C.3       10 UNK         0.0209 
     16 S16        16.6378  -29.4303  -40.2520 S.3       10 UNK        -0.2568 
     17 C17        16.9240  -27.7066  -40.7764 C.3       10 UNK        -0.0983 
     18 CA         18.3410  -27.4819  -41.3603 C.3       3 UNK         0.0876 
     19 N          18.3772  -26.2818  -42.1959 N.am      3 UNK        -0.4424 
     20 C          19.3686  -25.9646  -43.0366 C.2       2 UNK         0.4918 
     21 O          20.3227  -26.7054  -43.2829 O.2       2 UNK        -0.4875 
     22 CA         19.2361  -24.5904  -43.7163 C.3       2 UNK         0.0481 
     23 CB         20.5930  -23.8865  -43.9257 C.3       2 UNK        -0.1831 
     24 N          18.4589  -24.6834  -44.9571 N.am      2 UNK        -0.4498 
     25 C          18.8207  -25.2179  -46.1350 C.2       1 UNK         0.5027 
     26 O          19.9416  -25.6679  -46.3748 O.2       1 UNK        -0.4969 
     27 C          19.4094  -27.3963  -40.2519 C.2       3 UNK         0.5005 
     28 O          19.5109  -26.3599  -39.5899 O.2       3 UNK        -0.5279 
     29 N          20.1690  -28.4874  -40.0749 N.am      4 UNK        -0.4463 
     30 CA         21.2558  -28.6635  -39.1015 C.3       4 UNK         0.0283 
     31 CB         20.6984  -28.6992  -37.6627 C.3       4 UNK        -0.1875 
     32 C          22.4085  -27.6516  -39.2734 C.2       4 UNK         0.4949 
     33 O          23.0175  -27.2368  -38.2859 O.2       4 UNK        -0.5039 
     34 N          22.6949  -27.2769  -40.5280 N.am      5 UNK        -0.4663 
     35 CA         23.8067  -26.3994  -40.9030 C.3       5 UNK         0.0242 
     36 CB         23.5878  -25.9002  -42.3388 C.3       5 UNK        -0.1982 
     37 C          25.1768  -27.0875  -40.7798 C.2       5 UNK         0.5017 
     38 O          26.1785  -26.4044  -40.5628 O.2       5 UNK        -0.5012 
     39 N          25.1933  -28.4166  -40.9172 N.am      6 UNK        -0.4439 
     40 CA         26.3543  -29.2846  -40.7658 C.3       6 UNK         0.0297 
     41 CB         26.9545  -29.5543  -42.1596 C.3       6 UNK        -0.2006 
     42 C          25.9132  -30.5834  -40.0762 C.2       6 UNK         0.4892 
     43 O          24.7328  -30.7450  -39.7535 O.2       6 UNK        -0.5089 
     44 N          26.8659  -31.5088  -39.8912 N.am      7 UNK        -0.4243 
     45 CA         26.6020  -32.8835  -39.4482 C.3       7 UNK         0.0196 
     46 CB         27.9322  -33.6063  -39.1834 C.3       7 UNK        -0.2007 
     47 C          25.7480  -33.6680  -40.4618 C.2       7 UNK         0.5020 
     48 O          24.9025  -34.4674  -40.0610 O.2       7 UNK        -0.5147 
     49 N          25.9338  -33.3724  -41.7557 N.am      8 UNK        -0.4734 
     50 CA         25.1029  -33.8419  -42.8660 C.3       8 UNK         0.0238 
     51 CB         25.9714  -33.9182  -44.1365 C.3       8 UNK        -0.1912 
     52 C          23.8584  -32.9462  -43.0454 C.2       8 UNK         0.5038 
     53 O          23.6334  -32.4286  -44.1406 O.2       8 UNK        -0.5046 
     54 N          23.0945  -32.7866  -41.9553 N.am      9 UNK        -0.4200 
     55 CA         21.8464  -32.0192  -41.8130 C.3       9 UNK         0.0839 
     56 C          21.8844  -30.5615  -42.3704 C.2       9 UNK         0.5513 
     57 N          20.7949  -30.0435  -42.9246 N.am      9 UNK        -0.7519 
     58 O          22.8732  -29.8509  -42.2064 O.2       9 UNK        -0.4960 
     59 C59        20.5797  -32.8659  -42.1419 C.3       10 UNK        -0.0876 
     60 S60        20.4110  -33.3768  -43.8885 S.3       10 UNK        -0.2414 
     61 C61        18.6037  -33.4179  -44.1045 C.3       10 UNK         0.0169 
     62 H62        14.4064  -22.2783  -47.3419 H         1 UNK         0.0903 
     63 H63        14.2211  -23.6346  -46.2286 H         1 UNK         0.0903 
     64 H64        14.9533  -22.1290  -45.6699 H         1 UNK         0.0903 
     65 H65        15.7449  -25.2471  -46.5937 H         1 UNK         0.3096 
     66 H66        18.1790  -24.7083  -48.0822 H         1 UNK         0.1121 
     67 H67        18.4537  -27.1634  -48.0963 H         1 UNK         0.0849 
     68 H68        16.8946  -26.6722  -48.6646 H         1 UNK         0.0849 
     69 H69        18.6612  -29.1726  -46.7262 H         1 UNK         0.0865 
     70 H70        18.7902  -28.0222  -45.4179 H         1 UNK         0.0865 
     71 H71        18.9218  -31.3176  -45.7967 H         1 UNK         0.1346 
     72 H72        16.9294  -32.4503  -42.1761 H         1 UNK         0.1412 
     73 H73        16.4606  -28.4802  -43.7236 H         1 UNK         0.1426 
     74 H74        15.1566  -30.9872  -41.3261 H         1 UNK         0.0716 
     75 H75        14.9119  -29.3826  -41.9569 H         1 UNK         0.0716 
     76 H76        16.7386  -27.0467  -39.9264 H         1 UNK         0.0695 
     77 H77        16.1653  -27.4431  -41.5144 H         1 UNK         0.0695 
     78 H78        18.5885  -28.3232  -42.0100 H         1 UNK         0.0983 
     79 H79        17.6477  -25.6049  -42.0289 H         1 UNK         0.3095 
     80 H80        18.6544  -23.9490  -43.0522 H         1 UNK         0.0454 
     81 H81        21.2966  -24.4995  -44.4896 H         1 UNK         0.0851 
     82 H82        21.0586  -23.6612  -42.9662 H         1 UNK         0.0851 
     83 H83        20.4729  -22.9414  -44.4549 H         1 UNK         0.0851 
     84 H84        17.5048  -24.3571  -44.8947 H         1 UNK         0.2976 
     85 H85        20.0096  -29.2723  -40.6919 H         1 UNK         0.3116 
     86 H86        21.6915  -29.6427  -39.3055 H         1 UNK         0.0646 
     87 H87        20.3014  -27.7303  -37.3586 H         1 UNK         0.0847 
     88 H88        21.4767  -28.9697  -36.9480 H         1 UNK         0.0847 
     89 H89        19.9004  -29.4350  -37.5638 H         1 UNK         0.0847 
     90 H90        22.1633  -27.6840  -41.2862 H         1 UNK         0.3040 
     91 H91        23.8083  -25.5373  -40.2323 H         1 UNK         0.1015 
     92 H92        23.5481  -26.7252  -43.0518 H         1 UNK         0.0786 
     93 H93        24.3926  -25.2332  -42.6508 H         1 UNK         0.0786 
     94 H94        22.6555  -25.3443  -42.4205 H         1 UNK         0.0786 
     95 H95        24.3153  -28.9060  -41.0760 H         1 UNK         0.3172 
     96 H96        27.1004  -28.8057  -40.1283 H         1 UNK         0.0595 
     97 H97        27.8662  -30.1490  -42.0989 H         1 UNK         0.0839 
     98 H98        27.2175  -28.6230  -42.6617 H         1 UNK         0.0839 
     99 H99        26.2520  -30.0889  -42.8012 H         1 UNK         0.0839 
    100 H100       27.8176  -31.2887  -40.1486 H         1 UNK         0.2998 
    101 H101       26.0428  -32.8349  -38.5111 H         1 UNK         0.0822 
    102 H102       27.7583  -34.6248  -38.8332 H         1 UNK         0.0787 
    103 H103       28.5452  -33.6716  -40.0834 H         1 UNK         0.0787 
    104 H104       28.5148  -33.0969  -38.4155 H         1 UNK         0.0787 
    105 H105       26.6312  -32.6794  -41.9836 H         1 UNK         0.3055 
    106 H106       24.7430  -34.8503  -42.6482 H         1 UNK         0.1106 
    107 H107       25.3977  -34.3070  -44.9790 H         1 UNK         0.0828 
    108 H108       26.3529  -32.9382  -44.4259 H         1 UNK         0.0828 
    109 H109       26.8241  -34.5825  -43.9951 H         1 UNK         0.0828 
    110 H110       23.4225  -33.2305  -41.1071 H         1 UNK         0.2931 
    111 H111       21.7936  -31.8501  -40.7368 H         1 UNK         0.0412 
    112 H112       20.0014  -30.6282  -43.1418 H         1 UNK         0.3472 
    113 H113       20.8346  -29.0979  -43.2771 H         1 UNK         0.3472 
    114 H114       19.6857  -32.3323  -41.8190 H         1 UNK         0.0970 
    115 H115       20.5921  -33.7758  -41.5401 H         1 UNK         0.0970 
    116 H116       18.3762  -33.8398  -45.0843 H         1 UNK         0.0612 
    117 H117       18.1708  -34.0973  -43.3684 H         1 UNK         0.0612 
@<TRIPOS>BOND
     1    1    2 1    
     2    1   62 1    
     3    1   63 1    
     4    1   64 1    
     5    2    3 2    
     6    2    4 am   BACKBONE|DICT|INTERRES
     7    4    5 1    
     8    4   65 1    
     9    5    6 1    
    10    5   25 1    
    11    5   66 1    
    12    6    7 1    
    13    6   67 1    
    14    6   68 1    
    15    7    8 1    
    16    8    9 1    
    17    8   69 1    
    18    8   70 1    
    19    9   10 ar   
    20    9   14 ar   
    21   10   11 ar   
    22   10   71 1    
    23   11   12 ar   
    24   11   61 1    
    25   12   13 ar   
    26   12   72 1    
    27   13   14 ar   
    28   13   15 1    
    29   14   73 1    
    30   15   16 1    
    31   15   74 1    
    32   15   75 1    
    33   16   17 1    
    34   17   18 1    
    35   17   76 1    
    36   17   77 1    
    37   18   19 1    
    38   18   27 1    
    39   18   78 1    
    40   19   20 am   BACKBONE|DICT|INTERRES
    41   19   79 1    
    42   20   21 2    
    43   20   22 1    
    44   22   23 1    
    45   22   24 1    
    46   22   80 1    
    47   23   81 1    
    48   23   82 1    
    49   23   83 1    
    50   24   25 am   BACKBONE|DICT|INTERRES
    51   24   84 1    
    52   25   26 2    
    53   27   28 2    
    54   27   29 am   BACKBONE|DICT|INTERRES
    55   29   30 1    
    56   29   85 1    
    57   30   31 1    
    58   30   32 1    
    59   30   86 1    
    60   31   87 1    
    61   31   88 1    
    62   31   89 1    
    63   32   33 2    
    64   32   34 am   BACKBONE|DICT|INTERRES
    65   34   35 1    
    66   34   90 1    
    67   35   36 1    
    68   35   37 1    
    69   35   91 1    
    70   36   92 1    
    71   36   93 1    
    72   36   94 1    
    73   37   38 2    
    74   37   39 am   BACKBONE|DICT|INTERRES
    75   39   40 1    
    76   39   95 1    
    77   40   41 1    
    78   40   42 1    
    79   40   96 1    
    80   41   97 1    
    81   41   98 1    
    82   41   99 1    
    83   42   43 2    
    84   42   44 am   BACKBONE|DICT|INTERRES
    85   44   45 1    
    86   44  100 1    
    87   45   46 1    
    88   45   47 1    
    89   45  101 1    
    90   46  102 1    
    91   46  103 1    
    92   46  104 1    
    93   47   48 2    
    94   47   49 am   BACKBONE|DICT|INTERRES
    95   49   50 1    
    96   49  105 1    
    97   50   51 1    
    98   50   52 1    
    99   50  106 1    
   100   51  107 1    
   101   51  108 1    
   102   51  109 1    
   103   52   53 2    
   104   52   54 am   BACKBONE|DICT|INTERRES
   105   54   55 1    
   106   54  110 1    
   107   55   56 1    
   108   55   59 1    
   109   55  111 1    
   110   56   57 am   BACKBONE|DICT|INTERRES
   111   56   58 2    
   112   57  112 1    
   113   57  113 1    
   114   59   60 1    
   115   59  114 1    
   116   59  115 1    
   117   60   61 1    
   118   61  116 1    
   119   61  117 1    
@<TRIPOS>SUBSTRUCTURE
     1 UNK         1 GROUP             0       ****    0 ROOT    
