@<TRIPOS>MOLECULE
3R8
117   119    1
SMALL
USER_CHARGES


@<TRIPOS>ATOM
      1 CA         16.0175  -21.8513  -42.8138 C.3       0 UNK        -0.2013 
      2 C          16.4696  -22.5311  -44.0975 C.2       0 UNK         0.4866 
      3 O          16.5743  -21.8755  -45.1349 O.2       0 UNK        -0.5176 
      4 N          16.7289  -23.8425  -44.0380 N.am      1 UNK        -0.4884 
      5 CA         17.2558  -24.6510  -45.1415 C.3       1 UNK         0.0853 
      6 C6         17.0392  -26.1708  -44.9054 C.3       10 UNK        -0.0849 
      7 S7         17.4699  -26.7540  -43.2263 S.3       10 UNK        -0.2776 
      8 C8         16.8380  -28.4650  -43.2675 C.3       10 UNK         0.0316 
      9 C9         17.9834  -29.4644  -43.3046 C.ar      10 UNK        -0.0863 
     10 C10        18.2989  -30.2234  -42.1722 C.ar      10 UNK        -0.1009 
     11 C11        19.3963  -31.0900  -42.1802 C.ar      10 UNK        -0.0712 
     12 C12        20.1827  -31.1807  -43.3333 C.ar      10 UNK        -0.0894 
     13 C13        19.8614  -30.4536  -44.4832 C.ar      10 UNK        -0.0745 
     14 C14        18.7461  -29.6106  -44.4660 C.ar      10 UNK        -0.0972 
     15 C15        20.7305  -30.5804  -45.7325 C.3       10 UNK         0.0209 
     16 S16        21.1997  -28.9761  -46.4693 S.3       10 UNK        -0.2568 
     17 C17        21.9036  -28.1172  -45.0226 C.3       10 UNK        -0.0983 
     18 CA         22.4119  -26.6832  -45.3162 C.3       3 UNK         0.0876 
     19 N          21.4166  -25.8968  -46.0509 N.am      3 UNK        -0.4424 
     20 C          21.6420  -24.7284  -46.6622 C.2       2 UNK         0.4918 
     21 O          22.7507  -24.1989  -46.7378 O.2       2 UNK        -0.4875 
     22 CA         20.4214  -24.0122  -47.2713 C.3       2 UNK         0.0481 
     23 CB         20.4028  -24.2035  -48.7964 C.3       2 UNK        -0.1831 
     24 N          19.1150  -24.4074  -46.7221 N.am      2 UNK        -0.4498 
     25 C          18.7311  -24.3056  -45.4394 C.2       1 UNK         0.5027 
     26 O          19.4897  -23.9796  -44.5213 O.2       1 UNK        -0.4969 
     27 C          22.8339  -26.0234  -43.9821 C.2       3 UNK         0.5005 
     28 O          23.8169  -26.4658  -43.3876 O.2       3 UNK        -0.5279 
     29 N          22.0572  -25.0345  -43.5039 N.am      4 UNK        -0.4463 
     30 CA         22.1020  -24.4390  -42.1619 C.3       4 UNK         0.0283 
     31 CB         23.4589  -23.7620  -41.8714 C.3       4 UNK        -0.1875 
     32 C          21.6712  -25.4423  -41.0727 C.2       4 UNK         0.4949 
     33 O          22.1672  -25.3833  -39.9471 O.2       4 UNK        -0.5039 
     34 N          20.7389  -26.3345  -41.4429 N.am      5 UNK        -0.4663 
     35 CA         20.1070  -27.3733  -40.6238 C.3       5 UNK         0.0242 
     36 CB         19.1693  -26.7350  -39.5773 C.3       5 UNK        -0.1982 
     37 C          21.0923  -28.3898  -40.0128 C.2       5 UNK         0.5017 
     38 O          20.8837  -28.8290  -38.8801 O.2       5 UNK        -0.5012 
     39 N          22.1384  -28.7570  -40.7648 N.am      6 UNK        -0.4439 
     40 CA         23.1484  -29.7266  -40.3504 C.3       6 UNK         0.0297 
     41 CB         24.3204  -28.9947  -39.6743 C.3       6 UNK        -0.2006 
     42 C          23.6333  -30.5332  -41.5597 C.2       6 UNK         0.4892 
     43 O          23.8581  -29.9562  -42.6239 O.2       6 UNK        -0.5089 
     44 N          23.8262  -31.8383  -41.3520 N.am      7 UNK        -0.4243 
     45 CA         24.4432  -32.7941  -42.2707 C.3       7 UNK         0.0196 
     46 CB         23.5307  -33.0863  -43.4839 C.3       7 UNK        -0.2007 
     47 C          24.7885  -34.0297  -41.4279 C.2       7 UNK         0.5020 
     48 O          25.5243  -33.8958  -40.4489 O.2       7 UNK        -0.5147 
     49 N          24.2174  -35.1944  -41.7677 N.am      8 UNK        -0.4734 
     50 CA         24.1549  -36.3590  -40.8757 C.3       8 UNK         0.0238 
     51 CB         23.7341  -37.6037  -41.6739 C.3       8 UNK        -0.1912 
     52 C          23.1911  -36.1069  -39.7002 C.2       8 UNK         0.5038 
     53 O          23.4814  -36.5095  -38.5732 O.2       8 UNK        -0.5046 
     54 N          22.0851  -35.4095  -39.9909 N.am      9 UNK        -0.4200 
     55 CA         21.1887  -34.7770  -39.0173 C.3       9 UNK         0.0839 
     56 C          21.8332  -33.5339  -38.3446 C.2       9 UNK         0.5513 
     57 N          21.3649  -33.1597  -37.1624 N.am      9 UNK        -0.7519 
     58 O          22.7244  -32.8896  -38.8936 O.2       9 UNK        -0.4960 
     59 C59        19.8035  -34.4461  -39.6420 C.3       10 UNK        -0.0876 
     60 S60        19.8533  -33.6890  -41.3083 S.3       10 UNK        -0.2414 
     61 C61        19.7406  -31.9081  -40.9390 C.3       10 UNK         0.0169 
     62 H62        16.7162  -21.0602  -42.5428 H         1 UNK         0.0903 
     63 H63        15.0331  -21.4048  -42.9516 H         1 UNK         0.0903 
     64 H64        15.9587  -22.5515  -41.9806 H         1 UNK         0.0903 
     65 H65        16.6606  -24.3306  -43.1555 H         1 UNK         0.3096 
     66 H66        16.6839  -24.3784  -46.0320 H         1 UNK         0.1121 
     67 H67        17.5788  -26.7670  -45.6435 H         1 UNK         0.0849 
     68 H68        15.9836  -26.3952  -45.0667 H         1 UNK         0.0849 
     69 H69        16.2165  -28.6278  -42.3857 H         1 UNK         0.0865 
     70 H70        16.1863  -28.6196  -44.1285 H         1 UNK         0.0865 
     71 H71        17.7014  -30.1234  -41.2762 H         1 UNK         0.1346 
     72 H72        21.0421  -31.8322  -43.3344 H         1 UNK         0.1412 
     73 H73        18.4960  -29.0357  -45.3466 H         1 UNK         0.1426 
     74 H74        21.6450  -31.1314  -45.5090 H         1 UNK         0.0716 
     75 H75        20.1917  -31.1663  -46.4780 H         1 UNK         0.0716 
     76 H76        22.7176  -28.7321  -44.6360 H         1 UNK         0.0695 
     77 H77        21.1425  -28.0893  -44.2408 H         1 UNK         0.0695 
     78 H78        23.3064  -26.7556  -45.9387 H         1 UNK         0.0983 
     79 H79        20.4826  -26.2771  -46.0737 H         1 UNK         0.3095 
     80 H80        20.5449  -22.9470  -47.0657 H         1 UNK         0.0454 
     81 H81        19.6162  -23.6107  -49.2635 H         1 UNK         0.0851 
     82 H82        21.3474  -23.8886  -49.2423 H         1 UNK         0.0851 
     83 H83        20.2467  -25.2477  -49.0704 H         1 UNK         0.0851 
     84 H84        18.4296  -24.7041  -47.4026 H         1 UNK         0.2976 
     85 H85        21.2665  -24.7339  -44.0684 H         1 UNK         0.3116 
     86 H86        21.3430  -23.6551  -42.1620 H         1 UNK         0.0646 
     87 H87        23.7440  -23.0821  -42.6740 H         1 UNK         0.0847 
     88 H88        23.4106  -23.1764  -40.9527 H         1 UNK         0.0847 
     89 H89        24.2606  -24.4898  -41.7448 H         1 UNK         0.0847 
     90 H90        20.3942  -26.2699  -42.3905 H         1 UNK         0.3040 
     91 H91        19.4835  -27.9476  -41.3063 H         1 UNK         0.1015 
     92 H92        19.7255  -26.1711  -38.8279 H         1 UNK         0.0786 
     93 H93        18.5914  -27.4963  -39.0519 H         1 UNK         0.0786 
     94 H94        18.4553  -26.0585  -40.0473 H         1 UNK         0.0786 
     95 H95        22.2558  -28.3780  -41.6956 H         1 UNK         0.3172 
     96 H96        22.7109  -30.4192  -39.6303 H         1 UNK         0.0595 
     97 H97        24.7864  -28.2757  -40.3496 H         1 UNK         0.0839 
     98 H98        25.0916  -29.6989  -39.3594 H         1 UNK         0.0839 
     99 H99        23.9910  -28.4546  -38.7864 H         1 UNK         0.0839 
    100 H100       23.6126  -32.2173  -40.4293 H         1 UNK         0.2998 
    101 H101       25.3839  -32.3722  -42.6300 H         1 UNK         0.0822 
    102 H102       24.0015  -33.7929  -44.1687 H         1 UNK         0.0787 
    103 H103       23.3387  -32.1814  -44.0594 H         1 UNK         0.0787 
    104 H104       22.5689  -33.5017  -43.1823 H         1 UNK         0.0787 
    105 H105       23.6598  -35.2287  -42.6091 H         1 UNK         0.3055 
    106 H106       25.1497  -36.5354  -40.4594 H         1 UNK         0.1106 
    107 H107       23.6978  -38.4836  -41.0300 H         1 UNK         0.0828 
    108 H108       22.7463  -37.4871  -42.1213 H         1 UNK         0.0828 
    109 H109       24.4423  -37.8193  -42.4741 H         1 UNK         0.0828 
    110 H110       21.9446  -35.1133  -40.9446 H         1 UNK         0.2931 
    111 H111       21.0186  -35.5064  -38.2225 H         1 UNK         0.0412 
    112 H112       20.6333  -33.6768  -36.6997 H         1 UNK         0.3472 
    113 H113       21.7610  -32.3467  -36.7171 H         1 UNK         0.3472 
    114 H114       19.2001  -33.8316  -38.9712 H         1 UNK         0.0970 
    115 H115       19.2436  -35.3768  -39.7443 H         1 UNK         0.0970 
    116 H116       20.6922  -31.5651  -40.5333 H         1 UNK         0.0612 
    117 H117       18.9929  -31.7498  -40.1606 H         1 UNK         0.0612 
@<TRIPOS>BOND
     1    1    2 1    
     2    1   62 1    
     3    1   63 1    
     4    1   64 1    
     5    2    3 2    
     6    2    4 am   BACKBONE|DICT|INTERRES
     7    4    5 1    
     8    4   65 1    
     9    5    6 1    
    10    5   25 1    
    11    5   66 1    
    12    6    7 1    
    13    6   67 1    
    14    6   68 1    
    15    7    8 1    
    16    8    9 1    
    17    8   69 1    
    18    8   70 1    
    19    9   10 ar   
    20    9   14 ar   
    21   10   11 ar   
    22   10   71 1    
    23   11   12 ar   
    24   11   61 1    
    25   12   13 ar   
    26   12   72 1    
    27   13   14 ar   
    28   13   15 1    
    29   14   73 1    
    30   15   16 1    
    31   15   74 1    
    32   15   75 1    
    33   16   17 1    
    34   17   18 1    
    35   17   76 1    
    36   17   77 1    
    37   18   19 1    
    38   18   27 1    
    39   18   78 1    
    40   19   20 am   BACKBONE|DICT|INTERRES
    41   19   79 1    
    42   20   21 2    
    43   20   22 1    
    44   22   23 1    
    45   22   24 1    
    46   22   80 1    
    47   23   81 1    
    48   23   82 1    
    49   23   83 1    
    50   24   25 am   BACKBONE|DICT|INTERRES
    51   24   84 1    
    52   25   26 2    
    53   27   28 2    
    54   27   29 am   BACKBONE|DICT|INTERRES
    55   29   30 1    
    56   29   85 1    
    57   30   31 1    
    58   30   32 1    
    59   30   86 1    
    60   31   87 1    
    61   31   88 1    
    62   31   89 1    
    63   32   33 2    
    64   32   34 am   BACKBONE|DICT|INTERRES
    65   34   35 1    
    66   34   90 1    
    67   35   36 1    
    68   35   37 1    
    69   35   91 1    
    70   36   92 1    
    71   36   93 1    
    72   36   94 1    
    73   37   38 2    
    74   37   39 am   BACKBONE|DICT|INTERRES
    75   39   40 1    
    76   39   95 1    
    77   40   41 1    
    78   40   42 1    
    79   40   96 1    
    80   41   97 1    
    81   41   98 1    
    82   41   99 1    
    83   42   43 2    
    84   42   44 am   BACKBONE|DICT|INTERRES
    85   44   45 1    
    86   44  100 1    
    87   45   46 1    
    88   45   47 1    
    89   45  101 1    
    90   46  102 1    
    91   46  103 1    
    92   46  104 1    
    93   47   48 2    
    94   47   49 am   BACKBONE|DICT|INTERRES
    95   49   50 1    
    96   49  105 1    
    97   50   51 1    
    98   50   52 1    
    99   50  106 1    
   100   51  107 1    
   101   51  108 1    
   102   51  109 1    
   103   52   53 2    
   104   52   54 am   BACKBONE|DICT|INTERRES
   105   54   55 1    
   106   54  110 1    
   107   55   56 1    
   108   55   59 1    
   109   55  111 1    
   110   56   57 am   BACKBONE|DICT|INTERRES
   111   56   58 2    
   112   57  112 1    
   113   57  113 1    
   114   59   60 1    
   115   59  114 1    
   116   59  115 1    
   117   60   61 1    
   118   61  116 1    
   119   61  117 1    
@<TRIPOS>SUBSTRUCTURE
     1 UNK         1 GROUP             0       ****    0 ROOT    
