@<TRIPOS>MOLECULE
3R8
117   119    1
SMALL
USER_CHARGES


@<TRIPOS>ATOM
      1 CA         15.5098  -25.9712  -41.3996 C.3       0 UNK        -0.2013 
      2 C          15.7449  -27.2773  -42.1533 C.2       0 UNK         0.4866 
      3 O          16.0345  -28.2907  -41.5231 O.2       0 UNK        -0.5176 
      4 N          15.6235  -27.3150  -43.4882 N.am      1 UNK        -0.4884 
      5 CA         15.2986  -26.1936  -44.3782 C.3       1 UNK         0.0853 
      6 C6         14.6613  -26.6988  -45.7024 C.3       10 UNK        -0.0849 
      7 S7         15.8054  -27.3867  -46.9596 S.3       10 UNK        -0.2776 
      8 C8         15.8362  -29.1705  -46.5910 C.3       10 UNK         0.0316 
      9 C9         17.1192  -29.5845  -45.8798 C.ar      10 UNK        -0.0863 
     10 C10        17.0805  -30.0771  -44.5709 C.ar      10 UNK        -0.1009 
     11 C11        18.2532  -30.5011  -43.9393 C.ar      10 UNK        -0.0712 
     12 C12        19.4666  -30.4473  -44.6286 C.ar      10 UNK        -0.0894 
     13 C13        19.5235  -29.9562  -45.9354 C.ar      10 UNK        -0.0745 
     14 C14        18.3457  -29.5232  -46.5540 C.ar      10 UNK        -0.0972 
     15 C15        20.8473  -29.9446  -46.6923 C.3       10 UNK         0.0209 
     16 S16        21.6947  -28.3319  -46.6290 S.3       10 UNK        -0.2568 
     17 C17        22.3003  -28.2876  -44.9047 C.3       10 UNK        -0.0983 
     18 CA         22.4913  -26.8476  -44.3446 C.3       3 UNK         0.0876 
     19 N          21.3417  -25.9626  -44.5885 N.am      3 UNK        -0.4424 
     20 C          20.0854  -26.1629  -44.1679 C.2       2 UNK         0.4918 
     21 O          19.7571  -27.0504  -43.3762 O.2       2 UNK        -0.4875 
     22 CA         19.0149  -25.2186  -44.7404 C.3       2 UNK         0.0481 
     23 CB         19.1966  -24.9778  -46.2570 C.3       2 UNK        -0.1831 
     24 N          17.7160  -25.8252  -44.4829 N.am      2 UNK        -0.4498 
     25 C          16.5095  -25.2658  -44.6189 C.2       1 UNK         0.5027 
     26 O          16.3242  -24.0849  -44.9157 O.2       1 UNK        -0.4969 
     27 C          22.9402  -26.8667  -42.8647 C.2       3 UNK         0.5005 
     28 O          23.5838  -27.8269  -42.4363 O.2       3 UNK        -0.5279 
     29 N          22.6183  -25.8082  -42.1045 N.am      4 UNK        -0.4463 
     30 CA         22.8498  -25.6910  -40.6581 C.3       4 UNK         0.0283 
     31 CB         22.2208  -24.3841  -40.1495 C.3       4 UNK        -0.1875 
     32 C          24.3255  -25.7794  -40.2269 C.2       4 UNK         0.4949 
     33 O          24.5975  -26.1873  -39.0982 O.2       4 UNK        -0.5039 
     34 N          25.2477  -25.4205  -41.1309 N.am      5 UNK        -0.4663 
     35 CA         26.6938  -25.5644  -40.9421 C.3       5 UNK         0.0242 
     36 CB         27.4272  -24.7400  -42.0124 C.3       5 UNK        -0.1982 
     37 C          27.1663  -27.0304  -40.9739 C.2       5 UNK         0.5017 
     38 O          28.1758  -27.3453  -40.3428 O.2       5 UNK        -0.5012 
     39 N          26.4397  -27.8905  -41.7014 N.am      6 UNK        -0.4439 
     40 CA         26.6847  -29.3311  -41.7786 C.3       6 UNK         0.0297 
     41 CB         26.3792  -29.8301  -43.2014 C.3       6 UNK        -0.2006 
     42 C          25.8370  -30.0942  -40.7502 C.2       6 UNK         0.4892 
     43 O          26.3404  -31.0435  -40.1490 O.2       6 UNK        -0.5089 
     44 N          24.5743  -29.6669  -40.5794 N.am      7 UNK        -0.4243 
     45 CA         23.5377  -30.2558  -39.7223 C.3       7 UNK         0.0196 
     46 CB         23.8958  -30.0891  -38.2307 C.3       7 UNK        -0.2007 
     47 C          23.2218  -31.7122  -40.1148 C.2       7 UNK         0.5020 
     48 O          23.1169  -32.5839  -39.2504 O.2       7 UNK        -0.5147 
     49 N          23.0893  -31.9460  -41.4293 N.am      8 UNK        -0.4734 
     50 CA         22.9600  -33.2662  -42.0607 C.3       8 UNK         0.0238 
     51 CB         22.9398  -33.0898  -43.5884 C.3       8 UNK        -0.1912 
     52 C          21.7528  -34.1045  -41.6005 C.2       8 UNK         0.5038 
     53 O          21.8205  -35.3329  -41.6656 O.2       8 UNK        -0.5046 
     54 N          20.6874  -33.4373  -41.1411 N.am      9 UNK        -0.4200 
     55 CA         19.4936  -34.0696  -40.5572 C.3       9 UNK         0.0839 
     56 C          19.6724  -34.5171  -39.0761 C.2       9 UNK         0.5513 
     57 N          20.7752  -34.2066  -38.4036 N.am      9 UNK        -0.7519 
     58 O          18.7900  -35.1708  -38.5259 O.2       9 UNK        -0.4960 
     59 C59        18.2260  -33.1916  -40.7307 C.3       10 UNK        -0.0876 
     60 S60        17.8783  -32.8105  -42.4817 S.3       10 UNK        -0.2414 
     61 C61        18.2175  -31.0261  -42.5142 C.3       10 UNK         0.0169 
     62 H62        16.2016  -25.1959  -41.7263 H         1 UNK         0.0903 
     63 H63        14.4883  -25.6186  -41.5384 H         1 UNK         0.0903 
     64 H64        15.6638  -26.1174  -40.3305 H         1 UNK         0.0903 
     65 H65        15.8157  -28.1860  -43.9606 H         1 UNK         0.3096 
     66 H66        14.5389  -25.5835  -43.8857 H         1 UNK         0.1121 
     67 H67        13.8721  -27.4219  -45.4907 H         1 UNK         0.0849 
     68 H68        14.1489  -25.8622  -46.1811 H         1 UNK         0.0849 
     69 H69        14.9544  -29.4573  -46.0164 H         1 UNK         0.0865 
     70 H70        15.7687  -29.7184  -47.5320 H         1 UNK         0.0865 
     71 H71        16.1398  -30.1535  -44.0427 H         1 UNK         0.1346 
     72 H72        20.3678  -30.7955  -44.1450 H         1 UNK         0.1412 
     73 H73        18.3803  -29.1516  -47.5693 H         1 UNK         0.1426 
     74 H74        21.5150  -30.7169  -46.3068 H         1 UNK         0.0716 
     75 H75        20.6664  -30.1996  -47.7375 H         1 UNK         0.0716 
     76 H76        21.6098  -28.8374  -44.2673 H         1 UNK         0.0695 
     77 H77        23.2423  -28.8379  -44.8724 H         1 UNK         0.0695 
     78 H78        23.3249  -26.4020  -44.8895 H         1 UNK         0.0983 
     79 H79        21.5128  -25.2025  -45.2310 H         1 UNK         0.3095 
     80 H80        19.0744  -24.2699  -44.2043 H         1 UNK         0.0454 
     81 H81        18.3906  -24.3721  -46.6703 H         1 UNK         0.0851 
     82 H82        20.1232  -24.4466  -46.4745 H         1 UNK         0.0851 
     83 H83        19.2171  -25.9188  -46.8093 H         1 UNK         0.0851 
     84 H84        17.7741  -26.7879  -44.1705 H         1 UNK         0.2976 
     85 H85        22.0980  -25.0609  -42.5405 H         1 UNK         0.3116 
     86 H86        22.3300  -26.5251  -40.1819 H         1 UNK         0.0646 
     87 H87        22.3512  -24.2817  -39.0710 H         1 UNK         0.0847 
     88 H88        21.1490  -24.3547  -40.3465 H         1 UNK         0.0847 
     89 H89        22.6744  -23.5087  -40.6160 H         1 UNK         0.0847 
     90 H90        24.9315  -25.0743  -42.0251 H         1 UNK         0.3040 
     91 H91        26.9522  -25.1600  -39.9605 H         1 UNK         0.1015 
     92 H92        27.1594  -23.6848  -41.9537 H         1 UNK         0.0786 
     93 H93        27.1998  -25.0902  -43.0201 H         1 UNK         0.0786 
     94 H94        28.5084  -24.8053  -41.8814 H         1 UNK         0.0786 
     95 H95        25.5863  -27.5559  -42.1340 H         1 UNK         0.3172 
     96 H96        27.7365  -29.5397  -41.5707 H         1 UNK         0.0595 
     97 H97        25.3401  -29.6566  -43.4827 H         1 UNK         0.0839 
     98 H98        26.5639  -30.9019  -43.2857 H         1 UNK         0.0839 
     99 H99        27.0116  -29.3344  -43.9381 H         1 UNK         0.0839 
    100 H100       24.2532  -28.9080  -41.1792 H         1 UNK         0.2998 
    101 H101       22.6270  -29.6840  -39.9075 H         1 UNK         0.0822 
    102 H102       24.0970  -29.0454  -37.9879 H         1 UNK         0.0787 
    103 H103       23.0747  -30.4187  -37.5930 H         1 UNK         0.0787 
    104 H104       24.7747  -30.6732  -37.9563 H         1 UNK         0.0787 
    105 H105       23.1919  -31.1596  -42.0546 H         1 UNK         0.3055 
    106 H106       23.8538  -33.8351  -41.7949 H         1 UNK         0.1106 
    107 H107       22.8882  -34.0563  -44.0921 H         1 UNK         0.0828 
    108 H108       22.0788  -32.5074  -43.9169 H         1 UNK         0.0828 
    109 H109       23.8412  -32.5907  -43.9448 H         1 UNK         0.0828 
    110 H110       20.7287  -32.4309  -41.1086 H         1 UNK         0.2931 
    111 H111       19.3100  -34.9913  -41.1133 H         1 UNK         0.0412 
    112 H112       20.8672  -34.5127  -37.4480 H         1 UNK         0.3472 
    113 H113       21.5259  -33.6738  -38.8318 H         1 UNK         0.3472 
    114 H114       18.3149  -32.2689  -40.1543 H         1 UNK         0.0970 
    115 H115       17.3500  -33.7078  -40.3332 H         1 UNK         0.0970 
    116 H116       17.4527  -30.5052  -41.9377 H         1 UNK         0.0612 
    117 H117       19.1692  -30.8229  -42.0209 H         1 UNK         0.0612 
@<TRIPOS>BOND
     1    1    2 1    
     2    1   62 1    
     3    1   63 1    
     4    1   64 1    
     5    2    3 2    
     6    2    4 am   BACKBONE|DICT|INTERRES
     7    4    5 1    
     8    4   65 1    
     9    5    6 1    
    10    5   25 1    
    11    5   66 1    
    12    6    7 1    
    13    6   67 1    
    14    6   68 1    
    15    7    8 1    
    16    8    9 1    
    17    8   69 1    
    18    8   70 1    
    19    9   10 ar   
    20    9   14 ar   
    21   10   11 ar   
    22   10   71 1    
    23   11   12 ar   
    24   11   61 1    
    25   12   13 ar   
    26   12   72 1    
    27   13   14 ar   
    28   13   15 1    
    29   14   73 1    
    30   15   16 1    
    31   15   74 1    
    32   15   75 1    
    33   16   17 1    
    34   17   18 1    
    35   17   76 1    
    36   17   77 1    
    37   18   19 1    
    38   18   27 1    
    39   18   78 1    
    40   19   20 am   BACKBONE|DICT|INTERRES
    41   19   79 1    
    42   20   21 2    
    43   20   22 1    
    44   22   23 1    
    45   22   24 1    
    46   22   80 1    
    47   23   81 1    
    48   23   82 1    
    49   23   83 1    
    50   24   25 am   BACKBONE|DICT|INTERRES
    51   24   84 1    
    52   25   26 2    
    53   27   28 2    
    54   27   29 am   BACKBONE|DICT|INTERRES
    55   29   30 1    
    56   29   85 1    
    57   30   31 1    
    58   30   32 1    
    59   30   86 1    
    60   31   87 1    
    61   31   88 1    
    62   31   89 1    
    63   32   33 2    
    64   32   34 am   BACKBONE|DICT|INTERRES
    65   34   35 1    
    66   34   90 1    
    67   35   36 1    
    68   35   37 1    
    69   35   91 1    
    70   36   92 1    
    71   36   93 1    
    72   36   94 1    
    73   37   38 2    
    74   37   39 am   BACKBONE|DICT|INTERRES
    75   39   40 1    
    76   39   95 1    
    77   40   41 1    
    78   40   42 1    
    79   40   96 1    
    80   41   97 1    
    81   41   98 1    
    82   41   99 1    
    83   42   43 2    
    84   42   44 am   BACKBONE|DICT|INTERRES
    85   44   45 1    
    86   44  100 1    
    87   45   46 1    
    88   45   47 1    
    89   45  101 1    
    90   46  102 1    
    91   46  103 1    
    92   46  104 1    
    93   47   48 2    
    94   47   49 am   BACKBONE|DICT|INTERRES
    95   49   50 1    
    96   49  105 1    
    97   50   51 1    
    98   50   52 1    
    99   50  106 1    
   100   51  107 1    
   101   51  108 1    
   102   51  109 1    
   103   52   53 2    
   104   52   54 am   BACKBONE|DICT|INTERRES
   105   54   55 1    
   106   54  110 1    
   107   55   56 1    
   108   55   59 1    
   109   55  111 1    
   110   56   57 am   BACKBONE|DICT|INTERRES
   111   56   58 2    
   112   57  112 1    
   113   57  113 1    
   114   59   60 1    
   115   59  114 1    
   116   59  115 1    
   117   60   61 1    
   118   61  116 1    
   119   61  117 1    
@<TRIPOS>SUBSTRUCTURE
     1 UNK         1 GROUP             0       ****    0 ROOT    
