@<TRIPOS>MOLECULE
3R8
117   119    1
SMALL
USER_CHARGES


@<TRIPOS>ATOM
      1 CA         18.7155  -26.6740  -41.2030 C.3       0 UNK        -0.2013 
      2 C          18.4551  -26.5874  -42.6974 C.2       0 UNK         0.4866 
      3 O          19.3701  -26.8125  -43.4857 O.2       0 UNK        -0.5176 
      4 N          17.2187  -26.2387  -43.0786 N.am      1 UNK        -0.4884 
      5 CA         16.7141  -26.0343  -44.4452 C.3       1 UNK         0.0853 
      6 C6         16.0020  -27.2928  -45.0353 C.3       10 UNK        -0.0849 
      7 S7         17.0324  -28.6808  -45.6415 S.3       10 UNK        -0.2776 
      8 C8         16.9598  -29.9254  -44.3059 C.3       10 UNK         0.0316 
      9 C9         18.3096  -30.1097  -43.6214 C.ar      10 UNK        -0.0863 
     10 C10        18.4026  -30.1023  -42.2258 C.ar      10 UNK        -0.1009 
     11 C11        19.6448  -30.2299  -41.5952 C.ar      10 UNK        -0.0712 
     12 C12        20.7995  -30.3571  -42.3744 C.ar      10 UNK        -0.0894 
     13 C13        20.7184  -30.3981  -43.7679 C.ar      10 UNK        -0.0745 
     14 C14        19.4695  -30.2922  -44.3828 C.ar      10 UNK        -0.0972 
     15 C15        21.9799  -30.5558  -44.6066 C.3       10 UNK         0.0209 
     16 S16        22.2502  -29.1604  -45.7501 S.3       10 UNK        -0.2568 
     17 C17        22.4547  -27.7651  -44.5932 C.3       10 UNK        -0.0983 
     18 CA         22.2203  -26.3914  -45.2709 C.3       3 UNK         0.0876 
     19 N          20.8921  -26.2800  -45.8896 N.am      3 UNK        -0.4424 
     20 C          20.5907  -25.4300  -46.8817 C.2       2 UNK         0.4918 
     21 O          21.4153  -24.6778  -47.4026 O.2       2 UNK        -0.4875 
     22 CA         19.1410  -25.4078  -47.4048 C.3       2 UNK         0.0481 
     23 CB         19.0367  -26.2146  -48.7088 C.3       2 UNK        -0.1831 
     24 N          18.1568  -25.9222  -46.4522 N.am      2 UNK        -0.4498 
     25 C          17.7042  -25.2783  -45.3705 C.2       1 UNK         0.5027 
     26 O          18.0444  -24.1311  -45.0727 O.2       1 UNK        -0.4969 
     27 C          22.4623  -25.2542  -44.2586 C.2       3 UNK         0.5005 
     28 O          23.6122  -24.8641  -44.0507 O.2       3 UNK        -0.5279 
     29 N          21.3817  -24.7635  -43.6329 N.am      4 UNK        -0.4463 
     30 CA         21.2761  -23.6900  -42.6339 C.3       4 UNK         0.0283 
     31 CB         21.8284  -22.3562  -43.1719 C.3       4 UNK        -0.1875 
     32 C          21.8784  -24.0303  -41.2578 C.2       4 UNK         0.4949 
     33 O          21.2952  -23.6481  -40.2429 O.2       4 UNK        -0.5039 
     34 N          23.0125  -24.7390  -41.2419 N.am      5 UNK        -0.4663 
     35 CA         23.6601  -25.2975  -40.0559 C.3       5 UNK         0.0242 
     36 CB         25.1872  -25.2885  -40.2786 C.3       5 UNK        -0.1982 
     37 C          23.0721  -26.6901  -39.7476 C.2       5 UNK         0.5017 
     38 O          21.8540  -26.8170  -39.6166 O.2       5 UNK        -0.5012 
     39 N          23.9274  -27.7121  -39.6363 N.am      6 UNK        -0.4439 
     40 CA         23.5511  -29.1078  -39.4434 C.3       6 UNK         0.0297 
     41 CB         23.3571  -29.4087  -37.9468 C.3       6 UNK        -0.2006 
     42 C          24.6383  -29.9944  -40.0546 C.2       6 UNK         0.4892 
     43 O          25.8106  -29.6106  -40.0433 O.2       6 UNK        -0.5089 
     44 N          24.2238  -31.1596  -40.5595 N.am      7 UNK        -0.4243 
     45 CA         25.0561  -32.1786  -41.1933 C.3       7 UNK         0.0196 
     46 CB         25.6976  -31.6600  -42.4993 C.3       7 UNK        -0.2007 
     47 C          24.1472  -33.3843  -41.4441 C.2       7 UNK         0.5020 
     48 O          23.4970  -33.4489  -42.4886 O.2       7 UNK        -0.5147 
     49 N          24.0501  -34.2692  -40.4424 N.am      8 UNK        -0.4734 
     50 CA         23.2052  -35.4746  -40.3527 C.3       8 UNK         0.0238 
     51 CB         23.5210  -36.4804  -41.4780 C.3       8 UNK        -0.1912 
     52 C          21.6923  -35.1939  -40.2654 C.2       8 UNK         0.5038 
     53 O          21.0233  -35.7914  -39.4217 O.2       8 UNK        -0.5046 
     54 N          21.1935  -34.2867  -41.1130 N.am      9 UNK        -0.4200 
     55 CA         19.8100  -33.7835  -41.1636 C.3       9 UNK         0.0839 
     56 C          18.7487  -34.8346  -41.6089 C.2       9 UNK         0.5513 
     57 N          19.1367  -35.9306  -42.2504 N.am      9 UNK        -0.7519 
     58 O          17.5531  -34.6468  -41.3980 O.2       9 UNK        -0.4960 
     59 C59        19.3933  -33.0138  -39.8746 C.3       10 UNK        -0.0876 
     60 S60        20.5687  -31.6926  -39.4096 S.3       10 UNK        -0.2414 
     61 C61        19.7390  -30.2124  -40.0743 C.3       10 UNK         0.0169 
     62 H62        18.9856  -25.6951  -40.8077 H         1 UNK         0.0903 
     63 H63        17.8429  -27.0427  -40.6648 H         1 UNK         0.0903 
     64 H64        19.5449  -27.3523  -41.0077 H         1 UNK         0.0903 
     65 H65        16.5420  -26.0428  -42.3541 H         1 UNK         0.3096 
     66 H66        15.9138  -25.3047  -44.3074 H         1 UNK         0.1121 
     67 H67        15.2853  -27.6755  -44.3078 H         1 UNK         0.0849 
     68 H68        15.3871  -26.9772  -45.8802 H         1 UNK         0.0849 
     69 H69        16.1907  -29.6566  -43.5810 H         1 UNK         0.0865 
     70 H70        16.6556  -30.8811  -44.7345 H         1 UNK         0.0865 
     71 H71        17.5089  -29.9813  -41.6293 H         1 UNK         0.1346 
     72 H72        21.7624  -30.4404  -41.8946 H         1 UNK         0.1412 
     73 H73        19.4073  -30.3151  -45.4620 H         1 UNK         0.1426 
     74 H74        21.9071  -31.4782  -45.1841 H         1 UNK         0.0716 
     75 H75        22.8570  -30.6624  -43.9685 H         1 UNK         0.0716 
     76 H76        21.7728  -27.8915  -43.7511 H         1 UNK         0.0695 
     77 H77        23.4633  -27.8217  -44.1791 H         1 UNK         0.0695 
     78 H78        22.9714  -26.2799  -46.0563 H         1 UNK         0.0983 
     79 H79        20.1562  -26.8249  -45.4534 H         1 UNK         0.3095 
     80 H80        18.8889  -24.3691  -47.6284 H         1 UNK         0.0454 
     81 H81        19.7347  -25.8389  -49.4583 H         1 UNK         0.0851 
     82 H82        19.2660  -27.2692  -48.5498 H         1 UNK         0.0851 
     83 H83        18.0370  -26.1488  -49.1383 H         1 UNK         0.0851 
     84 H84        17.8529  -26.8813  -46.5768 H         1 UNK         0.2976 
     85 H85        20.5150  -25.2673  -43.8051 H         1 UNK         0.3116 
     86 H86        20.2044  -23.5566  -42.4764 H         1 UNK         0.0646 
     87 H87        21.6389  -21.5461  -42.4666 H         1 UNK         0.0847 
     88 H88        21.3545  -22.0831  -44.1147 H         1 UNK         0.0847 
     89 H89        22.9056  -22.3949  -43.3356 H         1 UNK         0.0847 
     90 H90        23.4180  -24.9726  -42.1438 H         1 UNK         0.3040 
     91 H91        23.4424  -24.6651  -39.1923 H         1 UNK         0.1015 
     92 H92        25.5444  -24.2776  -40.4768 H         1 UNK         0.0786 
     93 H93        25.4823  -25.9105  -41.1250 H         1 UNK         0.0786 
     94 H94        25.7214  -25.6417  -39.3954 H         1 UNK         0.0786 
     95 H95        24.9174  -27.5631  -39.7891 H         1 UNK         0.3172 
     96 H96        22.6185  -29.2991  -39.9751 H         1 UNK         0.0595 
     97 H97        24.2646  -29.2100  -37.3754 H         1 UNK         0.0839 
     98 H98        23.0919  -30.4548  -37.7884 H         1 UNK         0.0839 
     99 H99        22.5541  -28.8058  -37.5226 H         1 UNK         0.0839 
    100 H100       23.2455  -31.4037  -40.4770 H         1 UNK         0.2998 
    101 H101       25.8512  -32.4703  -40.5039 H         1 UNK         0.0822 
    102 H102       26.4322  -30.8788  -42.3056 H         1 UNK         0.0787 
    103 H103       26.2184  -32.4637  -43.0214 H         1 UNK         0.0787 
    104 H104       24.9549  -31.2546  -43.1852 H         1 UNK         0.0787 
    105 H105       24.5914  -34.0793  -39.6091 H         1 UNK         0.3055 
    106 H106       23.4785  -35.9524  -39.4100 H         1 UNK         0.1106 
    107 H107       23.2605  -36.0928  -42.4632 H         1 UNK         0.0828 
    108 H108       24.5792  -36.7413  -41.4903 H         1 UNK         0.0828 
    109 H109       22.9617  -37.4065  -41.3383 H         1 UNK         0.0828 
    110 H110       21.8429  -33.8781  -41.7802 H         1 UNK         0.2931 
    111 H111       19.8130  -33.0590  -41.9774 H         1 UNK         0.0412 
    112 H112       18.4457  -36.6031  -42.5445 H         1 UNK         0.3472 
    113 H113       20.1129  -36.0912  -42.4399 H         1 UNK         0.3472 
    114 H114       19.3078  -33.7037  -39.0338 H         1 UNK         0.0970 
    115 H115       18.4027  -32.5725  -39.9971 H         1 UNK         0.0970 
    116 H116       20.2918  -29.3263  -39.7619 H         1 UNK         0.0612 
    117 H117       18.7499  -30.1282  -39.6216 H         1 UNK         0.0612 
@<TRIPOS>BOND
     1    1    2 1    
     2    1   62 1    
     3    1   63 1    
     4    1   64 1    
     5    2    3 2    
     6    2    4 am   BACKBONE|DICT|INTERRES
     7    4    5 1    
     8    4   65 1    
     9    5    6 1    
    10    5   25 1    
    11    5   66 1    
    12    6    7 1    
    13    6   67 1    
    14    6   68 1    
    15    7    8 1    
    16    8    9 1    
    17    8   69 1    
    18    8   70 1    
    19    9   10 ar   
    20    9   14 ar   
    21   10   11 ar   
    22   10   71 1    
    23   11   12 ar   
    24   11   61 1    
    25   12   13 ar   
    26   12   72 1    
    27   13   14 ar   
    28   13   15 1    
    29   14   73 1    
    30   15   16 1    
    31   15   74 1    
    32   15   75 1    
    33   16   17 1    
    34   17   18 1    
    35   17   76 1    
    36   17   77 1    
    37   18   19 1    
    38   18   27 1    
    39   18   78 1    
    40   19   20 am   BACKBONE|DICT|INTERRES
    41   19   79 1    
    42   20   21 2    
    43   20   22 1    
    44   22   23 1    
    45   22   24 1    
    46   22   80 1    
    47   23   81 1    
    48   23   82 1    
    49   23   83 1    
    50   24   25 am   BACKBONE|DICT|INTERRES
    51   24   84 1    
    52   25   26 2    
    53   27   28 2    
    54   27   29 am   BACKBONE|DICT|INTERRES
    55   29   30 1    
    56   29   85 1    
    57   30   31 1    
    58   30   32 1    
    59   30   86 1    
    60   31   87 1    
    61   31   88 1    
    62   31   89 1    
    63   32   33 2    
    64   32   34 am   BACKBONE|DICT|INTERRES
    65   34   35 1    
    66   34   90 1    
    67   35   36 1    
    68   35   37 1    
    69   35   91 1    
    70   36   92 1    
    71   36   93 1    
    72   36   94 1    
    73   37   38 2    
    74   37   39 am   BACKBONE|DICT|INTERRES
    75   39   40 1    
    76   39   95 1    
    77   40   41 1    
    78   40   42 1    
    79   40   96 1    
    80   41   97 1    
    81   41   98 1    
    82   41   99 1    
    83   42   43 2    
    84   42   44 am   BACKBONE|DICT|INTERRES
    85   44   45 1    
    86   44  100 1    
    87   45   46 1    
    88   45   47 1    
    89   45  101 1    
    90   46  102 1    
    91   46  103 1    
    92   46  104 1    
    93   47   48 2    
    94   47   49 am   BACKBONE|DICT|INTERRES
    95   49   50 1    
    96   49  105 1    
    97   50   51 1    
    98   50   52 1    
    99   50  106 1    
   100   51  107 1    
   101   51  108 1    
   102   51  109 1    
   103   52   53 2    
   104   52   54 am   BACKBONE|DICT|INTERRES
   105   54   55 1    
   106   54  110 1    
   107   55   56 1    
   108   55   59 1    
   109   55  111 1    
   110   56   57 am   BACKBONE|DICT|INTERRES
   111   56   58 2    
   112   57  112 1    
   113   57  113 1    
   114   59   60 1    
   115   59  114 1    
   116   59  115 1    
   117   60   61 1    
   118   61  116 1    
   119   61  117 1    
@<TRIPOS>SUBSTRUCTURE
     1 UNK         1 GROUP             0       ****    0 ROOT    
