@<TRIPOS>MOLECULE
3R8
117   119    1
SMALL
USER_CHARGES


@<TRIPOS>ATOM
      1 CA         24.1607  -26.9054  -47.9581 C.3       0 UNK        -0.2013 
      2 C          22.9640  -27.0054  -47.0256 C.2       0 UNK         0.4866 
      3 O          23.1066  -26.7993  -45.8209 O.2       0 UNK        -0.5176 
      4 N          21.7794  -27.3132  -47.5679 N.am      1 UNK        -0.4884 
      5 CA         20.5156  -27.4837  -46.8383 C.3       1 UNK         0.0853 
      6 C6         19.5185  -28.3617  -47.6365 C.3       10 UNK        -0.0849 
      7 S7         20.0130  -30.1185  -47.5944 S.3       10 UNK        -0.2776 
      8 C8         18.4795  -30.9418  -47.0473 C.3       10 UNK         0.0316 
      9 C9         18.1313  -30.6618  -45.5888 C.ar      10 UNK        -0.0863 
     10 C10        18.7107  -31.4197  -44.5651 C.ar      10 UNK        -0.1009 
     11 C11        18.3375  -31.2139  -43.2320 C.ar      10 UNK        -0.0712 
     12 C12        17.3958  -30.2294  -42.9224 C.ar      10 UNK        -0.0894 
     13 C13        16.8228  -29.4556  -43.9331 C.ar      10 UNK        -0.0745 
     14 C14        17.1853  -29.6834  -45.2639 C.ar      10 UNK        -0.0972 
     15 C15        15.7933  -28.3898  -43.5941 C.3       10 UNK         0.0209 
     16 S16        16.5291  -26.7269  -43.5959 S.3       10 UNK        -0.2568 
     17 C17        17.4127  -26.6689  -41.9947 C.3       10 UNK        -0.0983 
     18 CA         18.9533  -26.8949  -42.0949 C.3       3 UNK         0.0876 
     19 N          19.6053  -26.1160  -43.1539 N.am      3 UNK        -0.4424 
     20 C          19.5246  -24.7988  -43.4024 C.2       2 UNK         0.4918 
     21 O          18.9413  -23.9880  -42.6818 O.2       2 UNK        -0.4875 
     22 CA         20.1668  -24.3023  -44.7184 C.3       2 UNK         0.0481 
     23 CB         21.3024  -23.2972  -44.4645 C.3       2 UNK        -0.1831 
     24 N          20.6614  -25.4098  -45.5439 N.am      2 UNK        -0.4498 
     25 C          19.9117  -26.1347  -46.3853 C.2       1 UNK         0.5027 
     26 O          18.7891  -25.7944  -46.7619 O.2       1 UNK        -0.4969 
     27 C          19.6489  -26.7333  -40.7242 C.2       3 UNK         0.5005 
     28 O          20.5507  -25.9040  -40.5639 O.2       3 UNK        -0.5279 
     29 N          19.2006  -27.5415  -39.7499 N.am      4 UNK        -0.4463 
     30 CA         19.6334  -27.5849  -38.3493 C.3       4 UNK         0.0283 
     31 CB         19.2053  -26.3013  -37.6016 C.3       4 UNK        -0.1875 
     32 C          21.1311  -27.9123  -38.2121 C.2       4 UNK         0.4949 
     33 O          21.4970  -29.0859  -38.2628 O.2       4 UNK        -0.5039 
     34 N          21.9635  -26.8803  -38.0278 N.am      5 UNK        -0.4663 
     35 CA         23.4195  -26.9948  -37.9327 C.3       5 UNK         0.0242 
     36 CB         23.9719  -25.7457  -37.2263 C.3       5 UNK        -0.1982 
     37 C          24.1039  -27.1879  -39.2982 C.2       5 UNK         0.5017 
     38 O          25.2410  -27.6607  -39.3273 O.2       5 UNK        -0.5012 
     39 N          23.4278  -26.8064  -40.3898 N.am      6 UNK        -0.4439 
     40 CA         23.9110  -26.9560  -41.7604 C.3       6 UNK         0.0297 
     41 CB         23.5149  -25.7063  -42.5552 C.3       6 UNK        -0.2006 
     42 C          23.3018  -28.2169  -42.3896 C.2       6 UNK         0.4892 
     43 O          22.1362  -28.5154  -42.1273 O.2       6 UNK        -0.5089 
     44 N          24.1033  -28.8953  -43.2241 N.am      7 UNK        -0.4243 
     45 CA         23.8795  -30.2136  -43.8375 C.3       7 UNK         0.0196 
     46 CB         22.5370  -30.2921  -44.5981 C.3       7 UNK        -0.2007 
     47 C          24.0461  -31.3687  -42.8321 C.2       7 UNK         0.5020 
     48 O          24.2079  -31.1492  -41.6293 O.2       7 UNK        -0.5147 
     49 N          24.0403  -32.6028  -43.3518 N.am      8 UNK        -0.4734 
     50 CA         24.2457  -33.8439  -42.5965 C.3       8 UNK         0.0238 
     51 CB         24.7780  -34.9255  -43.5562 C.3       8 UNK        -0.1912 
     52 C          22.9756  -34.2907  -41.8445 C.2       8 UNK         0.5038 
     53 O          22.4999  -35.4097  -42.0471 O.2       8 UNK        -0.5046 
     54 N          22.4402  -33.4001  -41.0032 N.am      9 UNK        -0.4200 
     55 CA         21.2249  -33.6165  -40.2027 C.3       9 UNK         0.0839 
     56 C          21.4244  -34.5158  -38.9485 C.2       9 UNK         0.5513 
     57 N          22.6461  -34.8655  -38.5630 N.am      9 UNK        -0.7519 
     58 O          20.4479  -34.9103  -38.3165 O.2       9 UNK        -0.4960 
     59 C59        20.5344  -32.2799  -39.8218 C.3       10 UNK        -0.0876 
     60 S60        20.2334  -31.1702  -41.2380 S.3       10 UNK        -0.2414 
     61 C61        18.9245  -32.0658  -42.1196 C.3       10 UNK         0.0169 
     62 H62        24.5876  -25.9039  -47.9130 H         1 UNK         0.0903 
     63 H63        24.9287  -27.6173  -47.6569 H         1 UNK         0.0903 
     64 H64        23.8908  -27.1143  -48.9931 H         1 UNK         0.0903 
     65 H65        21.7214  -27.4574  -48.5661 H         1 UNK         0.3096 
     66 H66        20.7301  -28.0148  -45.9085 H         1 UNK         0.1121 
     67 H67        19.4495  -28.0303  -48.6740 H         1 UNK         0.0849 
     68 H68        18.5097  -28.2767  -47.2349 H         1 UNK         0.0849 
     69 H69        17.6574  -30.6454  -47.7009 H         1 UNK         0.0865 
     70 H70        18.5955  -32.0176  -47.1879 H         1 UNK         0.0865 
     71 H71        19.4377  -32.1826  -44.8085 H         1 UNK         0.1346 
     72 H72        17.1083  -30.0703  -41.8923 H         1 UNK         0.1412 
     73 H73        16.7192  -29.0993  -46.0455 H         1 UNK         0.1426 
     74 H74        15.3220  -28.5889  -42.6304 H         1 UNK         0.0716 
     75 H75        14.9910  -28.4164  -44.3329 H         1 UNK         0.0716 
     76 H76        16.9587  -27.3994  -41.3240 H         1 UNK         0.0695 
     77 H77        17.2049  -25.6950  -41.5480 H         1 UNK         0.0695 
     78 H78        19.1158  -27.9353  -42.3825 H         1 UNK         0.0983 
     79 H79        20.1641  -26.6660  -43.7860 H         1 UNK         0.3095 
     80 H80        19.3843  -23.7745  -45.2673 H         1 UNK         0.0454 
     81 H81        22.1521  -23.7509  -43.9596 H         1 UNK         0.0851 
     82 H82        20.9596  -22.4684  -43.8436 H         1 UNK         0.0851 
     83 H83        21.6634  -22.8695  -45.3998 H         1 UNK         0.0851 
     84 H84        21.6073  -25.7421  -45.3651 H         1 UNK         0.2976 
     85 H85        18.5053  -28.2318  -39.9955 H         1 UNK         0.3116 
     86 H86        19.0989  -28.4180  -37.8898 H         1 UNK         0.0646 
     87 H87        19.6127  -25.3961  -38.0526 H         1 UNK         0.0847 
     88 H88        19.5302  -26.3269  -36.5605 H         1 UNK         0.0847 
     89 H89        18.1201  -26.1999  -37.5939 H         1 UNK         0.0847 
     90 H90        21.5762  -25.9473  -38.0389 H         1 UNK         0.3040 
     91 H91        23.6616  -27.8682  -37.3224 H         1 UNK         0.1015 
     92 H92        23.7588  -24.8358  -37.7890 H         1 UNK         0.0786 
     93 H93        25.0547  -25.8102  -37.1094 H         1 UNK         0.0786 
     94 H94        23.5466  -25.6326  -36.2288 H         1 UNK         0.0786 
     95 H95        22.4608  -26.5076  -40.2919 H         1 UNK         0.3172 
     96 H96        25.0002  -27.0364  -41.7697 H         1 UNK         0.0595 
     97 H97        23.9125  -25.7450  -43.5692 H         1 UNK         0.0839 
     98 H98        23.8997  -24.7986  -42.0904 H         1 UNK         0.0839 
     99 H99        22.4314  -25.6153  -42.6249 H         1 UNK         0.0839 
    100 H100       25.0335  -28.5266  -43.3621 H         1 UNK         0.2998 
    101 H101       24.6785  -30.3276  -44.5717 H         1 UNK         0.0822 
    102 H102       22.4681  -31.2011  -45.1957 H         1 UNK         0.0787 
    103 H103       21.6789  -30.2887  -43.9252 H         1 UNK         0.0787 
    104 H104       22.4298  -29.4558  -45.2853 H         1 UNK         0.0787 
    105 H105       23.8769  -32.7075  -44.3430 H         1 UNK         0.3055 
    106 H106       25.0144  -33.6704  -41.8396 H         1 UNK         0.1106 
    107 H107       24.9889  -35.8532  -43.0223 H         1 UNK         0.0828 
    108 H108       24.0591  -35.1584  -44.3428 H         1 UNK         0.0828 
    109 H109       25.7075  -34.6123  -44.0321 H         1 UNK         0.0828 
    110 H110       22.8823  -32.4897  -40.9258 H         1 UNK         0.2931 
    111 H111       20.5242  -34.1657  -40.8336 H         1 UNK         0.0412 
    112 H112       23.4541  -34.5453  -39.0721 H         1 UNK         0.3472 
    113 H113       22.7596  -35.4522  -37.7511 H         1 UNK         0.3472 
    114 H114       21.1476  -31.7333  -39.1027 H         1 UNK         0.0970 
    115 H115       19.5814  -32.4658  -39.3229 H         1 UNK         0.0970 
    116 H116       19.3306  -32.9931  -42.5260 H         1 UNK         0.0612 
    117 H117       18.1374  -32.3483  -41.4189 H         1 UNK         0.0612 
@<TRIPOS>BOND
     1    1    2 1    
     2    1   62 1    
     3    1   63 1    
     4    1   64 1    
     5    2    3 2    
     6    2    4 am   BACKBONE|DICT|INTERRES
     7    4    5 1    
     8    4   65 1    
     9    5    6 1    
    10    5   25 1    
    11    5   66 1    
    12    6    7 1    
    13    6   67 1    
    14    6   68 1    
    15    7    8 1    
    16    8    9 1    
    17    8   69 1    
    18    8   70 1    
    19    9   10 ar   
    20    9   14 ar   
    21   10   11 ar   
    22   10   71 1    
    23   11   12 ar   
    24   11   61 1    
    25   12   13 ar   
    26   12   72 1    
    27   13   14 ar   
    28   13   15 1    
    29   14   73 1    
    30   15   16 1    
    31   15   74 1    
    32   15   75 1    
    33   16   17 1    
    34   17   18 1    
    35   17   76 1    
    36   17   77 1    
    37   18   19 1    
    38   18   27 1    
    39   18   78 1    
    40   19   20 am   BACKBONE|DICT|INTERRES
    41   19   79 1    
    42   20   21 2    
    43   20   22 1    
    44   22   23 1    
    45   22   24 1    
    46   22   80 1    
    47   23   81 1    
    48   23   82 1    
    49   23   83 1    
    50   24   25 am   BACKBONE|DICT|INTERRES
    51   24   84 1    
    52   25   26 2    
    53   27   28 2    
    54   27   29 am   BACKBONE|DICT|INTERRES
    55   29   30 1    
    56   29   85 1    
    57   30   31 1    
    58   30   32 1    
    59   30   86 1    
    60   31   87 1    
    61   31   88 1    
    62   31   89 1    
    63   32   33 2    
    64   32   34 am   BACKBONE|DICT|INTERRES
    65   34   35 1    
    66   34   90 1    
    67   35   36 1    
    68   35   37 1    
    69   35   91 1    
    70   36   92 1    
    71   36   93 1    
    72   36   94 1    
    73   37   38 2    
    74   37   39 am   BACKBONE|DICT|INTERRES
    75   39   40 1    
    76   39   95 1    
    77   40   41 1    
    78   40   42 1    
    79   40   96 1    
    80   41   97 1    
    81   41   98 1    
    82   41   99 1    
    83   42   43 2    
    84   42   44 am   BACKBONE|DICT|INTERRES
    85   44   45 1    
    86   44  100 1    
    87   45   46 1    
    88   45   47 1    
    89   45  101 1    
    90   46  102 1    
    91   46  103 1    
    92   46  104 1    
    93   47   48 2    
    94   47   49 am   BACKBONE|DICT|INTERRES
    95   49   50 1    
    96   49  105 1    
    97   50   51 1    
    98   50   52 1    
    99   50  106 1    
   100   51  107 1    
   101   51  108 1    
   102   51  109 1    
   103   52   53 2    
   104   52   54 am   BACKBONE|DICT|INTERRES
   105   54   55 1    
   106   54  110 1    
   107   55   56 1    
   108   55   59 1    
   109   55  111 1    
   110   56   57 am   BACKBONE|DICT|INTERRES
   111   56   58 2    
   112   57  112 1    
   113   57  113 1    
   114   59   60 1    
   115   59  114 1    
   116   59  115 1    
   117   60   61 1    
   118   61  116 1    
   119   61  117 1    
@<TRIPOS>SUBSTRUCTURE
     1 UNK         1 GROUP             0       ****    0 ROOT    
