@<TRIPOS>MOLECULE
3R8
117   119    1
SMALL
USER_CHARGES


@<TRIPOS>ATOM
      1 CA         15.0806  -22.6937  -45.9555 C.3       0 UNK        -0.2013 
      2 C          16.2015  -23.6445  -45.5653 C.2       0 UNK         0.4866 
      3 O          17.2185  -23.7135  -46.2568 O.2       0 UNK        -0.5176 
      4 N          16.0386  -24.3700  -44.4517 N.am      1 UNK        -0.4884 
      5 CA         16.9819  -25.3686  -43.9246 C.3       1 UNK         0.0853 
      6 C6         16.2527  -26.4375  -43.0659 C.3       10 UNK        -0.0849 
      7 S7         15.0057  -27.3484  -44.0479 S.3       10 UNK        -0.2776 
      8 C8         15.2785  -29.0884  -43.5502 C.3       10 UNK         0.0316 
      9 C9         16.6560  -29.6798  -43.8637 C.ar      10 UNK        -0.0863 
     10 C10        17.0396  -30.8512  -43.2028 C.ar      10 UNK        -0.1009 
     11 C11        18.2997  -31.4183  -43.4153 C.ar      10 UNK        -0.0712 
     12 C12        19.1908  -30.8027  -44.2988 C.ar      10 UNK        -0.0894 
     13 C13        18.8221  -29.6326  -44.9705 C.ar      10 UNK        -0.0745 
     14 C14        17.5485  -29.0932  -44.7702 C.ar      10 UNK        -0.0972 
     15 C15        19.8248  -28.8963  -45.8434 C.3       10 UNK         0.0209 
     16 S16        20.8502  -27.8541  -44.7722 S.3       10 UNK        -0.2568 
     17 C17        21.7794  -26.7892  -45.9288 C.3       10 UNK        -0.0983 
     18 CA         22.3348  -25.5136  -45.2316 C.3       3 UNK         0.0876 
     19 N          21.2387  -24.7549  -44.6289 N.am      3 UNK        -0.4424 
     20 C          21.2979  -23.5299  -44.0957 C.2       2 UNK         0.4918 
     21 O          22.3032  -22.8185  -44.1310 O.2       2 UNK        -0.4875 
     22 CA         20.0075  -23.0076  -43.4302 C.3       2 UNK         0.0481 
     23 CB         19.7819  -21.5145  -43.7285 C.3       2 UNK        -0.1831 
     24 N          18.8266  -23.7566  -43.8730 N.am      2 UNK        -0.4498 
     25 C          18.1679  -24.7001  -43.1876 C.2       1 UNK         0.5027 
     26 O          18.4605  -25.0378  -42.0399 O.2       1 UNK        -0.4969 
     27 C          23.4203  -25.8758  -44.1910 C.2       3 UNK         0.5005 
     28 O          23.1333  -25.9521  -42.9930 O.2       3 UNK        -0.5279 
     29 N          24.6328  -26.1867  -44.6714 N.am      4 UNK        -0.4463 
     30 CA         25.7145  -26.7522  -43.8524 C.3       4 UNK         0.0283 
     31 CB         27.0231  -26.7476  -44.6584 C.3       4 UNK        -0.1875 
     32 C          25.4019  -28.1738  -43.3421 C.2       4 UNK         0.4949 
     33 O          25.9180  -28.5751  -42.2994 O.2       4 UNK        -0.5039 
     34 N          24.5441  -28.8986  -44.0744 N.am      5 UNK        -0.4663 
     35 CA         24.0746  -30.2456  -43.7481 C.3       5 UNK         0.0242 
     36 CB         23.4672  -30.8810  -45.0097 C.3       5 UNK        -0.1982 
     37 C          23.0722  -30.3013  -42.5810 C.2       5 UNK         0.5017 
     38 O          22.8038  -31.4001  -42.0997 O.2       5 UNK        -0.5012 
     39 N          22.5508  -29.1497  -42.1271 N.am      6 UNK        -0.4439 
     40 CA         21.5575  -29.0354  -41.0499 C.3       6 UNK         0.0297 
     41 CB         21.1232  -27.5680  -40.9054 C.3       6 UNK        -0.2006 
     42 C          22.0263  -29.5898  -39.6901 C.2       6 UNK         0.4892 
     43 O          21.1927  -29.9899  -38.8776 O.2       6 UNK        -0.5089 
     44 N          23.3473  -29.6174  -39.4716 N.am      7 UNK        -0.4243 
     45 CA         23.9899  -30.2115  -38.2985 C.3       7 UNK         0.0196 
     46 CB         25.3092  -29.4638  -38.0393 C.3       7 UNK        -0.2007 
     47 C          24.2502  -31.7241  -38.4490 C.2       7 UNK         0.5020 
     48 O          24.6860  -32.3466  -37.4801 O.2       7 UNK        -0.5147 
     49 N          24.0199  -32.2893  -39.6423 N.am      8 UNK        -0.4734 
     50 CA         24.3816  -33.6597  -40.0147 C.3       8 UNK         0.0238 
     51 CB         25.4604  -33.5961  -41.1131 C.3       8 UNK        -0.1912 
     52 C          23.1663  -34.4924  -40.4623 C.2       8 UNK         0.5038 
     53 O          23.3571  -35.5240  -41.1094 O.2       8 UNK        -0.5046 
     54 N          21.9467  -34.0545  -40.1175 N.am      9 UNK        -0.4200 
     55 CA         20.6872  -34.7488  -40.4459 C.3       9 UNK         0.0839 
     56 C          20.4939  -36.1282  -39.7483 C.2       9 UNK         0.5513 
     57 N          21.2190  -36.4440  -38.6816 N.am      9 UNK        -0.7519 
     58 O          19.6674  -36.9247  -40.1856 O.2       9 UNK        -0.4960 
     59 C59        19.4399  -33.8586  -40.2070 C.3       10 UNK        -0.0876 
     60 S60        19.4938  -32.2625  -41.0839 S.3       10 UNK        -0.2414 
     61 C61        18.6991  -32.6792  -42.6643 C.3       10 UNK         0.0169 
     62 H62        14.7046  -22.9451  -46.9468 H         1 UNK         0.0903 
     63 H63        14.2464  -22.7374  -45.2555 H         1 UNK         0.0903 
     64 H64        15.4498  -21.6688  -45.9805 H         1 UNK         0.0903 
     65 H65        15.1893  -24.2602  -43.9155 H         1 UNK         0.3096 
     66 H66        17.4279  -25.8899  -44.7744 H         1 UNK         0.1121 
     67 H67        16.9701  -27.1490  -42.6521 H         1 UNK         0.0849 
     68 H68        15.7575  -25.9752  -42.2101 H         1 UNK         0.0849 
     69 H69        15.0877  -29.1647  -42.4784 H         1 UNK         0.0865 
     70 H70        14.5231  -29.7047  -44.0394 H         1 UNK         0.0865 
     71 H71        16.3599  -31.3181  -42.5026 H         1 UNK         0.1346 
     72 H72        20.1819  -31.2135  -44.4354 H         1 UNK         0.1412 
     73 H73        17.2761  -28.1921  -45.2988 H         1 UNK         0.1426 
     74 H74        20.4511  -29.6012  -46.3917 H         1 UNK         0.0716 
     75 H75        19.3132  -28.2797  -46.5841 H         1 UNK         0.0716 
     76 H76        22.5789  -27.3727  -46.3885 H         1 UNK         0.0695 
     77 H77        21.1153  -26.4989  -46.7445 H         1 UNK         0.0695 
     78 H78        22.7983  -24.8744  -45.9860 H         1 UNK         0.0983 
     79 H79        20.3846  -25.2757  -44.5036 H         1 UNK         0.3095 
     80 H80        20.1371  -23.1214  -42.3523 H         1 UNK         0.0454 
     81 H81        19.6952  -21.3261  -44.7993 H         1 UNK         0.0851 
     82 H82        18.8740  -21.1480  -43.2493 H         1 UNK         0.0851 
     83 H83        20.6081  -20.9081  -43.3552 H         1 UNK         0.0851 
     84 H84        18.4936  -23.5619  -44.8147 H         1 UNK         0.2976 
     85 H85        24.8100  -26.0987  -45.6626 H         1 UNK         0.3116 
     86 H86        25.8495  -26.1117  -42.9781 H         1 UNK         0.0646 
     87 H87        27.8487  -27.1387  -44.0618 H         1 UNK         0.0847 
     88 H88        27.2985  -25.7382  -44.9646 H         1 UNK         0.0847 
     89 H89        26.9501  -27.3643  -45.5550 H         1 UNK         0.0847 
     90 H90        24.1675  -28.4825  -44.9128 H         1 UNK         0.3040 
     91 H91        24.9394  -30.8424  -43.4492 H         1 UNK         0.1015 
     92 H92        24.1960  -30.9337  -45.8186 H         1 UNK         0.0786 
     93 H93        22.6051  -30.3196  -45.3691 H         1 UNK         0.0786 
     94 H94        23.1318  -31.9004  -44.8124 H         1 UNK         0.0786 
     95 H95        22.8176  -28.2870  -42.5849 H         1 UNK         0.3172 
     96 H96        20.6841  -29.6121  -41.3574 H         1 UNK         0.0595 
     97 H97        20.3626  -27.4590  -40.1312 H         1 UNK         0.0839 
     98 H98        20.6929  -27.1845  -41.8306 H         1 UNK         0.0839 
     99 H99        21.9607  -26.9240  -40.6347 H         1 UNK         0.0839 
    100 H100       23.9579  -29.2650  -40.1960 H         1 UNK         0.2998 
    101 H101       23.3455  -30.0775  -37.4268 H         1 UNK         0.0822 
    102 H102       25.1367  -28.3995  -37.8777 H         1 UNK         0.0787 
    103 H103       25.8100  -29.8469  -37.1489 H         1 UNK         0.0787 
    104 H104       26.0030  -29.5686  -38.8747 H         1 UNK         0.0787 
    105 H105       23.5971  -31.7391  -40.3864 H         1 UNK         0.3055 
    106 H106       24.8062  -34.1873  -39.1580 H         1 UNK         0.1106 
    107 H107       25.8244  -34.5920  -41.3687 H         1 UNK         0.0828 
    108 H108       25.0748  -33.1443  -42.0278 H         1 UNK         0.0828 
    109 H109       26.3229  -33.0136  -40.7890 H         1 UNK         0.0828 
    110 H110       21.8659  -33.1859  -39.6103 H         1 UNK         0.2931 
    111 H111       20.7250  -34.9612  -41.5163 H         1 UNK         0.0412 
    112 H112       21.0853  -37.3408  -38.2408 H         1 UNK         0.3472 
    113 H113       21.8964  -35.7961  -38.3126 H         1 UNK         0.3472 
    114 H114       19.3331  -33.6453  -39.1418 H         1 UNK         0.0970 
    115 H115       18.5278  -34.3849  -40.4952 H         1 UNK         0.0970 
    116 H116       19.3838  -33.2805  -43.2643 H         1 UNK         0.0612 
    117 H117       17.8168  -33.2954  -42.4851 H         1 UNK         0.0612 
@<TRIPOS>BOND
     1    1    2 1    
     2    1   62 1    
     3    1   63 1    
     4    1   64 1    
     5    2    3 2    
     6    2    4 am   BACKBONE|DICT|INTERRES
     7    4    5 1    
     8    4   65 1    
     9    5    6 1    
    10    5   25 1    
    11    5   66 1    
    12    6    7 1    
    13    6   67 1    
    14    6   68 1    
    15    7    8 1    
    16    8    9 1    
    17    8   69 1    
    18    8   70 1    
    19    9   10 ar   
    20    9   14 ar   
    21   10   11 ar   
    22   10   71 1    
    23   11   12 ar   
    24   11   61 1    
    25   12   13 ar   
    26   12   72 1    
    27   13   14 ar   
    28   13   15 1    
    29   14   73 1    
    30   15   16 1    
    31   15   74 1    
    32   15   75 1    
    33   16   17 1    
    34   17   18 1    
    35   17   76 1    
    36   17   77 1    
    37   18   19 1    
    38   18   27 1    
    39   18   78 1    
    40   19   20 am   BACKBONE|DICT|INTERRES
    41   19   79 1    
    42   20   21 2    
    43   20   22 1    
    44   22   23 1    
    45   22   24 1    
    46   22   80 1    
    47   23   81 1    
    48   23   82 1    
    49   23   83 1    
    50   24   25 am   BACKBONE|DICT|INTERRES
    51   24   84 1    
    52   25   26 2    
    53   27   28 2    
    54   27   29 am   BACKBONE|DICT|INTERRES
    55   29   30 1    
    56   29   85 1    
    57   30   31 1    
    58   30   32 1    
    59   30   86 1    
    60   31   87 1    
    61   31   88 1    
    62   31   89 1    
    63   32   33 2    
    64   32   34 am   BACKBONE|DICT|INTERRES
    65   34   35 1    
    66   34   90 1    
    67   35   36 1    
    68   35   37 1    
    69   35   91 1    
    70   36   92 1    
    71   36   93 1    
    72   36   94 1    
    73   37   38 2    
    74   37   39 am   BACKBONE|DICT|INTERRES
    75   39   40 1    
    76   39   95 1    
    77   40   41 1    
    78   40   42 1    
    79   40   96 1    
    80   41   97 1    
    81   41   98 1    
    82   41   99 1    
    83   42   43 2    
    84   42   44 am   BACKBONE|DICT|INTERRES
    85   44   45 1    
    86   44  100 1    
    87   45   46 1    
    88   45   47 1    
    89   45  101 1    
    90   46  102 1    
    91   46  103 1    
    92   46  104 1    
    93   47   48 2    
    94   47   49 am   BACKBONE|DICT|INTERRES
    95   49   50 1    
    96   49  105 1    
    97   50   51 1    
    98   50   52 1    
    99   50  106 1    
   100   51  107 1    
   101   51  108 1    
   102   51  109 1    
   103   52   53 2    
   104   52   54 am   BACKBONE|DICT|INTERRES
   105   54   55 1    
   106   54  110 1    
   107   55   56 1    
   108   55   59 1    
   109   55  111 1    
   110   56   57 am   BACKBONE|DICT|INTERRES
   111   56   58 2    
   112   57  112 1    
   113   57  113 1    
   114   59   60 1    
   115   59  114 1    
   116   59  115 1    
   117   60   61 1    
   118   61  116 1    
   119   61  117 1    
@<TRIPOS>SUBSTRUCTURE
     1 UNK         1 GROUP             0       ****    0 ROOT    
