@<TRIPOS>MOLECULE
3R8
117   119    1
SMALL
USER_CHARGES


@<TRIPOS>ATOM
      1 CA         13.2538  -24.1586  -47.2929 C.3       0 UNK        -0.2013 
      2 C          14.3859  -25.1089  -47.6538 C.2       0 UNK         0.4866 
      3 O          14.6268  -25.3541  -48.8366 O.2       0 UNK        -0.5176 
      4 N          15.0763  -25.6529  -46.6446 N.am      1 UNK        -0.4884 
      5 CA         16.2259  -26.5486  -46.8089 C.3       1 UNK         0.0853 
      6 C6         16.6053  -27.2637  -45.4860 C.3       10 UNK        -0.0849 
      7 S7         15.2646  -28.2479  -44.7425 S.3       10 UNK        -0.2776 
      8 C8         15.0966  -27.4626  -43.1047 C.3       10 UNK         0.0316 
      9 C9         16.3850  -27.5089  -42.2875 C.ar      10 UNK        -0.0863 
     10 C10        16.8488  -28.7215  -41.7659 C.ar      10 UNK        -0.1009 
     11 C11        17.9992  -28.7578  -40.9714 C.ar      10 UNK        -0.0712 
     12 C12        18.6895  -27.5723  -40.7056 C.ar      10 UNK        -0.0894 
     13 C13        18.2443  -26.3550  -41.2282 C.ar      10 UNK        -0.0745 
     14 C14        17.0918  -26.3302  -42.0195 C.ar      10 UNK        -0.0972 
     15 C15        18.9724  -25.0625  -40.8818 C.3       10 UNK         0.0209 
     16 S16        20.6975  -25.0497  -41.4638 S.3       10 UNK        -0.2568 
     17 C17        20.5062  -24.7759  -43.2604 C.3       10 UNK        -0.0983 
     18 CA         20.6785  -26.0546  -44.1184 C.3       3 UNK         0.0876 
     19 N          20.3834  -25.7797  -45.5289 N.am      3 UNK        -0.4424 
     20 C          20.3543  -26.6891  -46.5126 C.2       2 UNK         0.4918 
     21 O          20.5996  -27.8869  -46.3597 O.2       2 UNK        -0.4875 
     22 CA         19.8289  -26.2000  -47.8735 C.3       2 UNK         0.0481 
     23 CB         20.5399  -26.8868  -49.0528 C.3       2 UNK        -0.1831 
     24 N          18.4038  -26.5218  -47.9072 N.am      2 UNK        -0.4498 
     25 C          17.4721  -25.7824  -47.2921 C.2       1 UNK         0.5027 
     26 O          17.6337  -24.5991  -46.9789 O.2       1 UNK        -0.4969 
     27 C          22.0701  -26.7003  -43.9392 C.2       3 UNK         0.5005 
     28 O          23.0494  -26.2264  -44.5220 O.2       3 UNK        -0.5279 
     29 N          22.1174  -27.7630  -43.1295 N.am      4 UNK        -0.4463 
     30 CA         23.3026  -28.5676  -42.8498 C.3       4 UNK         0.0283 
     31 CB         23.4256  -29.6648  -43.9226 C.3       4 UNK        -0.1875 
     32 C          23.2026  -29.1234  -41.4220 C.2       4 UNK         0.4949 
     33 O          23.4455  -30.3146  -41.2045 O.2       4 UNK        -0.5039 
     34 N          22.8205  -28.2442  -40.4818 N.am      5 UNK        -0.4663 
     35 CA         22.4280  -28.5326  -39.0942 C.3       5 UNK         0.0242 
     36 CB         22.1798  -27.2054  -38.3585 C.3       5 UNK        -0.1982 
     37 C          23.3967  -29.4106  -38.2824 C.2       5 UNK         0.5017 
     38 O          22.9400  -30.1805  -37.4373 O.2       5 UNK        -0.5012 
     39 N          24.6987  -29.2887  -38.5614 N.am      6 UNK        -0.4439 
     40 CA         25.7671  -30.0939  -37.9676 C.3       6 UNK         0.0297 
     41 CB         26.5211  -29.2459  -36.9251 C.3       6 UNK        -0.2006 
     42 C          26.6995  -30.6659  -39.0511 C.2       6 UNK         0.4892 
     43 O          27.8718  -30.9151  -38.7645 O.2       6 UNK        -0.5089 
     44 N          26.1788  -30.8503  -40.2732 N.am      7 UNK        -0.4243 
     45 CA         26.9333  -31.3315  -41.4335 C.3       7 UNK         0.0196 
     46 CB         27.1821  -30.1666  -42.4066 C.3       7 UNK        -0.2007 
     47 C          26.2502  -32.5120  -42.1395 C.2       7 UNK         0.5020 
     48 O          26.9602  -33.3969  -42.6189 O.2       7 UNK        -0.5147 
     49 N          24.9104  -32.5311  -42.1944 N.am      8 UNK        -0.4734 
     50 CA         24.1402  -33.6102  -42.8282 C.3       8 UNK         0.0238 
     51 CB         23.9208  -33.3123  -44.3226 C.3       8 UNK        -0.1912 
     52 C          22.8101  -33.9185  -42.1242 C.2       8 UNK         0.5038 
     53 O          22.2854  -35.0138  -42.3312 O.2       8 UNK        -0.5046 
     54 N          22.2876  -32.9959  -41.3015 N.am      9 UNK        -0.4200 
     55 CA         21.0883  -33.2255  -40.4744 C.3       9 UNK         0.0839 
     56 C          21.2852  -34.2581  -39.3232 C.2       9 UNK         0.5513 
     57 N          22.5075  -34.6112  -38.9422 N.am      9 UNK        -0.7519 
     58 O          20.3056  -34.7489  -38.7680 O.2       9 UNK        -0.4960 
     59 C59        20.5127  -31.9042  -39.9077 C.3       10 UNK        -0.0876 
     60 S60        19.9299  -30.7421  -41.1901 S.3       10 UNK        -0.2414 
     61 C61        18.4703  -30.0602  -40.3444 C.3       10 UNK         0.0169 
     62 H62        12.3106  -24.5294  -47.6932 H         1 UNK         0.0903 
     63 H63        13.1433  -24.0462  -46.2145 H         1 UNK         0.0903 
     64 H64        13.4414  -23.1734  -47.7189 H         1 UNK         0.0903 
     65 H65        14.8456  -25.4080  -45.6930 H         1 UNK         0.3096 
     66 H66        15.9664  -27.3010  -47.5576 H         1 UNK         0.1121 
     67 H67        17.4402  -27.9497  -45.6451 H         1 UNK         0.0849 
     68 H68        16.9656  -26.5308  -44.7631 H         1 UNK         0.0849 
     69 H69        14.7575  -26.4339  -43.2359 H         1 UNK         0.0865 
     70 H70        14.3056  -27.9709  -42.5513 H         1 UNK         0.0865 
     71 H71        16.3016  -29.6331  -41.9648 H         1 UNK         0.1346 
     72 H72        19.5682  -27.5956  -40.0769 H         1 UNK         0.1412 
     73 H73        16.7320  -25.3877  -42.4097 H         1 UNK         0.1426 
     74 H74        18.9736  -24.9460  -39.7971 H         1 UNK         0.0716 
     75 H75        18.4477  -24.1921  -41.2787 H         1 UNK         0.0716 
     76 H76        19.5248  -24.3358  -43.4446 H         1 UNK         0.0695 
     77 H77        21.2326  -24.0191  -43.5627 H         1 UNK         0.0695 
     78 H78        19.9262  -26.7759  -43.7900 H         1 UNK         0.0983 
     79 H79        20.1380  -24.8260  -45.7529 H         1 UNK         0.3095 
     80 H80        19.9822  -25.1221  -47.9617 H         1 UNK         0.0454 
     81 H81        20.4129  -27.9700  -49.0358 H         1 UNK         0.0851 
     82 H82        20.1616  -26.5221  -50.0078 H         1 UNK         0.0851 
     83 H83        21.6114  -26.6845  -49.0298 H         1 UNK         0.0851 
     84 H84        18.1867  -27.4876  -48.1113 H         1 UNK         0.2976 
     85 H85        21.2686  -28.0699  -42.6717 H         1 UNK         0.3116 
     86 H86        24.1944  -27.9384  -42.8836 H         1 UNK         0.0646 
     87 H87        22.5548  -30.3209  -43.9120 H         1 UNK         0.0847 
     88 H88        24.3096  -30.2813  -43.7704 H         1 UNK         0.0847 
     89 H89        23.5046  -29.2357  -44.9215 H         1 UNK         0.0847 
     90 H90        22.6789  -27.2892  -40.7817 H         1 UNK         0.3040 
     91 H91        21.4793  -29.0686  -39.1402 H         1 UNK         0.1015 
     92 H92        21.4019  -26.6158  -38.8427 H         1 UNK         0.0786 
     93 H93        23.0826  -26.5949  -38.3140 H         1 UNK         0.0786 
     94 H94        21.8548  -27.3814  -37.3318 H         1 UNK         0.0786 
     95 H95        24.9743  -28.6237  -39.2711 H         1 UNK         0.3172 
     96 H96        25.3432  -30.9605  -37.4562 H         1 UNK         0.0595 
     97 H97        25.8443  -28.8675  -36.1589 H         1 UNK         0.0839 
     98 H98        27.0183  -28.3914  -37.3854 H         1 UNK         0.0839 
     99 H99        27.2850  -29.8342  -36.4149 H         1 UNK         0.0839 
    100 H100       25.1930  -30.6569  -40.4147 H         1 UNK         0.2998 
    101 H101       27.9092  -31.7039  -41.1141 H         1 UNK         0.0822 
    102 H102       27.8305  -29.4144  -41.9569 H         1 UNK         0.0787 
    103 H103       27.6723  -30.5118  -43.3182 H         1 UNK         0.0787 
    104 H104       26.2565  -29.6722  -42.6968 H         1 UNK         0.0787 
    105 H105       24.3843  -31.7507  -41.8122 H         1 UNK         0.3055 
    106 H106       24.7174  -34.5354  -42.7572 H         1 UNK         0.1106 
    107 H107       23.2653  -32.4570  -44.4749 H         1 UNK         0.0828 
    108 H108       24.8622  -33.1138  -44.8348 H         1 UNK         0.0828 
    109 H109       23.4563  -34.1636  -44.8220 H         1 UNK         0.0828 
    110 H110       22.7207  -32.0846  -41.2074 H         1 UNK         0.2931 
    111 H111       20.3261  -33.6529  -41.1291 H         1 UNK         0.0412 
    112 H112       23.3181  -34.2134  -39.3878 H         1 UNK         0.3472 
    113 H113       22.6179  -35.2824  -38.1982 H         1 UNK         0.3472 
    114 H114       21.2616  -31.4051  -39.2929 H         1 UNK         0.0970 
    115 H115       19.6759  -32.1208  -39.2404 H         1 UNK         0.0970 
    116 H116       17.6727  -30.8048  -40.3521 H         1 UNK         0.0612 
    117 H117       18.7111  -29.8764  -39.2960 H         1 UNK         0.0612 
@<TRIPOS>BOND
     1    1    2 1    
     2    1   62 1    
     3    1   63 1    
     4    1   64 1    
     5    2    3 2    
     6    2    4 am   BACKBONE|DICT|INTERRES
     7    4    5 1    
     8    4   65 1    
     9    5    6 1    
    10    5   25 1    
    11    5   66 1    
    12    6    7 1    
    13    6   67 1    
    14    6   68 1    
    15    7    8 1    
    16    8    9 1    
    17    8   69 1    
    18    8   70 1    
    19    9   10 ar   
    20    9   14 ar   
    21   10   11 ar   
    22   10   71 1    
    23   11   12 ar   
    24   11   61 1    
    25   12   13 ar   
    26   12   72 1    
    27   13   14 ar   
    28   13   15 1    
    29   14   73 1    
    30   15   16 1    
    31   15   74 1    
    32   15   75 1    
    33   16   17 1    
    34   17   18 1    
    35   17   76 1    
    36   17   77 1    
    37   18   19 1    
    38   18   27 1    
    39   18   78 1    
    40   19   20 am   BACKBONE|DICT|INTERRES
    41   19   79 1    
    42   20   21 2    
    43   20   22 1    
    44   22   23 1    
    45   22   24 1    
    46   22   80 1    
    47   23   81 1    
    48   23   82 1    
    49   23   83 1    
    50   24   25 am   BACKBONE|DICT|INTERRES
    51   24   84 1    
    52   25   26 2    
    53   27   28 2    
    54   27   29 am   BACKBONE|DICT|INTERRES
    55   29   30 1    
    56   29   85 1    
    57   30   31 1    
    58   30   32 1    
    59   30   86 1    
    60   31   87 1    
    61   31   88 1    
    62   31   89 1    
    63   32   33 2    
    64   32   34 am   BACKBONE|DICT|INTERRES
    65   34   35 1    
    66   34   90 1    
    67   35   36 1    
    68   35   37 1    
    69   35   91 1    
    70   36   92 1    
    71   36   93 1    
    72   36   94 1    
    73   37   38 2    
    74   37   39 am   BACKBONE|DICT|INTERRES
    75   39   40 1    
    76   39   95 1    
    77   40   41 1    
    78   40   42 1    
    79   40   96 1    
    80   41   97 1    
    81   41   98 1    
    82   41   99 1    
    83   42   43 2    
    84   42   44 am   BACKBONE|DICT|INTERRES
    85   44   45 1    
    86   44  100 1    
    87   45   46 1    
    88   45   47 1    
    89   45  101 1    
    90   46  102 1    
    91   46  103 1    
    92   46  104 1    
    93   47   48 2    
    94   47   49 am   BACKBONE|DICT|INTERRES
    95   49   50 1    
    96   49  105 1    
    97   50   51 1    
    98   50   52 1    
    99   50  106 1    
   100   51  107 1    
   101   51  108 1    
   102   51  109 1    
   103   52   53 2    
   104   52   54 am   BACKBONE|DICT|INTERRES
   105   54   55 1    
   106   54  110 1    
   107   55   56 1    
   108   55   59 1    
   109   55  111 1    
   110   56   57 am   BACKBONE|DICT|INTERRES
   111   56   58 2    
   112   57  112 1    
   113   57  113 1    
   114   59   60 1    
   115   59  114 1    
   116   59  115 1    
   117   60   61 1    
   118   61  116 1    
   119   61  117 1    
@<TRIPOS>SUBSTRUCTURE
     1 UNK         1 GROUP             0       ****    0 ROOT    
