@<TRIPOS>MOLECULE
3R8
117   119    1
SMALL
USER_CHARGES


@<TRIPOS>ATOM
      1 CA         15.4110  -24.2872  -40.9264 C.3       0 UNK        -0.2013 
      2 C          15.4456  -25.1396  -42.1862 C.2       0 UNK         0.4866 
      3 O          14.4472  -25.7763  -42.5232 O.2       0 UNK        -0.5176 
      4 N          16.5845  -25.1553  -42.8848 N.am      1 UNK        -0.4884 
      5 CA         16.8080  -25.8775  -44.1353 C.3       1 UNK         0.0853 
      6 C6         17.0771  -27.3844  -43.8955 C.3       10 UNK        -0.0849 
      7 S7         16.7675  -28.4079  -45.3770 S.3       10 UNK        -0.2776 
      8 C8         17.0497  -30.0875  -44.7234 C.3       10 UNK         0.0316 
      9 C9         18.4336  -30.2145  -44.1058 C.ar      10 UNK        -0.0863 
     10 C10        18.5858  -30.2173  -42.7166 C.ar      10 UNK        -0.1009 
     11 C11        19.8598  -30.2323  -42.1439 C.ar      10 UNK        -0.0712 
     12 C12        20.9869  -30.2537  -42.9717 C.ar      10 UNK        -0.0894 
     13 C13        20.8455  -30.2765  -44.3634 C.ar      10 UNK        -0.0745 
     14 C14        19.5649  -30.2696  -44.9235 C.ar      10 UNK        -0.0972 
     15 C15        22.0717  -30.2894  -45.2662 C.3       10 UNK         0.0209 
     16 S16        22.1720  -28.8055  -46.3173 S.3       10 UNK        -0.2568 
     17 C17        22.4925  -27.5170  -45.0696 C.3       10 UNK        -0.0983 
     18 CA         22.2623  -26.0925  -45.6280 C.3       3 UNK         0.0876 
     19 N          20.8804  -25.8898  -46.0787 N.am      3 UNK        -0.4424 
     20 C          20.4677  -24.8487  -46.8139 C.2       2 UNK         0.4918 
     21 O          21.2204  -23.9697  -47.2351 O.2       2 UNK        -0.4875 
     22 CA         18.9647  -24.7557  -47.1377 C.3       2 UNK         0.0481 
     23 CB         18.6951  -25.2984  -48.5504 C.3       2 UNK        -0.1831 
     24 N          18.0609  -25.4214  -46.1907 N.am      2 UNK        -0.4498 
     25 C          17.9635  -25.1785  -44.8762 C.2       1 UNK         0.5027 
     26 O          18.7374  -24.4464  -44.2500 O.2       1 UNK        -0.4969 
     27 C          22.7064  -25.0434  -44.5872 C.2       3 UNK         0.5005 
     28 O          23.8944  -24.7209  -44.5375 O.2       3 UNK        -0.5279 
     29 N          21.7573  -24.5475  -43.7728 N.am      4 UNK        -0.4463 
     30 CA         21.9359  -23.5802  -42.6789 C.3       4 UNK         0.0283 
     31 CB         22.2930  -22.1893  -43.2439 C.3       4 UNK        -0.1875 
     32 C          22.9174  -24.0375  -41.5752 C.2       4 UNK         0.4949 
     33 O          23.4726  -23.1981  -40.8644 O.2       4 UNK        -0.5039 
     34 N          23.1096  -25.3542  -41.4415 N.am      5 UNK        -0.4663 
     35 CA         24.0225  -26.0143  -40.5135 C.3       5 UNK         0.0242 
     36 CB         25.4765  -25.8610  -41.0025 C.3       5 UNK        -0.1982 
     37 C          23.6307  -27.4943  -40.4249 C.2       5 UNK         0.5017 
     38 O          22.9119  -27.9865  -41.2993 O.2       5 UNK        -0.5012 
     39 N          24.1121  -28.1732  -39.3763 N.am      6 UNK        -0.4439 
     40 CA         23.8947  -29.6020  -39.1422 C.3       6 UNK         0.0297 
     41 CB         24.3168  -29.9504  -37.7056 C.3       6 UNK        -0.2006 
     42 C          24.6541  -30.4790  -40.1531 C.2       6 UNK         0.4892 
     43 O          25.7599  -30.1223  -40.5674 O.2       6 UNK        -0.5089 
     44 N          24.0582  -31.6255  -40.4920 N.am      7 UNK        -0.4243 
     45 CA         24.6032  -32.6431  -41.3872 C.3       7 UNK         0.0196 
     46 CB         24.4479  -32.2019  -42.8605 C.3       7 UNK        -0.2007 
     47 C          23.9226  -33.9810  -41.0554 C.2       7 UNK         0.5020 
     48 O          23.8019  -34.3201  -39.8764 O.2       7 UNK        -0.5147 
     49 N          23.4466  -34.7016  -42.0820 N.am      8 UNK        -0.4734 
     50 CA         22.7263  -35.9811  -41.9842 C.3       8 UNK         0.0238 
     51 CB         22.4866  -36.5270  -43.4018 C.3       8 UNK        -0.1912 
     52 C          21.3996  -35.9212  -41.1987 C.2       8 UNK         0.5038 
     53 O          20.8905  -36.9684  -40.7972 O.2       8 UNK        -0.5046 
     54 N          20.8822  -34.7067  -40.9785 N.am      9 UNK        -0.4200 
     55 CA         19.7880  -34.3844  -40.0534 C.3       9 UNK         0.0839 
     56 C          20.0697  -34.7217  -38.5571 C.2       9 UNK         0.5513 
     57 N          21.3194  -34.8785  -38.1321 N.am      9 UNK        -0.7519 
     58 O          19.1326  -34.8483  -37.7731 O.2       9 UNK        -0.4960 
     59 C59        19.3416  -32.9077  -40.2251 C.3       10 UNK        -0.0876 
     60 S60        20.7053  -31.7187  -39.9528 S.3       10 UNK        -0.2414 
     61 C61        20.0154  -30.1799  -40.6315 C.3       10 UNK         0.0169 
     62 H62        16.3612  -23.7836  -40.7486 H         1 UNK         0.0903 
     63 H63        14.6346  -23.5271  -41.0087 H         1 UNK         0.0903 
     64 H64        15.1894  -24.9085  -40.0591 H         1 UNK         0.0903 
     65 H65        17.3720  -24.5785  -42.6109 H         1 UNK         0.3096 
     66 H66        15.9095  -25.7620  -44.7466 H         1 UNK         0.1121 
     67 H67        16.4243  -27.7627  -43.1073 H         1 UNK         0.0849 
     68 H68        18.0970  -27.5393  -43.5384 H         1 UNK         0.0849 
     69 H69        16.2746  -30.3256  -43.9931 H         1 UNK         0.0865 
     70 H70        16.9411  -30.8111  -45.5326 H         1 UNK         0.0865 
     71 H71        17.7122  -30.1717  -42.0808 H         1 UNK         0.1346 
     72 H72        21.9723  -30.2396  -42.5259 H         1 UNK         0.1412 
     73 H73        19.4504  -30.2617  -45.9991 H         1 UNK         0.1426 
     74 H74        22.0365  -31.1746  -45.9025 H         1 UNK         0.0716 
     75 H75        22.9894  -30.3626  -44.6821 H         1 UNK         0.0716 
     76 H76        21.8571  -27.6891  -44.1987 H         1 UNK         0.0695 
     77 H77        23.5222  -27.6379  -44.7262 H         1 UNK         0.0695 
     78 H78        22.9117  -25.9635  -46.4971 H         1 UNK         0.0983 
     79 H79        20.2074  -26.5905  -45.8054 H         1 UNK         0.3095 
     80 H80        18.7051  -23.6953  -47.1291 H         1 UNK         0.0454 
     81 H81        19.3291  -24.8041  -49.2880 H         1 UNK         0.0851 
     82 H82        18.8943  -26.3689  -48.6155 H         1 UNK         0.0851 
     83 H83        17.6615  -25.1289  -48.8525 H         1 UNK         0.0851 
     84 H84        17.4112  -26.0840  -46.5924 H         1 UNK         0.2976 
     85 H85        20.7976  -24.8351  -43.9343 H         1 UNK         0.3116 
     86 H86        20.9618  -23.4964  -42.1949 H         1 UNK         0.0646 
     87 H87        22.2811  -21.4311  -42.4600 H         1 UNK         0.0847 
     88 H88        21.5789  -21.8760  -44.0054 H         1 UNK         0.0847 
     89 H89        23.2873  -22.1786  -43.6912 H         1 UNK         0.0847 
     90 H90        22.5878  -25.9972  -42.0247 H         1 UNK         0.3040 
     91 H91        23.9111  -25.5636  -39.5249 H         1 UNK         0.1015 
     92 H92        25.7787  -24.8143  -41.0384 H         1 UNK         0.0786 
     93 H93        25.6073  -26.2797  -42.0014 H         1 UNK         0.0786 
     94 H94        26.1743  -26.3736  -40.3393 H         1 UNK         0.0786 
     95 H95        24.7299  -27.7005  -38.7327 H         1 UNK         0.3172 
     96 H96        22.8259  -29.7955  -39.2407 H         1 UNK         0.0595 
     97 H97        24.1319  -31.0037  -37.4895 H         1 UNK         0.0839 
     98 H98        23.7559  -29.3691  -36.9735 H         1 UNK         0.0839 
     99 H99        25.3793  -29.7665  -37.5406 H         1 UNK         0.0839 
    100 H100       23.1762  -31.8655  -40.0556 H         1 UNK         0.2998 
    101 H101       25.6657  -32.7679  -41.1679 H         1 UNK         0.0822 
    102 H102       24.8985  -31.2242  -43.0326 H         1 UNK         0.0787 
    103 H103       24.9444  -32.8977  -43.5380 H         1 UNK         0.0787 
    104 H104       23.3997  -32.1377  -43.1522 H         1 UNK         0.0787 
    105 H105       23.5855  -34.3391  -43.0147 H         1 UNK         0.3055 
    106 H106       23.3731  -36.6809  -41.4503 H         1 UNK         0.1106 
    107 H107       21.8619  -35.8558  -43.9926 H         1 UNK         0.0828 
    108 H108       23.4252  -36.6730  -43.9366 H         1 UNK         0.0828 
    109 H109       21.9834  -37.4946  -43.3689 H         1 UNK         0.0828 
    110 H110       21.3773  -33.9117  -41.3520 H         1 UNK         0.2931 
    111 H111       18.9445  -35.0121  -40.3468 H         1 UNK         0.0412 
    112 H112       21.4870  -35.0994  -37.1635 H         1 UNK         0.3472 
    113 H113       22.1018  -34.7482  -38.7632 H         1 UNK         0.3472 
    114 H114       18.5179  -32.6674  -39.5501 H         1 UNK         0.0970 
    115 H115       18.9485  -32.7679  -41.2329 H         1 UNK         0.0970 
    116 H116       20.6764  -29.3520  -40.3728 H         1 UNK         0.0612 
    117 H117       19.0615  -29.9719  -40.1444 H         1 UNK         0.0612 
@<TRIPOS>BOND
     1    1    2 1    
     2    1   62 1    
     3    1   63 1    
     4    1   64 1    
     5    2    3 2    
     6    2    4 am   BACKBONE|DICT|INTERRES
     7    4    5 1    
     8    4   65 1    
     9    5    6 1    
    10    5   25 1    
    11    5   66 1    
    12    6    7 1    
    13    6   67 1    
    14    6   68 1    
    15    7    8 1    
    16    8    9 1    
    17    8   69 1    
    18    8   70 1    
    19    9   10 ar   
    20    9   14 ar   
    21   10   11 ar   
    22   10   71 1    
    23   11   12 ar   
    24   11   61 1    
    25   12   13 ar   
    26   12   72 1    
    27   13   14 ar   
    28   13   15 1    
    29   14   73 1    
    30   15   16 1    
    31   15   74 1    
    32   15   75 1    
    33   16   17 1    
    34   17   18 1    
    35   17   76 1    
    36   17   77 1    
    37   18   19 1    
    38   18   27 1    
    39   18   78 1    
    40   19   20 am   BACKBONE|DICT|INTERRES
    41   19   79 1    
    42   20   21 2    
    43   20   22 1    
    44   22   23 1    
    45   22   24 1    
    46   22   80 1    
    47   23   81 1    
    48   23   82 1    
    49   23   83 1    
    50   24   25 am   BACKBONE|DICT|INTERRES
    51   24   84 1    
    52   25   26 2    
    53   27   28 2    
    54   27   29 am   BACKBONE|DICT|INTERRES
    55   29   30 1    
    56   29   85 1    
    57   30   31 1    
    58   30   32 1    
    59   30   86 1    
    60   31   87 1    
    61   31   88 1    
    62   31   89 1    
    63   32   33 2    
    64   32   34 am   BACKBONE|DICT|INTERRES
    65   34   35 1    
    66   34   90 1    
    67   35   36 1    
    68   35   37 1    
    69   35   91 1    
    70   36   92 1    
    71   36   93 1    
    72   36   94 1    
    73   37   38 2    
    74   37   39 am   BACKBONE|DICT|INTERRES
    75   39   40 1    
    76   39   95 1    
    77   40   41 1    
    78   40   42 1    
    79   40   96 1    
    80   41   97 1    
    81   41   98 1    
    82   41   99 1    
    83   42   43 2    
    84   42   44 am   BACKBONE|DICT|INTERRES
    85   44   45 1    
    86   44  100 1    
    87   45   46 1    
    88   45   47 1    
    89   45  101 1    
    90   46  102 1    
    91   46  103 1    
    92   46  104 1    
    93   47   48 2    
    94   47   49 am   BACKBONE|DICT|INTERRES
    95   49   50 1    
    96   49  105 1    
    97   50   51 1    
    98   50   52 1    
    99   50  106 1    
   100   51  107 1    
   101   51  108 1    
   102   51  109 1    
   103   52   53 2    
   104   52   54 am   BACKBONE|DICT|INTERRES
   105   54   55 1    
   106   54  110 1    
   107   55   56 1    
   108   55   59 1    
   109   55  111 1    
   110   56   57 am   BACKBONE|DICT|INTERRES
   111   56   58 2    
   112   57  112 1    
   113   57  113 1    
   114   59   60 1    
   115   59  114 1    
   116   59  115 1    
   117   60   61 1    
   118   61  116 1    
   119   61  117 1    
@<TRIPOS>SUBSTRUCTURE
     1 UNK         1 GROUP             0       ****    0 ROOT    
