@<TRIPOS>MOLECULE
3R8
117   119    1
SMALL
USER_CHARGES


@<TRIPOS>ATOM
      1 CA         17.4648  -24.1533  -49.6353 C.3       0 UNK        -0.2013 
      2 C          17.9420  -24.8523  -48.3704 C.2       0 UNK         0.4866 
      3 O          18.2642  -24.1768  -47.3925 O.2       0 UNK        -0.5176 
      4 N          17.9780  -26.1931  -48.3948 N.am      1 UNK        -0.4884 
      5 CA         18.4244  -27.1056  -47.3294 C.3       1 UNK         0.0853 
      6 C6         17.6279  -26.9580  -45.9990 C.3       10 UNK        -0.0849 
      7 S7         15.9291  -27.6065  -46.1187 S.3       10 UNK        -0.2776 
      8 C8         16.1084  -29.2424  -45.3107 C.3       10 UNK         0.0316 
      9 C9         16.4138  -29.2434  -43.8065 C.ar      10 UNK        -0.0863 
     10 C10        16.6020  -30.4779  -43.1729 C.ar      10 UNK        -0.1009 
     11 C11        16.8570  -30.5503  -41.7998 C.ar      10 UNK        -0.0712 
     12 C12        16.9428  -29.3723  -41.0542 C.ar      10 UNK        -0.0894 
     13 C13        16.7852  -28.1293  -41.6722 C.ar      10 UNK        -0.0745 
     14 C14        16.5020  -28.0725  -43.0392 C.ar      10 UNK        -0.0972 
     15 C15        16.9188  -26.8454  -40.8648 C.3       10 UNK         0.0209 
     16 S16        18.5942  -26.6355  -40.1786 S.3       10 UNK        -0.2568 
     17 C17        19.6357  -26.5033  -41.6778 C.3       10 UNK        -0.0983 
     18 CA         20.2689  -27.8364  -42.1673 C.3       3 UNK         0.0876 
     19 N          20.8586  -27.6479  -43.5030 N.am      3 UNK        -0.4424 
     20 C          21.5694  -28.5229  -44.2331 C.2       2 UNK         0.4918 
     21 O          21.9823  -29.6039  -43.8222 O.2       2 UNK        -0.4875 
     22 CA         21.7432  -28.1554  -45.7159 C.3       2 UNK         0.0481 
     23 CB         22.5118  -29.2154  -46.5297 C.3       2 UNK        -0.1831 
     24 N          20.3996  -28.0270  -46.2675 N.am      2 UNK        -0.4498 
     25 C          19.9483  -27.0591  -47.0716 C.2       1 UNK         0.5027 
     26 O          20.6679  -26.1925  -47.5737 O.2       1 UNK        -0.4969 
     27 C          21.2203  -28.4546  -41.1162 C.2       3 UNK         0.5005 
     28 O          22.4374  -28.2854  -41.2056 O.2       3 UNK        -0.5279 
     29 N          20.6276  -29.1423  -40.1280 N.am      4 UNK        -0.4463 
     30 CA         21.2505  -29.9134  -39.0451 C.3       4 UNK         0.0283 
     31 CB         20.1967  -30.2146  -37.9656 C.3       4 UNK        -0.1875 
     32 C          22.4875  -29.2735  -38.3961 C.2       4 UNK         0.4949 
     33 O          23.5110  -29.9416  -38.2526 O.2       4 UNK        -0.5039 
     34 N          22.3720  -27.9881  -38.0413 N.am      5 UNK        -0.4663 
     35 CA         23.4323  -27.2058  -37.4021 C.3       5 UNK         0.0242 
     36 CB         22.8053  -25.9545  -36.7651 C.3       5 UNK        -0.1982 
     37 C          24.5787  -26.8064  -38.3499 C.2       5 UNK         0.5017 
     38 O          25.6519  -26.4507  -37.8611 O.2       5 UNK        -0.5012 
     39 N          24.3360  -26.8433  -39.6664 N.am      6 UNK        -0.4439 
     40 CA         25.2875  -26.4487  -40.7020 C.3       6 UNK         0.0297 
     41 CB         24.5646  -25.6011  -41.7640 C.3       6 UNK        -0.2006 
     42 C          25.9551  -27.6678  -41.3513 C.2       6 UNK         0.4892 
     43 O          27.1783  -27.6683  -41.4971 O.2       6 UNK        -0.5089 
     44 N          25.1549  -28.6652  -41.7538 N.am      7 UNK        -0.4243 
     45 CA         25.6040  -29.7861  -42.5830 C.3       7 UNK         0.0196 
     46 CB         25.7062  -29.3296  -44.0523 C.3       7 UNK        -0.2007 
     47 C          24.7532  -31.0548  -42.3969 C.2       7 UNK         0.5020 
     48 O          24.6093  -31.8343  -43.3404 O.2       7 UNK        -0.5147 
     49 N          24.2373  -31.2729  -41.1773 N.am      8 UNK        -0.4734 
     50 CA         23.6047  -32.5188  -40.7086 C.3       8 UNK         0.0238 
     51 CB         24.6651  -33.6363  -40.5956 C.3       8 UNK        -0.1912 
     52 C          22.3632  -32.9735  -41.5107 C.2       8 UNK         0.5038 
     53 O          22.0928  -34.1744  -41.5696 O.2       8 UNK        -0.5046 
     54 N          21.6370  -32.0177  -42.1067 N.am      9 UNK        -0.4200 
     55 CA         20.4786  -32.2236  -42.9980 C.3       9 UNK         0.0839 
     56 C          20.8603  -32.7685  -44.4088 C.2       9 UNK         0.5513 
     57 N          22.1276  -32.7714  -44.8069 N.am      9 UNK        -0.7519 
     58 O          19.9877  -33.1749  -45.1722 O.2       9 UNK        -0.4960 
     59 C59        19.3013  -33.0138  -42.3542 C.3       10 UNK        -0.0876 
     60 S60        18.7409  -32.3130  -40.7650 S.3       10 UNK        -0.2414 
     61 C61        17.0021  -31.8964  -41.1051 C.3       10 UNK         0.0169 
     62 H62        17.1994  -24.8616  -50.4200 H         1 UNK         0.0903 
     63 H63        16.5875  -23.5442  -49.4187 H         1 UNK         0.0903 
     64 H64        18.2472  -23.4995  -50.0197 H         1 UNK         0.0903 
     65 H65        17.7082  -26.6583  -49.2506 H         1 UNK         0.3096 
     66 H66        18.2382  -28.1078  -47.7202 H         1 UNK         0.1121 
     67 H67        18.1204  -27.4747  -45.1757 H         1 UNK         0.0849 
     68 H68        17.5774  -25.9175  -45.6781 H         1 UNK         0.0849 
     69 H69        15.1798  -29.7929  -45.4688 H         1 UNK         0.0865 
     70 H70        16.8853  -29.8033  -45.8324 H         1 UNK         0.0865 
     71 H71        16.5305  -31.3906  -43.7492 H         1 UNK         0.1346 
     72 H72        17.1377  -29.4225  -39.9914 H         1 UNK         0.1412 
     73 H73        16.3546  -27.1044  -43.4948 H         1 UNK         0.1426 
     74 H74        16.2017  -26.8666  -40.0431 H         1 UNK         0.0716 
     75 H75        16.6683  -25.9712  -41.4678 H         1 UNK         0.0716 
     76 H76        19.0230  -26.0688  -42.4696 H         1 UNK         0.0695 
     77 H77        20.4199  -25.7707  -41.4774 H         1 UNK         0.0695 
     78 H78        19.4676  -28.5609  -42.3205 H         1 UNK         0.0983 
     79 H79        20.6127  -26.7803  -43.9547 H         1 UNK         0.3095 
     80 H80        22.2776  -27.2045  -45.7665 H         1 UNK         0.0454 
     81 H81        22.0293  -30.1923  -46.4773 H         1 UNK         0.0851 
     82 H82        22.5783  -28.9334  -47.5804 H         1 UNK         0.0851 
     83 H83        23.5301  -29.3395  -46.1677 H         1 UNK         0.0851 
     84 H84        19.7389  -28.7067  -45.9165 H         1 UNK         0.2976 
     85 H85        19.6181  -29.1700  -40.1410 H         1 UNK         0.3116 
     86 H86        21.5555  -30.8626  -39.4791 H         1 UNK         0.0646 
     87 H87        20.6247  -30.8076  -37.1560 H         1 UNK         0.0847 
     88 H88        19.3579  -30.7824  -38.3654 H         1 UNK         0.0847 
     89 H89        19.7966  -29.3014  -37.5234 H         1 UNK         0.0847 
     90 H90        21.4970  -27.5162  -38.2209 H         1 UNK         0.3040 
     91 H91        23.8716  -27.8116  -36.6060 H         1 UNK         0.1015 
     92 H92        22.0462  -26.2209  -36.0294 H         1 UNK         0.0786 
     93 H93        22.3393  -25.3113  -37.5129 H         1 UNK         0.0786 
     94 H94        23.5592  -25.3591  -36.2477 H         1 UNK         0.0786 
     95 H95        23.4559  -27.2337  -39.9924 H         1 UNK         0.3172 
     96 H96        26.0754  -25.8282  -40.2696 H         1 UNK         0.0595 
     97 H97        24.1398  -24.6980  -41.3257 H         1 UNK         0.0839 
     98 H98        23.7549  -26.1499  -42.2465 H         1 UNK         0.0839 
     99 H99        25.2556  -25.2865  -42.5472 H         1 UNK         0.0839 
    100 H100       24.1484  -28.5856  -41.6021 H         1 UNK         0.2998 
    101 H101       26.6045  -30.0792  -42.2580 H         1 UNK         0.0822 
    102 H102       26.4776  -28.5701  -44.1782 H         1 UNK         0.0787 
    103 H103       25.9591  -30.1529  -44.7214 H         1 UNK         0.0787 
    104 H104       24.7639  -28.9005  -44.3865 H         1 UNK         0.0787 
    105 H105       24.3818  -30.5663  -40.4664 H         1 UNK         0.3055 
    106 H106       23.2522  -32.3242  -39.6958 H         1 UNK         0.1106 
    107 H107       25.0298  -33.9474  -41.5752 H         1 UNK         0.0828 
    108 H108       25.5222  -33.3130  -40.0050 H         1 UNK         0.0828 
    109 H109       24.2556  -34.5208  -40.1060 H         1 UNK         0.0828 
    110 H110       21.9940  -31.0710  -42.0954 H         1 UNK         0.2931 
    111 H111       20.0908  -31.2232  -43.1887 H         1 UNK         0.0412 
    112 H112       22.3565  -33.1202  -45.7233 H         1 UNK         0.3472 
    113 H113       22.8606  -32.4022  -44.2096 H         1 UNK         0.3472 
    114 H114       19.5794  -34.0555  -42.1902 H         1 UNK         0.0970 
    115 H115       18.4544  -33.0444  -43.0411 H         1 UNK         0.0970 
    116 H116       16.5340  -32.6915  -41.6874 H         1 UNK         0.0612 
    117 H117       16.4649  -31.8661  -40.1560 H         1 UNK         0.0612 
@<TRIPOS>BOND
     1    1    2 1    
     2    1   62 1    
     3    1   63 1    
     4    1   64 1    
     5    2    3 2    
     6    2    4 am   BACKBONE|DICT|INTERRES
     7    4    5 1    
     8    4   65 1    
     9    5    6 1    
    10    5   25 1    
    11    5   66 1    
    12    6    7 1    
    13    6   67 1    
    14    6   68 1    
    15    7    8 1    
    16    8    9 1    
    17    8   69 1    
    18    8   70 1    
    19    9   10 ar   
    20    9   14 ar   
    21   10   11 ar   
    22   10   71 1    
    23   11   12 ar   
    24   11   61 1    
    25   12   13 ar   
    26   12   72 1    
    27   13   14 ar   
    28   13   15 1    
    29   14   73 1    
    30   15   16 1    
    31   15   74 1    
    32   15   75 1    
    33   16   17 1    
    34   17   18 1    
    35   17   76 1    
    36   17   77 1    
    37   18   19 1    
    38   18   27 1    
    39   18   78 1    
    40   19   20 am   BACKBONE|DICT|INTERRES
    41   19   79 1    
    42   20   21 2    
    43   20   22 1    
    44   22   23 1    
    45   22   24 1    
    46   22   80 1    
    47   23   81 1    
    48   23   82 1    
    49   23   83 1    
    50   24   25 am   BACKBONE|DICT|INTERRES
    51   24   84 1    
    52   25   26 2    
    53   27   28 2    
    54   27   29 am   BACKBONE|DICT|INTERRES
    55   29   30 1    
    56   29   85 1    
    57   30   31 1    
    58   30   32 1    
    59   30   86 1    
    60   31   87 1    
    61   31   88 1    
    62   31   89 1    
    63   32   33 2    
    64   32   34 am   BACKBONE|DICT|INTERRES
    65   34   35 1    
    66   34   90 1    
    67   35   36 1    
    68   35   37 1    
    69   35   91 1    
    70   36   92 1    
    71   36   93 1    
    72   36   94 1    
    73   37   38 2    
    74   37   39 am   BACKBONE|DICT|INTERRES
    75   39   40 1    
    76   39   95 1    
    77   40   41 1    
    78   40   42 1    
    79   40   96 1    
    80   41   97 1    
    81   41   98 1    
    82   41   99 1    
    83   42   43 2    
    84   42   44 am   BACKBONE|DICT|INTERRES
    85   44   45 1    
    86   44  100 1    
    87   45   46 1    
    88   45   47 1    
    89   45  101 1    
    90   46  102 1    
    91   46  103 1    
    92   46  104 1    
    93   47   48 2    
    94   47   49 am   BACKBONE|DICT|INTERRES
    95   49   50 1    
    96   49  105 1    
    97   50   51 1    
    98   50   52 1    
    99   50  106 1    
   100   51  107 1    
   101   51  108 1    
   102   51  109 1    
   103   52   53 2    
   104   52   54 am   BACKBONE|DICT|INTERRES
   105   54   55 1    
   106   54  110 1    
   107   55   56 1    
   108   55   59 1    
   109   55  111 1    
   110   56   57 am   BACKBONE|DICT|INTERRES
   111   56   58 2    
   112   57  112 1    
   113   57  113 1    
   114   59   60 1    
   115   59  114 1    
   116   59  115 1    
   117   60   61 1    
   118   61  116 1    
   119   61  117 1    
@<TRIPOS>SUBSTRUCTURE
     1 UNK         1 GROUP             0       ****    0 ROOT    
