@<TRIPOS>MOLECULE
3R8
117   119    1
SMALL
USER_CHARGES


@<TRIPOS>ATOM
      1 CA         21.9600  -27.4545  -47.7550 C.3       0 UNK        -0.2013 
      2 C          20.9560  -26.8432  -46.7893 C.2       0 UNK         0.4866 
      3 O          21.3316  -26.4725  -45.6796 O.2       0 UNK        -0.5176 
      4 N          19.6852  -26.7530  -47.2030 N.am      1 UNK        -0.4884 
      5 CA         18.5700  -26.1703  -46.4413 C.3       1 UNK         0.0853 
      6 C6         17.2206  -26.5228  -47.1329 C.3       10 UNK        -0.0849 
      7 S7         15.9405  -27.1284  -45.9846 S.3       10 UNK        -0.2776 
      8 C8         16.2253  -28.9279  -45.9993 C.3       10 UNK         0.0316 
      9 C9         17.1680  -29.3522  -44.8830 C.ar      10 UNK        -0.0863 
     10 C10        18.5413  -29.4775  -45.1150 C.ar      10 UNK        -0.1009 
     11 C11        19.4009  -29.8726  -44.0854 C.ar      10 UNK        -0.0712 
     12 C12        18.8744  -30.1652  -42.8247 C.ar      10 UNK        -0.0894 
     13 C13        17.5039  -30.0440  -42.5798 C.ar      10 UNK        -0.0745 
     14 C14        16.6566  -29.6333  -43.6125 C.ar      10 UNK        -0.0972 
     15 C15        16.9373  -30.3631  -41.2026 C.3       10 UNK         0.0209 
     16 S16        17.6762  -29.3404  -39.8885 S.3       10 UNK        -0.2568 
     17 C17        17.1926  -27.6538  -40.3950 C.3       10 UNK        -0.0983 
     18 CA         18.3373  -26.8797  -41.1087 C.3       3 UNK         0.0876 
     19 N          17.7847  -25.9246  -42.0837 N.am      3 UNK        -0.4424 
     20 C          18.4304  -25.3250  -43.0928 C.2       2 UNK         0.4918 
     21 O          19.6438  -25.4192  -43.2762 O.2       2 UNK        -0.4875 
     22 CA         17.5729  -24.4526  -44.0269 C.3       2 UNK         0.0481 
     23 CB         17.0411  -23.2248  -43.2657 C.3       2 UNK        -0.1831 
     24 N          18.2890  -23.9698  -45.2137 N.am      2 UNK        -0.4498 
     25 C          18.7605  -24.6365  -46.2808 C.2       1 UNK         0.5027 
     26 O          19.3223  -24.0210  -47.1896 O.2       1 UNK        -0.4969 
     27 C          19.3945  -26.2970  -40.1274 C.2       3 UNK         0.5005 
     28 O          19.4724  -26.7209  -38.9734 O.2       3 UNK        -0.5279 
     29 N          20.2197  -25.3546  -40.5978 N.am      4 UNK        -0.4463 
     30 CA         21.4324  -24.8831  -39.9285 C.3       4 UNK         0.0283 
     31 CB         21.7964  -23.4872  -40.4579 C.3       4 UNK        -0.1875 
     32 C          22.5981  -25.8635  -40.1440 C.2       4 UNK         0.4949 
     33 O          23.4339  -26.0179  -39.2549 O.2       4 UNK        -0.5039 
     34 N          22.6136  -26.5391  -41.3028 N.am      5 UNK        -0.4663 
     35 CA         23.6065  -27.5442  -41.6937 C.3       5 UNK         0.0242 
     36 CB         23.8360  -27.4468  -43.2130 C.3       5 UNK        -0.1982 
     37 C          23.2032  -28.9684  -41.2634 C.2       5 UNK         0.5017 
     38 O          23.5633  -29.9345  -41.9384 O.2       5 UNK        -0.5012 
     39 N          22.4653  -29.0922  -40.1504 N.am      6 UNK        -0.4439 
     40 CA         21.9423  -30.3498  -39.6016 C.3       6 UNK         0.0297 
     41 CB         21.1551  -30.0533  -38.3163 C.3       6 UNK        -0.2006 
     42 C          23.0138  -31.4223  -39.3338 C.2       6 UNK         0.4892 
     43 O          22.7297  -32.6087  -39.4909 O.2       6 UNK        -0.5089 
     44 N          24.2316  -30.9885  -38.9804 N.am      7 UNK        -0.4243 
     45 CA         25.4034  -31.8482  -38.7992 C.3       7 UNK         0.0196 
     46 CB         26.5243  -31.0347  -38.1321 C.3       7 UNK        -0.2007 
     47 C          25.9107  -32.4908  -40.1049 C.2       7 UNK         0.5020 
     48 O          26.5404  -33.5469  -40.0401 O.2       7 UNK        -0.5147 
     49 N          25.6440  -31.8564  -41.2558 N.am      8 UNK        -0.4734 
     50 CA         25.9948  -32.3741  -42.5787 C.3       8 UNK         0.0238 
     51 CB         26.2829  -31.2078  -43.5395 C.3       8 UNK        -0.1912 
     52 C          24.8845  -33.2776  -43.1323 C.2       8 UNK         0.5038 
     53 O          25.1926  -34.3513  -43.6519 O.2       8 UNK        -0.5046 
     54 N          23.6243  -32.8341  -43.0154 N.am      9 UNK        -0.4200 
     55 CA         22.4465  -33.5944  -43.4682 C.3       9 UNK         0.0839 
     56 C          22.1047  -34.8287  -42.5873 C.2       9 UNK         0.5513 
     57 N          22.4097  -34.8332  -41.2964 N.am      9 UNK        -0.7519 
     58 O          21.5576  -35.8062  -43.0911 O.2       9 UNK        -0.4960 
     59 C59        21.2022  -32.6926  -43.6625 C.3       10 UNK        -0.0876 
     60 S60        21.4055  -31.5345  -45.0588 S.3       10 UNK        -0.2414 
     61 C61        20.9009  -29.9519  -44.3229 C.3       10 UNK         0.0169 
     62 H62        22.4166  -28.3383  -47.3096 H         1 UNK         0.0903 
     63 H63        21.4961  -27.7504  -48.6957 H         1 UNK         0.0903 
     64 H64        22.7503  -26.7378  -47.9766 H         1 UNK         0.0903 
     65 H65        19.4628  -27.0355  -48.1465 H         1 UNK         0.3096 
     66 H66        18.6085  -26.6394  -45.4595 H         1 UNK         0.1121 
     67 H67        17.3563  -27.2843  -47.9023 H         1 UNK         0.0849 
     68 H68        16.8086  -25.6680  -47.6737 H         1 UNK         0.0849 
     69 H69        15.2653  -29.4312  -45.8741 H         1 UNK         0.0865 
     70 H70        16.6043  -29.2542  -46.9688 H         1 UNK         0.0865 
     71 H71        18.9446  -29.2602  -46.0942 H         1 UNK         0.1346 
     72 H72        19.5308  -30.4676  -42.0215 H         1 UNK         0.1412 
     73 H73        15.5948  -29.5350  -43.4307 H         1 UNK         0.1426 
     74 H74        17.1270  -31.4136  -40.9783 H         1 UNK         0.0716 
     75 H75        15.8538  -30.2356  -41.1839 H         1 UNK         0.0716 
     76 H76        16.8345  -27.1083  -39.5200 H         1 UNK         0.0695 
     77 H77        16.3260  -27.7458  -41.0518 H         1 UNK         0.0695 
     78 H78        18.8934  -27.6016  -41.7093 H         1 UNK         0.0983 
     79 H79        16.7941  -25.7526  -41.9935 H         1 UNK         0.3095 
     80 H80        16.7172  -25.0389  -44.3541 H         1 UNK         0.0454 
     81 H81        17.8525  -22.6013  -42.8873 H         1 UNK         0.0851 
     82 H82        16.4291  -23.5140  -42.4106 H         1 UNK         0.0851 
     83 H83        16.4130  -22.6034  -43.9046 H         1 UNK         0.0851 
     84 H84        18.4818  -22.9796  -45.1993 H         1 UNK         0.2976 
     85 H85        20.1041  -25.0998  -41.5769 H         1 UNK         0.3116 
     86 H86        21.2452  -24.8058  -38.8553 H         1 UNK         0.0646 
     87 H87        20.9956  -22.7716  -40.2709 H         1 UNK         0.0847 
     88 H88        21.9926  -23.4980  -41.5310 H         1 UNK         0.0847 
     89 H89        22.6923  -23.1056  -39.9661 H         1 UNK         0.0847 
     90 H90        21.8772  -26.3603  -41.9722 H         1 UNK         0.3040 
     91 H91        24.5559  -27.3251  -41.2000 H         1 UNK         0.1015 
     92 H92        24.6259  -28.1247  -43.5390 H         1 UNK         0.0786 
     93 H93        24.1369  -26.4408  -43.5056 H         1 UNK         0.0786 
     94 H94        22.9358  -27.7005  -43.7733 H         1 UNK         0.0786 
     95 H95        22.2313  -28.2469  -39.6488 H         1 UNK         0.3172 
     96 H96        21.2503  -30.7599  -40.3392 H         1 UNK         0.0595 
     97 H97        21.7942  -29.6366  -37.5368 H         1 UNK         0.0839 
     98 H98        20.7030  -30.9624  -37.9173 H         1 UNK         0.0839 
     99 H99        20.3465  -29.3457  -38.4976 H         1 UNK         0.0839 
    100 H100       24.3722  -29.9945  -38.8737 H         1 UNK         0.2998 
    101 H101       25.1217  -32.6605  -38.1255 H         1 UNK         0.0822 
    102 H102       26.2087  -30.6404  -37.1659 H         1 UNK         0.0787 
    103 H103       27.4040  -31.6552  -37.9547 H         1 UNK         0.0787 
    104 H104       26.8383  -30.1947  -38.7532 H         1 UNK         0.0787 
    105 H105       25.0645  -31.0237  -41.2394 H         1 UNK         0.3055 
    106 H106       26.9052  -32.9736  -42.5030 H         1 UNK         0.1106 
    107 H107       25.4032  -30.5865  -43.7080 H         1 UNK         0.0828 
    108 H108       26.6056  -31.5796  -44.5128 H         1 UNK         0.0828 
    109 H109       27.0778  -30.5669  -43.1582 H         1 UNK         0.0828 
    110 H110       23.4583  -31.9254  -42.5994 H         1 UNK         0.2931 
    111 H111       22.6940  -34.0014  -44.4512 H         1 UNK         0.0412 
    112 H112       22.1864  -35.6468  -40.7461 H         1 UNK         0.3472 
    113 H113       22.7657  -34.0030  -40.8333 H         1 UNK         0.3472 
    114 H114       20.3131  -33.2908  -43.8725 H         1 UNK         0.0970 
    115 H115       20.9921  -32.1502  -42.7405 H         1 UNK         0.0970 
    116 H116       21.2096  -29.1467  -44.9880 H         1 UNK         0.0612 
    117 H117       21.4383  -29.7950  -43.3905 H         1 UNK         0.0612 
@<TRIPOS>BOND
     1    1    2 1    
     2    1   62 1    
     3    1   63 1    
     4    1   64 1    
     5    2    3 2    
     6    2    4 am   BACKBONE|DICT|INTERRES
     7    4    5 1    
     8    4   65 1    
     9    5    6 1    
    10    5   25 1    
    11    5   66 1    
    12    6    7 1    
    13    6   67 1    
    14    6   68 1    
    15    7    8 1    
    16    8    9 1    
    17    8   69 1    
    18    8   70 1    
    19    9   10 ar   
    20    9   14 ar   
    21   10   11 ar   
    22   10   71 1    
    23   11   12 ar   
    24   11   61 1    
    25   12   13 ar   
    26   12   72 1    
    27   13   14 ar   
    28   13   15 1    
    29   14   73 1    
    30   15   16 1    
    31   15   74 1    
    32   15   75 1    
    33   16   17 1    
    34   17   18 1    
    35   17   76 1    
    36   17   77 1    
    37   18   19 1    
    38   18   27 1    
    39   18   78 1    
    40   19   20 am   BACKBONE|DICT|INTERRES
    41   19   79 1    
    42   20   21 2    
    43   20   22 1    
    44   22   23 1    
    45   22   24 1    
    46   22   80 1    
    47   23   81 1    
    48   23   82 1    
    49   23   83 1    
    50   24   25 am   BACKBONE|DICT|INTERRES
    51   24   84 1    
    52   25   26 2    
    53   27   28 2    
    54   27   29 am   BACKBONE|DICT|INTERRES
    55   29   30 1    
    56   29   85 1    
    57   30   31 1    
    58   30   32 1    
    59   30   86 1    
    60   31   87 1    
    61   31   88 1    
    62   31   89 1    
    63   32   33 2    
    64   32   34 am   BACKBONE|DICT|INTERRES
    65   34   35 1    
    66   34   90 1    
    67   35   36 1    
    68   35   37 1    
    69   35   91 1    
    70   36   92 1    
    71   36   93 1    
    72   36   94 1    
    73   37   38 2    
    74   37   39 am   BACKBONE|DICT|INTERRES
    75   39   40 1    
    76   39   95 1    
    77   40   41 1    
    78   40   42 1    
    79   40   96 1    
    80   41   97 1    
    81   41   98 1    
    82   41   99 1    
    83   42   43 2    
    84   42   44 am   BACKBONE|DICT|INTERRES
    85   44   45 1    
    86   44  100 1    
    87   45   46 1    
    88   45   47 1    
    89   45  101 1    
    90   46  102 1    
    91   46  103 1    
    92   46  104 1    
    93   47   48 2    
    94   47   49 am   BACKBONE|DICT|INTERRES
    95   49   50 1    
    96   49  105 1    
    97   50   51 1    
    98   50   52 1    
    99   50  106 1    
   100   51  107 1    
   101   51  108 1    
   102   51  109 1    
   103   52   53 2    
   104   52   54 am   BACKBONE|DICT|INTERRES
   105   54   55 1    
   106   54  110 1    
   107   55   56 1    
   108   55   59 1    
   109   55  111 1    
   110   56   57 am   BACKBONE|DICT|INTERRES
   111   56   58 2    
   112   57  112 1    
   113   57  113 1    
   114   59   60 1    
   115   59  114 1    
   116   59  115 1    
   117   60   61 1    
   118   61  116 1    
   119   61  117 1    
@<TRIPOS>SUBSTRUCTURE
     1 UNK         1 GROUP             0       ****    0 ROOT    
