@<TRIPOS>MOLECULE
3R8
117   119    1
SMALL
USER_CHARGES


@<TRIPOS>ATOM
      1 CA         13.2224  -24.0987  -46.8309 C.3       0 UNK        -0.2013 
      2 C          14.6069  -23.6926  -46.3481 C.2       0 UNK         0.4866 
      3 O          14.7503  -22.6544  -45.7010 O.2       0 UNK        -0.5176 
      4 N          15.6283  -24.4971  -46.6653 N.am      1 UNK        -0.4884 
      5 CA         17.0125  -24.3120  -46.2183 C.3       1 UNK         0.0853 
      6 C6         18.0073  -25.0591  -47.1472 C.3       10 UNK        -0.0849 
      7 S7         17.7303  -26.8646  -47.2603 S.3       10 UNK        -0.2776 
      8 C8         19.1100  -27.4701  -46.2379 C.3       10 UNK         0.0316 
      9 C9         18.8026  -28.7986  -45.5636 C.ar      10 UNK        -0.0863 
     10 C10        19.6550  -29.8922  -45.7394 C.ar      10 UNK        -0.1009 
     11 C11        19.4379  -31.0803  -45.0357 C.ar      10 UNK        -0.0712 
     12 C12        18.3510  -31.1751  -44.1609 C.ar      10 UNK        -0.0894 
     13 C13        17.4888  -30.0906  -43.9773 C.ar      10 UNK        -0.0745 
     14 C14        17.7112  -28.9113  -44.6963 C.ar      10 UNK        -0.0972 
     15 C15        16.3322  -30.1963  -42.9890 C.3       10 UNK         0.0209 
     16 S16        16.2732  -28.8145  -41.7979 S.3       10 UNK        -0.2568 
     17 C17        17.8724  -28.9625  -40.9242 C.3       10 UNK        -0.0983 
     18 CA         18.9871  -28.0677  -41.5276 C.3       3 UNK         0.0876 
     19 N          18.5468  -26.6811  -41.7423 N.am      3 UNK        -0.4424 
     20 C          19.1790  -25.7999  -42.5257 C.2       2 UNK         0.4918 
     21 O          20.2434  -26.0350  -43.0980 O.2       2 UNK        -0.4875 
     22 CA         18.5354  -24.4130  -42.6731 C.3       2 UNK         0.0481 
     23 CB         19.4806  -23.3207  -42.1454 C.3       2 UNK        -0.1831 
     24 N          18.2020  -24.1357  -44.0718 N.am      2 UNK        -0.4498 
     25 C          17.1775  -24.6978  -44.7289 C.2       1 UNK         0.5027 
     26 O          16.3904  -25.4912  -44.2047 O.2       1 UNK        -0.4969 
     27 C          20.2874  -28.1694  -40.7022 C.2       3 UNK         0.5005 
     28 O          20.9752  -29.1840  -40.7823 O.2       3 UNK        -0.5279 
     29 N          20.6278  -27.1109  -39.9532 N.am      4 UNK        -0.4463 
     30 CA         21.8641  -26.9841  -39.1755 C.3       4 UNK         0.0283 
     31 CB         21.6747  -25.8692  -38.1323 C.3       4 UNK        -0.1875 
     32 C          23.1257  -26.7234  -40.0266 C.2       4 UNK         0.4949 
     33 O          24.2156  -26.6450  -39.4596 O.2       4 UNK        -0.5039 
     34 N          22.9758  -26.5706  -41.3517 N.am      5 UNK        -0.4663 
     35 CA         24.0508  -26.2542  -42.2991 C.3       5 UNK         0.0242 
     36 CB         23.4307  -25.9336  -43.6691 C.3       5 UNK        -0.1982 
     37 C          25.1424  -27.3323  -42.4480 C.2       5 UNK         0.5017 
     38 O          26.2243  -27.0071  -42.9400 O.2       5 UNK        -0.5012 
     39 N          24.8638  -28.5762  -42.0390 N.am      6 UNK        -0.4439 
     40 CA         25.8110  -29.6876  -42.0578 C.3       6 UNK         0.0297 
     41 CB         25.7237  -30.4270  -43.4044 C.3       6 UNK        -0.2006 
     42 C          25.5010  -30.6343  -40.8972 C.2       6 UNK         0.4892 
     43 O          24.3323  -30.8009  -40.5426 O.2       6 UNK        -0.5089 
     44 N          26.5459  -31.2800  -40.3628 N.am      7 UNK        -0.4243 
     45 CA         26.4531  -32.2607  -39.2745 C.3       7 UNK         0.0196 
     46 CB         27.8655  -32.5915  -38.7656 C.3       7 UNK        -0.2007 
     47 C          25.7067  -33.5484  -39.6674 C.2       7 UNK         0.5020 
     48 O          25.1058  -34.1849  -38.8023 O.2       7 UNK        -0.5147 
     49 N          25.7432  -33.9004  -40.9606 N.am      8 UNK        -0.4734 
     50 CA         24.9807  -35.0111  -41.5378 C.3       8 UNK         0.0238 
     51 CB         25.5588  -35.3599  -42.9191 C.3       8 UNK        -0.1912 
     52 C          23.4756  -34.7065  -41.6470 C.2       8 UNK         0.5038 
     53 O          22.6685  -35.6335  -41.5667 O.2       8 UNK        -0.5046 
     54 N          23.1323  -33.4258  -41.8312 N.am      9 UNK        -0.4200 
     55 CA         21.7527  -32.9260  -41.8657 C.3       9 UNK         0.0839 
     56 C          21.1750  -32.7030  -40.4429 C.2       9 UNK         0.5513 
     57 N          21.9589  -32.2001  -39.4972 N.am      9 UNK        -0.7519 
     58 O          20.0109  -33.0054  -40.1941 O.2       9 UNK        -0.4960 
     59 C59        21.6329  -31.6395  -42.7168 C.3       10 UNK        -0.0876 
     60 S60        22.0359  -31.9120  -44.4762 S.3       10 UNK        -0.2414 
     61 C61        20.3960  -32.2529  -45.1958 C.3       10 UNK         0.0169 
     62 H62        12.5558  -24.2405  -45.9806 H         1 UNK         0.0903 
     63 H63        12.8030  -23.3199  -47.4673 H         1 UNK         0.0903 
     64 H64        13.2457  -25.0270  -47.4017 H         1 UNK         0.0903 
     65 H65        15.4536  -25.3590  -47.1632 H         1 UNK         0.3096 
     66 H66        17.2373  -23.2453  -46.2939 H         1 UNK         0.1121 
     67 H67        17.9219  -24.6543  -48.1570 H         1 UNK         0.0849 
     68 H68        19.0377  -24.8553  -46.8503 H         1 UNK         0.0849 
     69 H69        19.3393  -26.7465  -45.4568 H         1 UNK         0.0865 
     70 H70        20.0041  -27.5406  -46.8593 H         1 UNK         0.0865 
     71 H71        20.5107  -29.8128  -46.3961 H         1 UNK         0.1346 
     72 H72        18.1891  -32.0895  -43.6063 H         1 UNK         0.1412 
     73 H73        17.0575  -28.0623  -44.5471 H         1 UNK         0.1426 
     74 H74        16.3788  -31.1336  -42.4322 H         1 UNK         0.0716 
     75 H75        15.3962  -30.2161  -43.5484 H         1 UNK         0.0716 
     76 H76        18.1823  -30.0098  -40.9239 H         1 UNK         0.0695 
     77 H77        17.6989  -28.6979  -39.8795 H         1 UNK         0.0695 
     78 H78        19.2440  -28.4747  -42.5065 H         1 UNK         0.0983 
     79 H79        17.6563  -26.4313  -41.3361 H         1 UNK         0.3095 
     80 H80        17.6173  -24.3775  -42.0825 H         1 UNK         0.0454 
     81 H81        19.0207  -22.3342  -42.2057 H         1 UNK         0.0851 
     82 H82        20.4174  -23.2890  -42.7038 H         1 UNK         0.0851 
     83 H83        19.7333  -23.4948  -41.0987 H         1 UNK         0.0851 
     84 H84        18.8294  -23.5195  -44.5684 H         1 UNK         0.2976 
     85 H85        20.0050  -26.3164  -39.9484 H         1 UNK         0.3116 
     86 H86        22.0289  -27.9233  -38.6428 H         1 UNK         0.0646 
     87 H87        22.5520  -25.7790  -37.4901 H         1 UNK         0.0847 
     88 H88        20.8236  -26.0724  -37.4820 H         1 UNK         0.0847 
     89 H89        21.5160  -24.8981  -38.6029 H         1 UNK         0.0847 
     90 H90        22.0440  -26.6376  -41.7415 H         1 UNK         0.3040 
     91 H91        24.5511  -25.3543  -41.9349 H         1 UNK         0.1015 
     92 H92        22.7592  -25.0769  -43.6094 H         1 UNK         0.0786 
     93 H93        22.8627  -26.7784  -44.0613 H         1 UNK         0.0786 
     94 H94        24.1994  -25.6872  -44.4030 H         1 UNK         0.0786 
     95 H95        23.9757  -28.7698  -41.5917 H         1 UNK         0.3172 
     96 H96        26.8251  -29.3050  -41.9215 H         1 UNK         0.0595 
     97 H97        24.7237  -30.8231  -43.5817 H         1 UNK         0.0839 
     98 H98        26.4203  -31.2653  -43.4416 H         1 UNK         0.0839 
     99 H99        25.9710  -29.7663  -44.2355 H         1 UNK         0.0839 
    100 H100       27.4714  -31.0885  -40.7203 H         1 UNK         0.2998 
    101 H101       25.8939  -31.7991  -38.4574 H         1 UNK         0.0822 
    102 H102       28.4826  -33.0386  -39.5461 H         1 UNK         0.0787 
    103 H103       28.3759  -31.6996  -38.4017 H         1 UNK         0.0787 
    104 H104       27.8252  -33.2998  -37.9366 H         1 UNK         0.0787 
    105 H105       26.2890  -33.3365  -41.5956 H         1 UNK         0.3055 
    106 H106       25.0924  -35.8821  -40.8876 H         1 UNK         0.1106 
    107 H107       25.0258  -36.2025  -43.3623 H         1 UNK         0.0828 
    108 H108       25.4801  -34.5236  -43.6150 H         1 UNK         0.0828 
    109 H109       26.6090  -35.6440  -42.8504 H         1 UNK         0.0828 
    110 H110       23.8552  -32.7222  -41.8224 H         1 UNK         0.2931 
    111 H111       21.1273  -33.6839  -42.3426 H         1 UNK         0.0412 
    112 H112       21.5890  -32.0542  -38.5724 H         1 UNK         0.3472 
    113 H113       22.8778  -31.8446  -39.7399 H         1 UNK         0.3472 
    114 H114       22.3079  -30.8721  -42.3355 H         1 UNK         0.0970 
    115 H115       20.6346  -31.2109  -42.6296 H         1 UNK         0.0970 
    116 H116       20.5165  -32.4751  -46.2568 H         1 UNK         0.0612 
    117 H117       19.9885  -33.1553  -44.7373 H         1 UNK         0.0612 
@<TRIPOS>BOND
     1    1    2 1    
     2    1   62 1    
     3    1   63 1    
     4    1   64 1    
     5    2    3 2    
     6    2    4 am   BACKBONE|DICT|INTERRES
     7    4    5 1    
     8    4   65 1    
     9    5    6 1    
    10    5   25 1    
    11    5   66 1    
    12    6    7 1    
    13    6   67 1    
    14    6   68 1    
    15    7    8 1    
    16    8    9 1    
    17    8   69 1    
    18    8   70 1    
    19    9   10 ar   
    20    9   14 ar   
    21   10   11 ar   
    22   10   71 1    
    23   11   12 ar   
    24   11   61 1    
    25   12   13 ar   
    26   12   72 1    
    27   13   14 ar   
    28   13   15 1    
    29   14   73 1    
    30   15   16 1    
    31   15   74 1    
    32   15   75 1    
    33   16   17 1    
    34   17   18 1    
    35   17   76 1    
    36   17   77 1    
    37   18   19 1    
    38   18   27 1    
    39   18   78 1    
    40   19   20 am   BACKBONE|DICT|INTERRES
    41   19   79 1    
    42   20   21 2    
    43   20   22 1    
    44   22   23 1    
    45   22   24 1    
    46   22   80 1    
    47   23   81 1    
    48   23   82 1    
    49   23   83 1    
    50   24   25 am   BACKBONE|DICT|INTERRES
    51   24   84 1    
    52   25   26 2    
    53   27   28 2    
    54   27   29 am   BACKBONE|DICT|INTERRES
    55   29   30 1    
    56   29   85 1    
    57   30   31 1    
    58   30   32 1    
    59   30   86 1    
    60   31   87 1    
    61   31   88 1    
    62   31   89 1    
    63   32   33 2    
    64   32   34 am   BACKBONE|DICT|INTERRES
    65   34   35 1    
    66   34   90 1    
    67   35   36 1    
    68   35   37 1    
    69   35   91 1    
    70   36   92 1    
    71   36   93 1    
    72   36   94 1    
    73   37   38 2    
    74   37   39 am   BACKBONE|DICT|INTERRES
    75   39   40 1    
    76   39   95 1    
    77   40   41 1    
    78   40   42 1    
    79   40   96 1    
    80   41   97 1    
    81   41   98 1    
    82   41   99 1    
    83   42   43 2    
    84   42   44 am   BACKBONE|DICT|INTERRES
    85   44   45 1    
    86   44  100 1    
    87   45   46 1    
    88   45   47 1    
    89   45  101 1    
    90   46  102 1    
    91   46  103 1    
    92   46  104 1    
    93   47   48 2    
    94   47   49 am   BACKBONE|DICT|INTERRES
    95   49   50 1    
    96   49  105 1    
    97   50   51 1    
    98   50   52 1    
    99   50  106 1    
   100   51  107 1    
   101   51  108 1    
   102   51  109 1    
   103   52   53 2    
   104   52   54 am   BACKBONE|DICT|INTERRES
   105   54   55 1    
   106   54  110 1    
   107   55   56 1    
   108   55   59 1    
   109   55  111 1    
   110   56   57 am   BACKBONE|DICT|INTERRES
   111   56   58 2    
   112   57  112 1    
   113   57  113 1    
   114   59   60 1    
   115   59  114 1    
   116   59  115 1    
   117   60   61 1    
   118   61  116 1    
   119   61  117 1    
@<TRIPOS>SUBSTRUCTURE
     1 UNK         1 GROUP             0       ****    0 ROOT    
