@<TRIPOS>MOLECULE
3R8
117   119    1
SMALL
USER_CHARGES


@<TRIPOS>ATOM
      1 CA         19.7688  -26.7282  -41.4105 C.3       0 UNK        -0.2013 
      2 C          18.5052  -26.0219  -41.8705 C.2       0 UNK         0.4866 
      3 O          17.6153  -25.7542  -41.0627 O.2       0 UNK        -0.5176 
      4 N          18.4411  -25.6994  -43.1631 N.am      1 UNK        -0.4884 
      5 CA         17.4054  -24.8682  -43.7709 C.3       1 UNK         0.0853 
      6 C6         16.0068  -25.5497  -43.9107 C.3       10 UNK        -0.0849 
      7 S7         15.8426  -26.9780  -45.0476 S.3       10 UNK        -0.2776 
      8 C8         15.7275  -28.4248  -43.9420 C.3       10 UNK         0.0316 
      9 C9         17.0365  -29.1999  -43.8887 C.ar      10 UNK        -0.0863 
     10 C10        17.6665  -29.4474  -42.6646 C.ar      10 UNK        -0.1009 
     11 C11        18.8796  -30.1416  -42.6185 C.ar      10 UNK        -0.0712 
     12 C12        19.4598  -30.5852  -43.8104 C.ar      10 UNK        -0.0894 
     13 C13        18.8344  -30.3576  -45.0387 C.ar      10 UNK        -0.0745 
     14 C14        17.6149  -29.6790  -45.0696 C.ar      10 UNK        -0.0972 
     15 C15        19.5016  -30.8120  -46.3313 C.3       10 UNK         0.0209 
     16 S16        20.1348  -29.4184  -47.3284 S.3       10 UNK        -0.2568 
     17 C17        21.1979  -28.5317  -46.1347 C.3       10 UNK        -0.0983 
     18 CA         21.3300  -27.0103  -46.4076 C.3       3 UNK         0.0876 
     19 N          20.0474  -26.3718  -46.7079 N.am      3 UNK        -0.4424 
     20 C          19.9021  -25.2295  -47.3936 C.2       2 UNK         0.4918 
     21 O          20.8287  -24.6349  -47.9453 O.2       2 UNK        -0.4875 
     22 CA         18.4811  -24.6388  -47.4526 C.3       2 UNK         0.0481 
     23 CB         17.6913  -25.2446  -48.6233 C.3       2 UNK        -0.1831 
     24 N          17.7530  -24.8651  -46.2030 N.am      2 UNK        -0.4498 
     25 C          18.0254  -24.2621  -45.0402 C.2       1 UNK         0.5027 
     26 O          18.7918  -23.3029  -44.9342 O.2       1 UNK        -0.4969 
     27 C          21.9474  -26.3302  -45.1707 C.2       3 UNK         0.5005 
     28 O          21.2061  -25.9478  -44.2605 O.2       3 UNK        -0.5279 
     29 N          23.2832  -26.2537  -45.1265 N.am      4 UNK        -0.4463 
     30 CA         24.0414  -25.7249  -43.9865 C.3       4 UNK         0.0283 
     31 CB         25.3450  -25.0960  -44.5066 C.3       4 UNK        -0.1875 
     32 C          24.3548  -26.7871  -42.9141 C.2       4 UNK         0.4949 
     33 O          24.8181  -26.4254  -41.8325 O.2       4 UNK        -0.5039 
     34 N          24.1196  -28.0725  -43.2167 N.am      5 UNK        -0.4663 
     35 CA         24.4799  -29.2486  -42.4105 C.3       5 UNK         0.0242 
     36 CB         24.4561  -30.4883  -43.3265 C.3       5 UNK        -0.1982 
     37 C          23.6235  -29.4562  -41.1413 C.2       5 UNK         0.5017 
     38 O          23.2693  -30.5929  -40.8254 O.2       5 UNK        -0.5012 
     39 N          23.3172  -28.3707  -40.4200 N.am      6 UNK        -0.4439 
     40 CA         22.4240  -28.3055  -39.2545 C.3       6 UNK         0.0297 
     41 CB         22.3769  -26.8537  -38.7496 C.3       6 UNK        -0.2006 
     42 C          22.7680  -29.2501  -38.0866 C.2       6 UNK         0.4892 
     43 O          21.8845  -29.5603  -37.2871 O.2       6 UNK        -0.5089 
     44 N          24.0334  -29.6792  -37.9999 N.am      7 UNK        -0.4243 
     45 CA         24.5444  -30.5843  -36.9716 C.3       7 UNK         0.0196 
     46 CB         26.0815  -30.5520  -37.0019 C.3       7 UNK        -0.2007 
     47 C          24.0406  -32.0350  -37.0913 C.2       7 UNK         0.5020 
     48 O          24.0661  -32.7444  -36.0844 O.2       7 UNK        -0.5147 
     49 N          23.6248  -32.4714  -38.2904 N.am      8 UNK        -0.4734 
     50 CA         23.2367  -33.8674  -38.5424 C.3       8 UNK         0.0238 
     51 CB         24.4963  -34.7122  -38.8170 C.3       8 UNK        -0.1912 
     52 C          22.2120  -34.0611  -39.6712 C.2       8 UNK         0.5038 
     53 O          21.5515  -35.1014  -39.6876 O.2       8 UNK        -0.5046 
     54 N          22.1016  -33.0984  -40.5944 N.am      9 UNK        -0.4200 
     55 CA         21.3066  -33.1668  -41.8294 C.3       9 UNK         0.0839 
     56 C          21.8123  -34.2512  -42.8308 C.2       9 UNK         0.5513 
     57 N          21.0268  -34.6078  -43.8394 N.am      9 UNK        -0.7519 
     58 O          22.9374  -34.7390  -42.7410 O.2       9 UNK        -0.4960 
     59 C59        19.7655  -33.2037  -41.5834 C.3       10 UNK        -0.0876 
     60 S60        19.1244  -31.9100  -40.4626 S.3       10 UNK        -0.2414 
     61 C61        19.5930  -30.3571  -41.2902 C.3       10 UNK         0.0169 
     62 H62        20.5919  -26.0167  -41.3602 H         1 UNK         0.0903 
     63 H63        19.6277  -27.1634  -40.4223 H         1 UNK         0.0903 
     64 H64        20.0498  -27.5195  -42.1047 H         1 UNK         0.0903 
     65 H65        19.2603  -25.8709  -43.7423 H         1 UNK         0.3096 
     66 H66        17.2598  -24.0158  -43.1025 H         1 UNK         0.1121 
     67 H67        15.2892  -24.7997  -44.2477 H         1 UNK         0.0849 
     68 H68        15.6492  -25.8417  -42.9231 H         1 UNK         0.0849 
     69 H69        15.4070  -28.1193  -42.9452 H         1 UNK         0.0865 
     70 H70        14.9491  -29.0892  -44.3195 H         1 UNK         0.0865 
     71 H71        17.2234  -29.0850  -41.7469 H         1 UNK         0.1346 
     72 H72        20.4144  -31.0871  -43.7930 H         1 UNK         0.1412 
     73 H73        17.1325  -29.4931  -46.0197 H         1 UNK         0.1426 
     74 H74        18.7831  -31.3753  -46.9282 H         1 UNK         0.0716 
     75 H75        20.3255  -31.4959  -46.1209 H         1 UNK         0.0716 
     76 H76        20.8081  -28.6864  -45.1297 H         1 UNK         0.0695 
     77 H77        22.1816  -29.0042  -46.1468 H         1 UNK         0.0695 
     78 H78        21.9946  -26.8694  -47.2630 H         1 UNK         0.0983 
     79 H79        19.2365  -26.7935  -46.2821 H         1 UNK         0.3095 
     80 H80        18.5657  -23.5624  -47.6157 H         1 UNK         0.0454 
     81 H81        18.2052  -25.0720  -49.5699 H         1 UNK         0.0851 
     82 H82        17.5644  -26.3225  -48.5132 H         1 UNK         0.0851 
     83 H83        16.7009  -24.7971  -48.7072 H         1 UNK         0.0851 
     84 H84        17.0978  -25.6387  -46.1799 H         1 UNK         0.2976 
     85 H85        23.8239  -26.5897  -45.9119 H         1 UNK         0.3116 
     86 H86        23.4605  -24.9376  -43.5008 H         1 UNK         0.0646 
     87 H87        25.9191  -24.6541  -43.6908 H         1 UNK         0.0847 
     88 H88        25.1433  -24.3001  -45.2237 H         1 UNK         0.0847 
     89 H89        25.9859  -25.8329  -44.9924 H         1 UNK         0.0847 
     90 H90        23.7048  -28.2653  -44.1152 H         1 UNK         0.3040 
     91 H91        25.5069  -29.1127  -42.0646 H         1 UNK         0.1015 
     92 H92        25.1082  -30.3582  -44.1904 H         1 UNK         0.0786 
     93 H93        23.4502  -30.6992  -43.6923 H         1 UNK         0.0786 
     94 H94        24.8034  -31.3779  -42.7986 H         1 UNK         0.0786 
     95 H95        23.7170  -27.4928  -40.7431 H         1 UNK         0.3172 
     96 H96        21.4283  -28.5832  -39.6017 H         1 UNK         0.0595 
     97 H97        22.0820  -26.1603  -39.5358 H         1 UNK         0.0839 
     98 H98        23.3471  -26.5300  -38.3704 H         1 UNK         0.0839 
     99 H99        21.6570  -26.7451  -37.9370 H         1 UNK         0.0839 
    100 H100       24.6873  -29.3695  -38.7036 H         1 UNK         0.2998 
    101 H101       24.2153  -30.2077  -36.0005 H         1 UNK         0.0822 
    102 H102       26.4620  -29.5447  -36.8308 H         1 UNK         0.0787 
    103 H103       26.5012  -31.1906  -36.2231 H         1 UNK         0.0787 
    104 H104       26.4738  -30.9035  -37.9571 H         1 UNK         0.0787 
    105 H105       23.6021  -31.8210  -39.0667 H         1 UNK         0.3055 
    106 H106       22.7517  -34.2616  -37.6460 H         1 UNK         0.1106 
    107 H107       25.0433  -34.3434  -39.6854 H         1 UNK         0.0828 
    108 H108       25.1756  -34.7071  -37.9645 H         1 UNK         0.0828 
    109 H109       24.2367  -35.7535  -39.0133 H         1 UNK         0.0828 
    110 H110       22.6746  -32.2627  -40.5316 H         1 UNK         0.2931 
    111 H111       21.5444  -32.2324  -42.3312 H         1 UNK         0.0412 
    112 H112       21.3647  -35.2941  -44.4964 H         1 UNK         0.3472 
    113 H113       20.1058  -34.2179  -43.9573 H         1 UNK         0.3472 
    114 H114       19.4793  -34.1712  -41.1682 H         1 UNK         0.0970 
    115 H115       19.2179  -33.1143  -42.5218 H         1 UNK         0.0970 
    116 H116       19.3506  -29.5399  -40.6112 H         1 UNK         0.0612 
    117 H117       20.6725  -30.3160  -41.4270 H         1 UNK         0.0612 
@<TRIPOS>BOND
     1    1    2 1    
     2    1   62 1    
     3    1   63 1    
     4    1   64 1    
     5    2    3 2    
     6    2    4 am   BACKBONE|DICT|INTERRES
     7    4    5 1    
     8    4   65 1    
     9    5    6 1    
    10    5   25 1    
    11    5   66 1    
    12    6    7 1    
    13    6   67 1    
    14    6   68 1    
    15    7    8 1    
    16    8    9 1    
    17    8   69 1    
    18    8   70 1    
    19    9   10 ar   
    20    9   14 ar   
    21   10   11 ar   
    22   10   71 1    
    23   11   12 ar   
    24   11   61 1    
    25   12   13 ar   
    26   12   72 1    
    27   13   14 ar   
    28   13   15 1    
    29   14   73 1    
    30   15   16 1    
    31   15   74 1    
    32   15   75 1    
    33   16   17 1    
    34   17   18 1    
    35   17   76 1    
    36   17   77 1    
    37   18   19 1    
    38   18   27 1    
    39   18   78 1    
    40   19   20 am   BACKBONE|DICT|INTERRES
    41   19   79 1    
    42   20   21 2    
    43   20   22 1    
    44   22   23 1    
    45   22   24 1    
    46   22   80 1    
    47   23   81 1    
    48   23   82 1    
    49   23   83 1    
    50   24   25 am   BACKBONE|DICT|INTERRES
    51   24   84 1    
    52   25   26 2    
    53   27   28 2    
    54   27   29 am   BACKBONE|DICT|INTERRES
    55   29   30 1    
    56   29   85 1    
    57   30   31 1    
    58   30   32 1    
    59   30   86 1    
    60   31   87 1    
    61   31   88 1    
    62   31   89 1    
    63   32   33 2    
    64   32   34 am   BACKBONE|DICT|INTERRES
    65   34   35 1    
    66   34   90 1    
    67   35   36 1    
    68   35   37 1    
    69   35   91 1    
    70   36   92 1    
    71   36   93 1    
    72   36   94 1    
    73   37   38 2    
    74   37   39 am   BACKBONE|DICT|INTERRES
    75   39   40 1    
    76   39   95 1    
    77   40   41 1    
    78   40   42 1    
    79   40   96 1    
    80   41   97 1    
    81   41   98 1    
    82   41   99 1    
    83   42   43 2    
    84   42   44 am   BACKBONE|DICT|INTERRES
    85   44   45 1    
    86   44  100 1    
    87   45   46 1    
    88   45   47 1    
    89   45  101 1    
    90   46  102 1    
    91   46  103 1    
    92   46  104 1    
    93   47   48 2    
    94   47   49 am   BACKBONE|DICT|INTERRES
    95   49   50 1    
    96   49  105 1    
    97   50   51 1    
    98   50   52 1    
    99   50  106 1    
   100   51  107 1    
   101   51  108 1    
   102   51  109 1    
   103   52   53 2    
   104   52   54 am   BACKBONE|DICT|INTERRES
   105   54   55 1    
   106   54  110 1    
   107   55   56 1    
   108   55   59 1    
   109   55  111 1    
   110   56   57 am   BACKBONE|DICT|INTERRES
   111   56   58 2    
   112   57  112 1    
   113   57  113 1    
   114   59   60 1    
   115   59  114 1    
   116   59  115 1    
   117   60   61 1    
   118   61  116 1    
   119   61  117 1    
@<TRIPOS>SUBSTRUCTURE
     1 UNK         1 GROUP             0       ****    0 ROOT    
