@<TRIPOS>MOLECULE
3R8
117   119    1
SMALL
USER_CHARGES


@<TRIPOS>ATOM
      1 CA         13.9593  -22.7041  -44.8290 C.3       0 UNK        -0.2013 
      2 C          15.3192  -23.2254  -45.2692 C.2       0 UNK         0.4866 
      3 O          16.1550  -22.4453  -45.7272 O.2       0 UNK        -0.5176 
      4 N          15.5454  -24.5391  -45.1421 N.am      1 UNK        -0.4884 
      5 CA         16.8191  -25.1982  -45.4476 C.3       1 UNK         0.0853 
      6 C6         16.6278  -26.7262  -45.6079 C.3       10 UNK        -0.0849 
      7 S7         17.9325  -27.4900  -46.6281 S.3       10 UNK        -0.2776 
      8 C8         17.4807  -29.2501  -46.5142 C.3       10 UNK         0.0316 
      9 C9         18.1513  -29.9329  -45.3303 C.ar      10 UNK        -0.0863 
     10 C10        19.3522  -30.6265  -45.5129 C.ar      10 UNK        -0.1009 
     11 C11        19.9590  -31.2905  -44.4433 C.ar      10 UNK        -0.0712 
     12 C12        19.3706  -31.2329  -43.1771 C.ar      10 UNK        -0.0894 
     13 C13        18.1687  -30.5478  -42.9810 C.ar      10 UNK        -0.0745 
     14 C14        17.5605  -29.9038  -44.0628 C.ar      10 UNK        -0.0972 
     15 C15        17.5125  -30.5358  -41.6071 C.3       10 UNK         0.0209 
     16 S16        18.5443  -29.7157  -40.3504 S.3       10 UNK        -0.2568 
     17 C17        18.5814  -27.9957  -40.9565 C.3       10 UNK        -0.0983 
     18 CA         19.9326  -27.6031  -41.6065 C.3       3 UNK         0.0876 
     19 N          19.7911  -26.3659  -42.3801 N.am      3 UNK        -0.4424 
     20 C          20.7371  -25.7627  -43.1106 C.2       2 UNK         0.4918 
     21 O          21.9037  -26.1539  -43.1733 O.2       2 UNK        -0.4875 
     22 CA         20.2921  -24.5100  -43.8951 C.3       2 UNK         0.0481 
     23 CB         21.4241  -23.9083  -44.7467 C.3       2 UNK        -0.1831 
     24 N          19.1423  -24.7796  -44.7643 N.am      2 UNK        -0.4498 
     25 C          17.8684  -24.8782  -44.3629 C.2       1 UNK         0.5027 
     26 O          17.5193  -24.7760  -43.1826 O.2       1 UNK        -0.4969 
     27 C          21.0723  -27.5268  -40.5684 C.2       3 UNK         0.5005 
     28 O          21.8895  -28.4452  -40.4890 O.2       3 UNK        -0.5279 
     29 N          21.1317  -26.4096  -39.8283 N.am      4 UNK        -0.4463 
     30 CA         22.1456  -26.1418  -38.8043 C.3       4 UNK         0.0283 
     31 CB         21.7285  -24.9105  -37.9844 C.3       4 UNK        -0.1875 
     32 C          23.5639  -25.9533  -39.3708 C.2       4 UNK         0.4949 
     33 O          24.5307  -26.2742  -38.6798 O.2       4 UNK        -0.5039 
     34 N          23.6674  -25.4410  -40.6054 N.am      5 UNK        -0.4663 
     35 CA         24.9359  -25.2908  -41.3214 C.3       5 UNK         0.0242 
     36 CB         24.7985  -24.2154  -42.4102 C.3       5 UNK        -0.1982 
     37 C          25.3976  -26.6226  -41.9307 C.2       5 UNK         0.5017 
     38 O          26.5927  -26.9166  -41.8951 O.2       5 UNK        -0.5012 
     39 N          24.4454  -27.3985  -42.4709 N.am      6 UNK        -0.4439 
     40 CA         24.6704  -28.7320  -43.0285 C.3       6 UNK         0.0297 
     41 CB         23.4100  -29.2084  -43.7690 C.3       6 UNK        -0.2006 
     42 C          25.0984  -29.7496  -41.9587 C.2       6 UNK         0.4892 
     43 O          26.0943  -30.4449  -42.1622 O.2       6 UNK        -0.5089 
     44 N          24.3467  -29.7968  -40.8454 N.am      7 UNK        -0.4243 
     45 CA         24.5529  -30.6468  -39.6642 C.3       7 UNK         0.0196 
     46 CB         25.7660  -30.1432  -38.8545 C.3       7 UNK        -0.2007 
     47 C          24.6372  -32.1490  -40.0069 C.2       7 UNK         0.5020 
     48 O          25.5073  -32.8575  -39.4964 O.2       7 UNK        -0.5147 
     49 N          23.7430  -32.5997  -40.8926 N.am      8 UNK        -0.4734 
     50 CA         23.7080  -33.9478  -41.4561 C.3       8 UNK         0.0238 
     51 CB         24.7013  -34.0346  -42.6368 C.3       8 UNK        -0.1912 
     52 C          22.2635  -34.2966  -41.8502 C.2       8 UNK         0.5038 
     53 O          21.3282  -33.6997  -41.3120 O.2       8 UNK        -0.5046 
     54 N          22.1090  -35.2402  -42.7887 N.am      9 UNK        -0.4200 
     55 CA         20.8312  -35.7122  -43.3550 C.3       9 UNK         0.0839 
     56 C          19.9551  -36.5480  -42.3716 C.2       9 UNK         0.5513 
     57 N          20.4928  -37.0429  -41.2630 N.am      9 UNK        -0.7519 
     58 O          18.7772  -36.7830  -42.6298 O.2       9 UNK        -0.4960 
     59 C59        20.0175  -34.5932  -44.0706 C.3       10 UNK        -0.0876 
     60 S60        20.9523  -33.7212  -45.3793 S.3       10 UNK        -0.2414 
     61 C61        21.2473  -32.0723  -44.6563 C.3       10 UNK         0.0169 
     62 H62        13.3151  -23.5026  -44.4615 H         1 UNK         0.0903 
     63 H63        14.0791  -21.9713  -44.0316 H         1 UNK         0.0903 
     64 H64        13.4547  -22.2194  -45.6644 H         1 UNK         0.0903 
     65 H65        14.8354  -25.1247  -44.7252 H         1 UNK         0.3096 
     66 H66        17.1709  -24.7882  -46.3977 H         1 UNK         0.1121 
     67 H67        15.6790  -26.9319  -46.1068 H         1 UNK         0.0849 
     68 H68        16.5697  -27.2194  -44.6366 H         1 UNK         0.0849 
     69 H69        16.3968  -29.3592  -46.4521 H         1 UNK         0.0865 
     70 H70        17.7759  -29.7442  -47.4413 H         1 UNK         0.0865 
     71 H71        19.8085  -30.6658  -46.4928 H         1 UNK         0.1346 
     72 H72        19.8384  -31.7350  -42.3409 H         1 UNK         0.1412 
     73 H73        16.6206  -29.3901  -43.9194 H         1 UNK         0.1426 
     74 H74        16.5357  -30.0507  -41.6409 H         1 UNK         0.0716 
     75 H75        17.3319  -31.5651  -41.2941 H         1 UNK         0.0716 
     76 H76        18.3395  -27.3299  -40.1260 H         1 UNK         0.0695 
     77 H77        17.7717  -27.8689  -41.6772 H         1 UNK         0.0695 
     78 H78        20.2042  -28.3803  -42.3245 H         1 UNK         0.0983 
     79 H79        18.8651  -25.9493  -42.4049 H         1 UNK         0.3095 
     80 H80        20.0007  -23.7572  -43.1598 H         1 UNK         0.0454 
     81 H81        21.0806  -23.0410  -45.3107 H         1 UNK         0.0851 
     82 H82        21.8286  -24.6319  -45.4558 H         1 UNK         0.0851 
     83 H83        22.2455  -23.5692  -44.1166 H         1 UNK         0.0851 
     84 H84        19.3523  -24.9477  -45.7384 H         1 UNK         0.2976 
     85 H85        20.4257  -25.7015  -39.9708 H         1 UNK         0.3116 
     86 H86        22.1752  -27.0031  -38.1332 H         1 UNK         0.0646 
     87 H87        20.7630  -25.0619  -37.5014 H         1 UNK         0.0847 
     88 H88        22.4532  -24.7045  -37.1953 H         1 UNK         0.0847 
     89 H89        21.6596  -24.0152  -38.6035 H         1 UNK         0.0847 
     90 H90        22.8224  -25.2358  -41.1190 H         1 UNK         0.3040 
     91 H91        25.7013  -24.9604  -40.6149 H         1 UNK         0.1015 
     92 H92        24.1208  -24.5301  -43.2029 H         1 UNK         0.0786 
     93 H93        25.7641  -24.0124  -42.8752 H         1 UNK         0.0786 
     94 H94        24.4310  -23.2743  -42.0009 H         1 UNK         0.0786 
     95 H95        23.4958  -27.0390  -42.5127 H         1 UNK         0.3172 
     96 H96        25.4789  -28.6528  -43.7585 H         1 UNK         0.0595 
     97 H97        22.5525  -29.3029  -43.1018 H         1 UNK         0.0839 
     98 H98        23.5812  -30.1837  -44.2250 H         1 UNK         0.0839 
     99 H99        23.1342  -28.5202  -44.5683 H         1 UNK         0.0839 
    100 H100       23.5218  -29.1985  -40.7998 H         1 UNK         0.2998 
    101 H101       23.6652  -30.5243  -39.0416 H         1 UNK         0.0822 
    102 H102       25.8686  -30.6927  -37.9180 H         1 UNK         0.0787 
    103 H103       26.6978  -30.2630  -39.4084 H         1 UNK         0.0787 
    104 H104       25.6605  -29.0879  -38.6013 H         1 UNK         0.0787 
    105 H105       23.0034  -31.9826  -41.2012 H         1 UNK         0.3055 
    106 H106       24.0055  -34.6631  -40.6860 H         1 UNK         0.1106 
    107 H107       25.6968  -33.7007  -42.3427 H         1 UNK         0.0828 
    108 H108       24.8110  -35.0569  -42.9992 H         1 UNK         0.0828 
    109 H109       24.3828  -33.4144  -43.4760 H         1 UNK         0.0828 
    110 H110       22.9345  -35.6787  -43.1694 H         1 UNK         0.2931 
    111 H111       21.1197  -36.4272  -44.1263 H         1 UNK         0.0412 
    112 H112       19.9213  -37.5914  -40.6393 H         1 UNK         0.3472 
    113 H113       21.4607  -36.8727  -41.0426 H         1 UNK         0.3472 
    114 H114       19.1376  -35.0221  -44.5531 H         1 UNK         0.0970 
    115 H115       19.6274  -33.8873  -43.3404 H         1 UNK         0.0970 
    116 H116       21.7979  -32.1695  -43.7211 H         1 UNK         0.0612 
    117 H117       21.8963  -31.5153  -45.3328 H         1 UNK         0.0612 
@<TRIPOS>BOND
     1    1    2 1    
     2    1   62 1    
     3    1   63 1    
     4    1   64 1    
     5    2    3 2    
     6    2    4 am   BACKBONE|DICT|INTERRES
     7    4    5 1    
     8    4   65 1    
     9    5    6 1    
    10    5   25 1    
    11    5   66 1    
    12    6    7 1    
    13    6   67 1    
    14    6   68 1    
    15    7    8 1    
    16    8    9 1    
    17    8   69 1    
    18    8   70 1    
    19    9   10 ar   
    20    9   14 ar   
    21   10   11 ar   
    22   10   71 1    
    23   11   12 ar   
    24   11   61 1    
    25   12   13 ar   
    26   12   72 1    
    27   13   14 ar   
    28   13   15 1    
    29   14   73 1    
    30   15   16 1    
    31   15   74 1    
    32   15   75 1    
    33   16   17 1    
    34   17   18 1    
    35   17   76 1    
    36   17   77 1    
    37   18   19 1    
    38   18   27 1    
    39   18   78 1    
    40   19   20 am   BACKBONE|DICT|INTERRES
    41   19   79 1    
    42   20   21 2    
    43   20   22 1    
    44   22   23 1    
    45   22   24 1    
    46   22   80 1    
    47   23   81 1    
    48   23   82 1    
    49   23   83 1    
    50   24   25 am   BACKBONE|DICT|INTERRES
    51   24   84 1    
    52   25   26 2    
    53   27   28 2    
    54   27   29 am   BACKBONE|DICT|INTERRES
    55   29   30 1    
    56   29   85 1    
    57   30   31 1    
    58   30   32 1    
    59   30   86 1    
    60   31   87 1    
    61   31   88 1    
    62   31   89 1    
    63   32   33 2    
    64   32   34 am   BACKBONE|DICT|INTERRES
    65   34   35 1    
    66   34   90 1    
    67   35   36 1    
    68   35   37 1    
    69   35   91 1    
    70   36   92 1    
    71   36   93 1    
    72   36   94 1    
    73   37   38 2    
    74   37   39 am   BACKBONE|DICT|INTERRES
    75   39   40 1    
    76   39   95 1    
    77   40   41 1    
    78   40   42 1    
    79   40   96 1    
    80   41   97 1    
    81   41   98 1    
    82   41   99 1    
    83   42   43 2    
    84   42   44 am   BACKBONE|DICT|INTERRES
    85   44   45 1    
    86   44  100 1    
    87   45   46 1    
    88   45   47 1    
    89   45  101 1    
    90   46  102 1    
    91   46  103 1    
    92   46  104 1    
    93   47   48 2    
    94   47   49 am   BACKBONE|DICT|INTERRES
    95   49   50 1    
    96   49  105 1    
    97   50   51 1    
    98   50   52 1    
    99   50  106 1    
   100   51  107 1    
   101   51  108 1    
   102   51  109 1    
   103   52   53 2    
   104   52   54 am   BACKBONE|DICT|INTERRES
   105   54   55 1    
   106   54  110 1    
   107   55   56 1    
   108   55   59 1    
   109   55  111 1    
   110   56   57 am   BACKBONE|DICT|INTERRES
   111   56   58 2    
   112   57  112 1    
   113   57  113 1    
   114   59   60 1    
   115   59  114 1    
   116   59  115 1    
   117   60   61 1    
   118   61  116 1    
   119   61  117 1    
@<TRIPOS>SUBSTRUCTURE
     1 UNK         1 GROUP             0       ****    0 ROOT    
