@<TRIPOS>MOLECULE
3R8
117   119    1
SMALL
USER_CHARGES


@<TRIPOS>ATOM
      1 CA         15.4027  -30.4809  -41.2001 C.3       0 UNK        -0.2013 
      2 C          15.4563  -28.9624  -41.1449 C.2       0 UNK         0.4866 
      3 O          14.5031  -28.3284  -40.6926 O.2       0 UNK        -0.5176 
      4 N          16.5669  -28.3778  -41.5998 N.am      1 UNK        -0.4884 
      5 CA         16.8279  -26.9400  -41.6322 C.3       1 UNK         0.0853 
      6 C6         16.0988  -26.2355  -42.8139 C.3       10 UNK        -0.0849 
      7 S7         16.7975  -26.4487  -44.4928 S.3       10 UNK        -0.2776 
      8 C8         16.4868  -28.2106  -44.8814 C.3       10 UNK         0.0316 
      9 C9         17.6517  -29.1667  -44.5976 C.ar      10 UNK        -0.0863 
     10 C10        17.4035  -30.5439  -44.5760 C.ar      10 UNK        -0.1009 
     11 C11        18.4372  -31.4580  -44.3408 C.ar      10 UNK        -0.0712 
     12 C12        19.7380  -30.9868  -44.1490 C.ar      10 UNK        -0.0894 
     13 C13        19.9989  -29.6166  -44.1271 C.ar      10 UNK        -0.0745 
     14 C14        18.9588  -28.7169  -44.3680 C.ar      10 UNK        -0.0972 
     15 C15        21.3795  -29.1121  -43.7378 C.3       10 UNK         0.0209 
     16 S16        22.4670  -28.7333  -45.1495 S.3       10 UNK        -0.2568 
     17 C17        21.8870  -27.0894  -45.7066 C.3       10 UNK        -0.0983 
     18 CA         22.4284  -25.8584  -44.9175 C.3       3 UNK         0.0876 
     19 N          21.8598  -25.7453  -43.5755 N.am      3 UNK        -0.4424 
     20 C          20.6659  -25.2131  -43.3016 C.2       2 UNK         0.4918 
     21 O          19.9120  -24.7490  -44.1594 O.2       2 UNK        -0.4875 
     22 CA         20.2465  -25.1554  -41.8247 C.3       2 UNK         0.0481 
     23 CB         20.5005  -23.7546  -41.2464 C.3       2 UNK        -0.1831 
     24 N          18.8219  -25.4791  -41.7028 N.am      2 UNK        -0.4498 
     25 C          18.3543  -26.7253  -41.5644 C.2       1 UNK         0.5027 
     26 O          19.0873  -27.6995  -41.3748 O.2       1 UNK        -0.4969 
     27 C          23.9633  -25.7587  -44.8253 C.2       3 UNK         0.5005 
     28 O          24.5007  -25.4864  -43.7482 O.2       3 UNK        -0.5279 
     29 N          24.6518  -25.9499  -45.9580 N.am      4 UNK        -0.4463 
     30 CA         26.1152  -25.9207  -46.0356 C.3       4 UNK         0.0283 
     31 CB         26.5419  -25.7208  -47.4991 C.3       4 UNK        -0.1875 
     32 C          26.7776  -27.1829  -45.4548 C.2       4 UNK         0.4949 
     33 O          27.9180  -27.1049  -44.9971 O.2       4 UNK        -0.5039 
     34 N          26.0744  -28.3223  -45.5108 N.am      5 UNK        -0.4663 
     35 CA         26.5995  -29.6285  -45.1096 C.3       5 UNK         0.0242 
     36 CB         25.8705  -30.7286  -45.8989 C.3       5 UNK        -0.1982 
     37 C          26.4888  -29.8968  -43.6010 C.2       5 UNK         0.5017 
     38 O          27.3664  -30.5631  -43.0506 O.2       5 UNK        -0.5012 
     39 N          25.4151  -29.4103  -42.9672 N.am      6 UNK        -0.4439 
     40 CA         25.0429  -29.6827  -41.5784 C.3       6 UNK         0.0297 
     41 CB         24.6505  -31.1726  -41.4100 C.3       6 UNK        -0.2006 
     42 C          23.8908  -28.7464  -41.1804 C.2       6 UNK         0.4892 
     43 O          23.6015  -27.7850  -41.8959 O.2       6 UNK        -0.5089 
     44 N          23.2218  -29.0678  -40.0702 N.am      7 UNK        -0.4243 
     45 CA         21.9405  -28.4988  -39.6744 C.3       7 UNK         0.0196 
     46 CB         22.1488  -27.4112  -38.6088 C.3       7 UNK        -0.2007 
     47 C          21.0653  -29.6404  -39.1477 C.2       7 UNK         0.5020 
     48 O          21.5945  -30.5894  -38.5630 O.2       7 UNK        -0.5147 
     49 N          19.7507  -29.5366  -39.3815 N.am      8 UNK        -0.4734 
     50 CA         18.6924  -30.4724  -38.9670 C.3       8 UNK         0.0238 
     51 CB         18.5134  -30.4357  -37.4347 C.3       8 UNK        -0.1912 
     52 C          18.8828  -31.9061  -39.5074 C.2       8 UNK         0.5038 
     53 O          18.4852  -32.8691  -38.8495 O.2       8 UNK        -0.5046 
     54 N          19.5093  -32.0114  -40.6867 N.am      9 UNK        -0.4200 
     55 CA         19.9538  -33.2565  -41.3345 C.3       9 UNK         0.0839 
     56 C          21.0905  -34.0113  -40.5778 C.2       9 UNK         0.5513 
     57 N          21.7834  -33.3971  -39.6248 N.am      9 UNK        -0.7519 
     58 O          21.3764  -35.1665  -40.8824 O.2       9 UNK        -0.4960 
     59 C59        18.7934  -34.1994  -41.7724 C.3       10 UNK        -0.0876 
     60 S60        17.4117  -33.3962  -42.6620 S.3       10 UNK        -0.2414 
     61 C61        18.1387  -32.9494  -44.2726 C.3       10 UNK         0.0169 
     62 H62        16.3358  -30.9015  -41.5722 H         1 UNK         0.0903 
     63 H63        15.2175  -30.8905  -40.2075 H         1 UNK         0.0903 
     64 H64        14.5988  -30.8054  -41.8601 H         1 UNK         0.0903 
     65 H65        17.3455  -28.9295  -41.9399 H         1 UNK         0.3096 
     66 H66        16.4384  -26.5193  -40.7022 H         1 UNK         0.1121 
     67 H67        15.0509  -26.5382  -42.8394 H         1 UNK         0.0849 
     68 H68        16.0692  -25.1621  -42.6218 H         1 UNK         0.0849 
     69 H69        15.5930  -28.5423  -44.3509 H         1 UNK         0.0865 
     70 H70        16.2514  -28.2810  -45.9440 H         1 UNK         0.0865 
     71 H71        16.3981  -30.9105  -44.7341 H         1 UNK         0.1346 
     72 H72        20.5482  -31.6815  -43.9869 H         1 UNK         0.1412 
     73 H73        19.1754  -27.6602  -44.3419 H         1 UNK         0.1426 
     74 H74        21.8778  -29.8656  -43.1269 H         1 UNK         0.0716 
     75 H75        21.2753  -28.2424  -43.0926 H         1 UNK         0.0716 
     76 H76        22.1669  -26.9967  -46.7567 H         1 UNK         0.0695 
     77 H77        20.7987  -27.0757  -45.7198 H         1 UNK         0.0695 
     78 H78        22.1318  -24.9648  -45.4716 H         1 UNK         0.0983 
     79 H79        22.4728  -26.0776  -42.8367 H         1 UNK         0.3095 
     80 H80        20.8448  -25.8685  -41.2542 H         1 UNK         0.0454 
     81 H81        21.5577  -23.4933  -41.3098 H         1 UNK         0.0851 
     82 H82        19.9423  -22.9865  -41.7832 H         1 UNK         0.0851 
     83 H83        20.2175  -23.7029  -40.1950 H         1 UNK         0.0851 
     84 H84        18.1756  -24.7330  -41.9159 H         1 UNK         0.2976 
     85 H85        24.1518  -26.1513  -46.8124 H         1 UNK         0.3116 
     86 H86        26.4765  -25.0650  -45.4606 H         1 UNK         0.0646 
     87 H87        27.6283  -25.6673  -47.5839 H         1 UNK         0.0847 
     88 H88        26.1421  -24.7923  -47.9071 H         1 UNK         0.0847 
     89 H89        26.2069  -26.5409  -48.1355 H         1 UNK         0.0847 
     90 H90        25.1366  -28.2974  -45.8855 H         1 UNK         0.3040 
     91 H91        27.6592  -29.6776  -45.3720 H         1 UNK         0.1015 
     92 H92        25.9977  -30.5969  -46.9736 H         1 UNK         0.0786 
     93 H93        24.8008  -30.7408  -45.6859 H         1 UNK         0.0786 
     94 H94        26.2630  -31.7146  -45.6461 H         1 UNK         0.0786 
     95 H95        24.7736  -28.7977  -43.4575 H         1 UNK         0.3172 
     96 H96        25.8956  -29.4532  -40.9368 H         1 UNK         0.0595 
     97 H97        25.4475  -31.8434  -41.7291 H         1 UNK         0.0839 
     98 H98        23.7606  -31.4210  -41.9900 H         1 UNK         0.0839 
     99 H99        24.4441  -31.4235  -40.3692 H         1 UNK         0.0839 
    100 H100       23.4858  -29.8934  -39.5475 H         1 UNK         0.2998 
    101 H101       21.4531  -28.0609  -40.5455 H         1 UNK         0.0822 
    102 H102       22.7724  -26.6018  -38.9890 H         1 UNK         0.0787 
    103 H103       21.1960  -26.9736  -38.3082 H         1 UNK         0.0787 
    104 H104       22.6255  -27.8110  -37.7129 H         1 UNK         0.0787 
    105 H105       19.4427  -28.7559  -39.9615 H         1 UNK         0.3055 
    106 H106       17.7675  -30.1057  -39.4119 H         1 UNK         0.1106 
    107 H107       19.3813  -30.8459  -36.9172 H         1 UNK         0.0828 
    108 H108       18.3600  -29.4175  -37.0774 H         1 UNK         0.0828 
    109 H109       17.6451  -31.0191  -37.1260 H         1 UNK         0.0828 
    110 H110       19.7928  -31.1580  -41.1436 H         1 UNK         0.2931 
    111 H111       20.4470  -32.9336  -42.2464 H         1 UNK         0.0412 
    112 H112       22.5189  -33.9015  -39.1563 H         1 UNK         0.3472 
    113 H113       21.5676  -32.4481  -39.3399 H         1 UNK         0.3472 
    114 H114       18.3711  -34.6930  -40.8956 H         1 UNK         0.0970 
    115 H115       19.1767  -35.0026  -42.4043 H         1 UNK         0.0970 
    116 H116       19.0381  -33.5382  -44.4588 H         1 UNK         0.0612 
    117 H117       17.4324  -33.2128  -45.0611 H         1 UNK         0.0612 
@<TRIPOS>BOND
     1    1    2 1    
     2    1   62 1    
     3    1   63 1    
     4    1   64 1    
     5    2    3 2    
     6    2    4 am   BACKBONE|DICT|INTERRES
     7    4    5 1    
     8    4   65 1    
     9    5    6 1    
    10    5   25 1    
    11    5   66 1    
    12    6    7 1    
    13    6   67 1    
    14    6   68 1    
    15    7    8 1    
    16    8    9 1    
    17    8   69 1    
    18    8   70 1    
    19    9   10 ar   
    20    9   14 ar   
    21   10   11 ar   
    22   10   71 1    
    23   11   12 ar   
    24   11   61 1    
    25   12   13 ar   
    26   12   72 1    
    27   13   14 ar   
    28   13   15 1    
    29   14   73 1    
    30   15   16 1    
    31   15   74 1    
    32   15   75 1    
    33   16   17 1    
    34   17   18 1    
    35   17   76 1    
    36   17   77 1    
    37   18   19 1    
    38   18   27 1    
    39   18   78 1    
    40   19   20 am   BACKBONE|DICT|INTERRES
    41   19   79 1    
    42   20   21 2    
    43   20   22 1    
    44   22   23 1    
    45   22   24 1    
    46   22   80 1    
    47   23   81 1    
    48   23   82 1    
    49   23   83 1    
    50   24   25 am   BACKBONE|DICT|INTERRES
    51   24   84 1    
    52   25   26 2    
    53   27   28 2    
    54   27   29 am   BACKBONE|DICT|INTERRES
    55   29   30 1    
    56   29   85 1    
    57   30   31 1    
    58   30   32 1    
    59   30   86 1    
    60   31   87 1    
    61   31   88 1    
    62   31   89 1    
    63   32   33 2    
    64   32   34 am   BACKBONE|DICT|INTERRES
    65   34   35 1    
    66   34   90 1    
    67   35   36 1    
    68   35   37 1    
    69   35   91 1    
    70   36   92 1    
    71   36   93 1    
    72   36   94 1    
    73   37   38 2    
    74   37   39 am   BACKBONE|DICT|INTERRES
    75   39   40 1    
    76   39   95 1    
    77   40   41 1    
    78   40   42 1    
    79   40   96 1    
    80   41   97 1    
    81   41   98 1    
    82   41   99 1    
    83   42   43 2    
    84   42   44 am   BACKBONE|DICT|INTERRES
    85   44   45 1    
    86   44  100 1    
    87   45   46 1    
    88   45   47 1    
    89   45  101 1    
    90   46  102 1    
    91   46  103 1    
    92   46  104 1    
    93   47   48 2    
    94   47   49 am   BACKBONE|DICT|INTERRES
    95   49   50 1    
    96   49  105 1    
    97   50   51 1    
    98   50   52 1    
    99   50  106 1    
   100   51  107 1    
   101   51  108 1    
   102   51  109 1    
   103   52   53 2    
   104   52   54 am   BACKBONE|DICT|INTERRES
   105   54   55 1    
   106   54  110 1    
   107   55   56 1    
   108   55   59 1    
   109   55  111 1    
   110   56   57 am   BACKBONE|DICT|INTERRES
   111   56   58 2    
   112   57  112 1    
   113   57  113 1    
   114   59   60 1    
   115   59  114 1    
   116   59  115 1    
   117   60   61 1    
   118   61  116 1    
   119   61  117 1    
@<TRIPOS>SUBSTRUCTURE
     1 UNK         1 GROUP             0       ****    0 ROOT    
