@<TRIPOS>MOLECULE
3R8
117   119    1
SMALL
USER_CHARGES


@<TRIPOS>ATOM
      1 CA         20.6120  -32.9349  -47.1751 C.3       0 UNK        -0.2013 
      2 C          19.7583  -31.7668  -46.7036 C.2       0 UNK         0.4866 
      3 O          18.5375  -31.8959  -46.6299 O.2       0 UNK        -0.5176 
      4 N          20.3910  -30.6324  -46.3888 N.am      1 UNK        -0.4884 
      5 CA         19.7672  -29.4131  -45.8765 C.3       1 UNK         0.0853 
      6 C6         18.9376  -28.6637  -46.9621 C.3       10 UNK        -0.0849 
      7 S7         17.8613  -27.3234  -46.3331 S.3       10 UNK        -0.2776 
      8 C8         16.2978  -28.1865  -45.9701 C.3       10 UNK         0.0316 
      9 C9         16.2977  -28.7606  -44.5614 C.ar      10 UNK        -0.0863 
     10 C10        16.5358  -30.1203  -44.3497 C.ar      10 UNK        -0.1009 
     11 C11        16.5670  -30.6416  -43.0535 C.ar      10 UNK        -0.0712 
     12 C12        16.3402  -29.7968  -41.9632 C.ar      10 UNK        -0.0894 
     13 C13        16.0877  -28.4363  -42.1624 C.ar      10 UNK        -0.0745 
     14 C14        16.0600  -27.9264  -43.4648 C.ar      10 UNK        -0.0972 
     15 C15        15.8338  -27.5228  -40.9704 C.3       10 UNK         0.0209 
     16 S16        17.3685  -27.0839  -40.0891 S.3       10 UNK        -0.2568 
     17 C17        18.1982  -25.9935  -41.2920 C.3       10 UNK        -0.0983 
     18 CA         19.7237  -26.2659  -41.3628 C.3       3 UNK         0.0876 
     19 N          20.2231  -26.1621  -42.7377 N.am      3 UNK        -0.4424 
     20 C          21.4919  -26.3235  -43.1389 C.2       2 UNK         0.4918 
     21 O          22.4369  -26.5590  -42.3826 O.2       2 UNK        -0.4875 
     22 CA         21.7093  -26.2772  -44.6611 C.3       2 UNK         0.0481 
     23 CB         23.1892  -26.4335  -45.0700 C.3       2 UNK        -0.1831 
     24 N          20.8591  -27.2641  -45.3382 N.am      2 UNK        -0.4498 
     25 C          20.8744  -28.5963  -45.1784 C.2       1 UNK         0.5027 
     26 O          21.7175  -29.1940  -44.5032 O.2       1 UNK        -0.4969 
     27 C          20.4957  -25.3443  -40.3974 C.2       3 UNK         0.5005 
     28 O          20.7067  -24.1728  -40.7223 O.2       3 UNK        -0.5279 
     29 N          20.9335  -25.8984  -39.2576 N.am      4 UNK        -0.4463 
     30 CA         21.7692  -25.2982  -38.2039 C.3       4 UNK         0.0283 
     31 CB         21.0783  -24.0820  -37.5568 C.3       4 UNK        -0.1875 
     32 C          23.2105  -24.9508  -38.6314 C.2       4 UNK         0.4949 
     33 O          24.1250  -25.1156  -37.8241 O.2       4 UNK        -0.5039 
     34 N          23.3983  -24.4916  -39.8751 N.am      5 UNK        -0.4663 
     35 CA         24.6901  -24.1608  -40.4811 C.3       5 UNK         0.0242 
     36 CB         24.4529  -23.4422  -41.8193 C.3       5 UNK        -0.1982 
     37 C          25.5929  -25.3895  -40.6793 C.2       5 UNK         0.5017 
     38 O          26.8008  -25.2906  -40.4592 O.2       5 UNK        -0.5012 
     39 N          24.9905  -26.5173  -41.0742 N.am      6 UNK        -0.4439 
     40 CA         25.6571  -27.8097  -41.2320 C.3       6 UNK         0.0297 
     41 CB         26.1942  -27.9653  -42.6651 C.3       6 UNK        -0.2006 
     42 C          24.7336  -28.9767  -40.8595 C.2       6 UNK         0.4892 
     43 O          25.2055  -29.9160  -40.2186 O.2       6 UNK        -0.5089 
     44 N          23.4518  -28.8959  -41.2571 N.am      7 UNK        -0.4243 
     45 CA         22.3983  -29.9054  -41.0860 C.3       7 UNK         0.0196 
     46 CB         21.9800  -30.0122  -39.6050 C.3       7 UNK        -0.2007 
     47 C          22.8042  -31.2583  -41.6997 C.2       7 UNK         0.5020 
     48 O          22.8964  -32.2657  -40.9958 O.2       7 UNK        -0.5147 
     49 N          23.0679  -31.2454  -43.0134 N.am      8 UNK        -0.4734 
     50 CA         23.6015  -32.3770  -43.7836 C.3       8 UNK         0.0238 
     51 CB         23.9881  -31.8900  -45.1891 C.3       8 UNK        -0.1912 
     52 C          22.6690  -33.6009  -43.8580 C.2       8 UNK         0.5038 
     53 O          23.1416  -34.7012  -44.1454 O.2       8 UNK        -0.5046 
     54 N          21.3777  -33.3933  -43.5790 N.am      9 UNK        -0.4200 
     55 CA         20.3748  -34.4405  -43.3460 C.3       9 UNK         0.0839 
     56 C          20.5538  -35.2338  -42.0166 C.2       9 UNK         0.5513 
     57 N          21.3835  -34.7980  -41.0751 N.am      9 UNK        -0.7519 
     58 O          19.9318  -36.2789  -41.8440 O.2       9 UNK        -0.4960 
     59 C59        18.9342  -33.8845  -43.4942 C.3       10 UNK        -0.0876 
     60 S60        18.6317  -32.3712  -42.5166 S.3       10 UNK        -0.2414 
     61 C61        16.8613  -32.1151  -42.8354 C.3       10 UNK         0.0169 
     62 H62        21.6571  -32.6553  -47.3027 H         1 UNK         0.0903 
     63 H63        20.5630  -33.7520  -46.4564 H         1 UNK         0.0903 
     64 H64        20.2444  -33.3033  -48.1324 H         1 UNK         0.0903 
     65 H65        21.4004  -30.5877  -46.4241 H         1 UNK         0.3096 
     66 H66        19.0929  -29.7137  -45.0741 H         1 UNK         0.1121 
     67 H67        19.6019  -28.2481  -47.7220 H         1 UNK         0.0849 
     68 H68        18.3029  -29.3687  -47.4999 H         1 UNK         0.0849 
     69 H69        15.4753  -27.4761  -46.0674 H         1 UNK         0.0865 
     70 H70        16.1109  -28.9646  -46.7118 H         1 UNK         0.0865 
     71 H71        16.7173  -30.7719  -45.1934 H         1 UNK         0.1346 
     72 H72        16.3705  -30.1960  -40.9584 H         1 UNK         0.1412 
     73 H73        15.8663  -26.8748  -43.6281 H         1 UNK         0.1426 
     74 H74        15.3236  -26.6102  -41.2828 H         1 UNK         0.0716 
     75 H75        15.1601  -28.0221  -40.2725 H         1 UNK         0.0716 
     76 H76        17.7453  -26.1549  -42.2688 H         1 UNK         0.0695 
     77 H77        17.9722  -24.9533  -41.0470 H         1 UNK         0.0695 
     78 H78        19.9150  -27.3021  -41.0748 H         1 UNK         0.0983 
     79 H79        19.5280  -25.9684  -43.4425 H         1 UNK         0.3095 
     80 H80        21.3780  -25.2926  -44.9941 H         1 UNK         0.0454 
     81 H81        23.5920  -27.4045  -44.7857 H         1 UNK         0.0851 
     82 H82        23.3139  -26.3250  -46.1470 H         1 UNK         0.0851 
     83 H83        23.8094  -25.6735  -44.5935 H         1 UNK         0.0851 
     84 H84        20.1059  -26.8844  -45.8995 H         1 UNK         0.2976 
     85 H85        20.7022  -26.8693  -39.0991 H         1 UNK         0.3116 
     86 H86        21.8565  -26.0669  -37.4342 H         1 UNK         0.0646 
     87 H87        21.6519  -23.7198  -36.7026 H         1 UNK         0.0847 
     88 H88        20.0830  -24.3373  -37.1934 H         1 UNK         0.0847 
     89 H89        20.9783  -23.2486  -38.2526 H         1 UNK         0.0847 
     90 H90        22.5665  -24.3490  -40.4426 H         1 UNK         0.3040 
     91 H91        25.2101  -23.4753  -39.8083 H         1 UNK         0.1015 
     92 H92        23.8867  -22.5212  -41.6792 H         1 UNK         0.0786 
     93 H93        23.9032  -24.0689  -42.5226 H         1 UNK         0.0786 
     94 H94        25.3987  -23.1725  -42.2913 H         1 UNK         0.0786 
     95 H95        23.9938  -26.4825  -41.2687 H         1 UNK         0.3172 
     96 H96        26.5053  -27.8543  -40.5450 H         1 UNK         0.0595 
     97 H97        26.6975  -28.9249  -42.7909 H         1 UNK         0.0839 
     98 H98        26.9176  -27.1859  -42.9049 H         1 UNK         0.0839 
     99 H99        25.3939  -27.9182  -43.4024 H         1 UNK         0.0839 
    100 H100       23.1685  -28.0830  -41.7997 H         1 UNK         0.2998 
    101 H101       21.5325  -29.5531  -41.6496 H         1 UNK         0.0822 
    102 H102       21.6671  -29.0464  -39.2102 H         1 UNK         0.0787 
    103 H103       21.1415  -30.7000  -39.4877 H         1 UNK         0.0787 
    104 H104       22.7931  -30.3816  -38.9791 H         1 UNK         0.0787 
    105 H105       22.8759  -30.3908  -43.5312 H         1 UNK         0.3055 
    106 H106       24.5104  -32.7130  -43.2794 H         1 UNK         0.1106 
    107 H107       24.3839  -32.7068  -45.7945 H         1 UNK         0.0828 
    108 H108       23.1343  -31.4717  -45.7195 H         1 UNK         0.0828 
    109 H109       24.7596  -31.1212  -45.1416 H         1 UNK         0.0828 
    110 H110       21.0883  -32.4567  -43.3382 H         1 UNK         0.2931 
    111 H111       20.5061  -35.1795  -44.1388 H         1 UNK         0.0412 
    112 H112       21.4855  -35.3324  -40.2272 H         1 UNK         0.3472 
    113 H113       21.8947  -33.9269  -41.1821 H         1 UNK         0.3472 
    114 H114       18.1926  -34.6409  -43.2291 H         1 UNK         0.0970 
    115 H115       18.7452  -33.6490  -44.5416 H         1 UNK         0.0970 
    116 H116       16.2842  -32.4986  -41.9927 H         1 UNK         0.0612 
    117 H117       16.5475  -32.6871  -43.7101 H         1 UNK         0.0612 
@<TRIPOS>BOND
     1    1    2 1    
     2    1   62 1    
     3    1   63 1    
     4    1   64 1    
     5    2    3 2    
     6    2    4 am   BACKBONE|DICT|INTERRES
     7    4    5 1    
     8    4   65 1    
     9    5    6 1    
    10    5   25 1    
    11    5   66 1    
    12    6    7 1    
    13    6   67 1    
    14    6   68 1    
    15    7    8 1    
    16    8    9 1    
    17    8   69 1    
    18    8   70 1    
    19    9   10 ar   
    20    9   14 ar   
    21   10   11 ar   
    22   10   71 1    
    23   11   12 ar   
    24   11   61 1    
    25   12   13 ar   
    26   12   72 1    
    27   13   14 ar   
    28   13   15 1    
    29   14   73 1    
    30   15   16 1    
    31   15   74 1    
    32   15   75 1    
    33   16   17 1    
    34   17   18 1    
    35   17   76 1    
    36   17   77 1    
    37   18   19 1    
    38   18   27 1    
    39   18   78 1    
    40   19   20 am   BACKBONE|DICT|INTERRES
    41   19   79 1    
    42   20   21 2    
    43   20   22 1    
    44   22   23 1    
    45   22   24 1    
    46   22   80 1    
    47   23   81 1    
    48   23   82 1    
    49   23   83 1    
    50   24   25 am   BACKBONE|DICT|INTERRES
    51   24   84 1    
    52   25   26 2    
    53   27   28 2    
    54   27   29 am   BACKBONE|DICT|INTERRES
    55   29   30 1    
    56   29   85 1    
    57   30   31 1    
    58   30   32 1    
    59   30   86 1    
    60   31   87 1    
    61   31   88 1    
    62   31   89 1    
    63   32   33 2    
    64   32   34 am   BACKBONE|DICT|INTERRES
    65   34   35 1    
    66   34   90 1    
    67   35   36 1    
    68   35   37 1    
    69   35   91 1    
    70   36   92 1    
    71   36   93 1    
    72   36   94 1    
    73   37   38 2    
    74   37   39 am   BACKBONE|DICT|INTERRES
    75   39   40 1    
    76   39   95 1    
    77   40   41 1    
    78   40   42 1    
    79   40   96 1    
    80   41   97 1    
    81   41   98 1    
    82   41   99 1    
    83   42   43 2    
    84   42   44 am   BACKBONE|DICT|INTERRES
    85   44   45 1    
    86   44  100 1    
    87   45   46 1    
    88   45   47 1    
    89   45  101 1    
    90   46  102 1    
    91   46  103 1    
    92   46  104 1    
    93   47   48 2    
    94   47   49 am   BACKBONE|DICT|INTERRES
    95   49   50 1    
    96   49  105 1    
    97   50   51 1    
    98   50   52 1    
    99   50  106 1    
   100   51  107 1    
   101   51  108 1    
   102   51  109 1    
   103   52   53 2    
   104   52   54 am   BACKBONE|DICT|INTERRES
   105   54   55 1    
   106   54  110 1    
   107   55   56 1    
   108   55   59 1    
   109   55  111 1    
   110   56   57 am   BACKBONE|DICT|INTERRES
   111   56   58 2    
   112   57  112 1    
   113   57  113 1    
   114   59   60 1    
   115   59  114 1    
   116   59  115 1    
   117   60   61 1    
   118   61  116 1    
   119   61  117 1    
@<TRIPOS>SUBSTRUCTURE
     1 UNK         1 GROUP             0       ****    0 ROOT    
