@<TRIPOS>MOLECULE
3R8
117   119    1
SMALL
USER_CHARGES


@<TRIPOS>ATOM
      1 CA         14.7747  -23.2769  -45.4154 C.3       0 UNK        -0.2013 
      2 C          15.9147  -24.2827  -45.3733 C.2       0 UNK         0.4866 
      3 O          16.8787  -24.1512  -46.1288 O.2       0 UNK        -0.5176 
      4 N          15.8253  -25.2825  -44.4871 N.am      1 UNK        -0.4884 
      5 CA         16.8019  -26.3671  -44.3101 C.3       1 UNK         0.0853 
      6 C6         16.1424  -27.6328  -43.7044 C.3       10 UNK        -0.0849 
      7 S7         14.9124  -28.3405  -44.8540 S.3       10 UNK        -0.2776 
      8 C8         15.2692  -30.1303  -44.7656 C.3       10 UNK         0.0316 
      9 C9         16.6881  -30.5398  -45.1650 C.ar      10 UNK        -0.0863 
     10 C10        17.2700  -31.6443  -44.5329 C.ar      10 UNK        -0.1009 
     11 C11        18.5545  -32.0719  -44.8782 C.ar      10 UNK        -0.0712 
     12 C12        19.2640  -31.3846  -45.8649 C.ar      10 UNK        -0.0894 
     13 C13        18.7048  -30.2716  -46.4992 C.ar      10 UNK        -0.0745 
     14 C14        17.4111  -29.8629  -46.1578 C.ar      10 UNK        -0.0972 
     15 C15        19.5120  -29.5119  -47.5449 C.3       10 UNK         0.0209 
     16 S16        20.2481  -27.9773  -46.8859 S.3       10 UNK        -0.2568 
     17 C17        21.1728  -28.5902  -45.4324 C.3       10 UNK        -0.0983 
     18 CA         21.8720  -27.4839  -44.5973 C.3       3 UNK         0.0876 
     19 N          20.9982  -26.3202  -44.4135 N.am      3 UNK        -0.4424 
     20 C          21.1541  -25.2645  -43.6010 C.2       2 UNK         0.4918 
     21 O          22.1484  -25.0687  -42.9019 O.2       2 UNK        -0.4875 
     22 CA         19.9651  -24.2871  -43.5176 C.3       2 UNK         0.0481 
     23 CB         20.2816  -22.9905  -44.2784 C.3       2 UNK        -0.1831 
     24 N          18.7048  -24.8468  -44.0243 N.am      2 UNK        -0.4498 
     25 C          18.0405  -25.8954  -43.5153 C.2       1 UNK         0.5027 
     26 O          18.3954  -26.4904  -42.4954 O.2       1 UNK        -0.4969 
     27 C          22.3371  -28.1003  -43.2625 C.2       3 UNK         0.5005 
     28 O          23.4913  -28.5162  -43.1475 O.2       3 UNK        -0.5279 
     29 N          21.4311  -28.1126  -42.2706 N.am      4 UNK        -0.4463 
     30 CA         21.6191  -28.6280  -40.9138 C.3       4 UNK         0.0283 
     31 CB         20.3274  -28.4066  -40.1128 C.3       4 UNK        -0.1875 
     32 C          22.8176  -28.0370  -40.1524 C.2       4 UNK         0.4949 
     33 O          23.3426  -28.7102  -39.2676 O.2       4 UNK        -0.5039 
     34 N          23.2608  -26.8272  -40.5248 N.am      5 UNK        -0.4663 
     35 CA         24.4669  -26.1887  -39.9902 C.3       5 UNK         0.0242 
     36 CB         24.5308  -24.7366  -40.4896 C.3       5 UNK        -0.1982 
     37 C          25.7709  -26.9343  -40.3376 C.2       5 UNK         0.5017 
     38 O          26.7509  -26.7827  -39.6070 O.2       5 UNK        -0.5012 
     39 N          25.7628  -27.7151  -41.4277 N.am      6 UNK        -0.4439 
     40 CA         26.8881  -28.5335  -41.8813 C.3       6 UNK         0.0297 
     41 CB         27.2773  -28.1122  -43.3083 C.3       6 UNK        -0.2006 
     42 C          26.5515  -30.0315  -41.8393 C.2       6 UNK         0.4892 
     43 O          27.3898  -30.8239  -41.4090 O.2       6 UNK        -0.5089 
     44 N          25.3481  -30.3989  -42.2997 N.am      7 UNK        -0.4243 
     45 CA         24.9101  -31.7860  -42.4702 C.3       7 UNK         0.0196 
     46 CB         23.8598  -31.8293  -43.5919 C.3       7 UNK        -0.2007 
     47 C          24.3615  -32.4387  -41.1890 C.2       7 UNK         0.5020 
     48 O          24.2117  -33.6603  -41.1706 O.2       7 UNK        -0.5147 
     49 N          24.0577  -31.6357  -40.1563 N.am      8 UNK        -0.4734 
     50 CA         23.4947  -32.0401  -38.8562 C.3       8 UNK         0.0238 
     51 CB         24.4892  -32.9262  -38.0746 C.3       8 UNK        -0.1912 
     52 C          22.0828  -32.6602  -38.9462 C.2       8 UNK         0.5038 
     53 O          21.7107  -33.4604  -38.0855 O.2       8 UNK        -0.5046 
     54 N          21.3254  -32.2768  -39.9820 N.am      9 UNK        -0.4200 
     55 CA         19.9347  -32.6802  -40.2390 C.3       9 UNK         0.0839 
     56 C          18.9567  -32.2516  -39.1107 C.2       9 UNK         0.5513 
     57 N          17.9287  -33.0470  -38.8492 N.am      9 UNK        -0.7519 
     58 O          19.0947  -31.1905  -38.5065 O.2       9 UNK        -0.4960 
     59 C59        19.4436  -32.1493  -41.6114 C.3       10 UNK        -0.0876 
     60 S60        20.4494  -32.7886  -42.9921 S.3       10 UNK        -0.2414 
     61 C61        19.1792  -33.2809  -44.1974 C.3       10 UNK         0.0169 
     62 H62        14.3291  -23.2575  -46.4096 H         1 UNK         0.0903 
     63 H63        13.9910  -23.5180  -44.6974 H         1 UNK         0.0903 
     64 H64        15.1471  -22.2781  -45.1892 H         1 UNK         0.0903 
     65 H65        15.0166  -25.3314  -43.8832 H         1 UNK         0.3096 
     66 H66        17.1804  -26.6470  -45.2967 H         1 UNK         0.1121 
     67 H67        15.6557  -27.4039  -42.7547 H         1 UNK         0.0849 
     68 H68        16.8965  -28.3904  -43.4829 H         1 UNK         0.0849 
     69 H69        15.0545  -30.4641  -43.7490 H         1 UNK         0.0865 
     70 H70        14.5661  -30.6549  -45.4137 H         1 UNK         0.0865 
     71 H71        16.7183  -32.1798  -43.7722 H         1 UNK         0.1346 
     72 H72        20.2628  -31.7082  -46.1246 H         1 UNK         0.1412 
     73 H73        16.9760  -29.0104  -46.6607 H         1 UNK         0.1426 
     74 H74        20.3077  -30.1420  -47.9456 H         1 UNK         0.0716 
     75 H75        18.8694  -29.2609  -48.3900 H         1 UNK         0.0716 
     76 H76        20.4591  -29.1268  -44.8044 H         1 UNK         0.0695 
     77 H77        21.9020  -29.3301  -45.7684 H         1 UNK         0.0695 
     78 H78        22.7583  -27.1397  -45.1334 H         1 UNK         0.0983 
     79 H79        20.1572  -26.3469  -44.9708 H         1 UNK         0.3095 
     80 H80        19.8197  -24.0415  -42.4638 H         1 UNK         0.0454 
     81 H81        20.4172  -23.1712  -45.3455 H         1 UNK         0.0851 
     82 H82        19.4845  -22.2563  -44.1608 H         1 UNK         0.0851 
     83 H83        21.1990  -22.5325  -43.9058 H         1 UNK         0.0851 
     84 H84        18.3108  -24.4184  -44.8587 H         1 UNK         0.2976 
     85 H85        20.5226  -27.7112  -42.4661 H         1 UNK         0.3116 
     86 H86        21.7921  -29.7003  -41.0052 H         1 UNK         0.0646 
     87 H87        20.0917  -27.3459  -40.0150 H         1 UNK         0.0847 
     88 H88        19.4726  -28.8936  -40.5812 H         1 UNK         0.0847 
     89 H89        20.4173  -28.8149  -39.1050 H         1 UNK         0.0847 
     90 H90        22.7826  -26.3393  -41.2748 H         1 UNK         0.3040 
     91 H91        24.3828  -26.1752  -38.9012 H         1 UNK         0.1015 
     92 H92        24.6139  -24.6883  -41.5763 H         1 UNK         0.0786 
     93 H93        25.3944  -24.2168  -40.0724 H         1 UNK         0.0786 
     94 H94        23.6428  -24.1760  -40.1970 H         1 UNK         0.0786 
     95 H95        24.9008  -27.7906  -41.9597 H         1 UNK         0.3172 
     96 H96        27.7578  -28.3795  -41.2391 H         1 UNK         0.0595 
     97 H97        28.1080  -28.7133  -43.6808 H         1 UNK         0.0839 
     98 H98        27.5935  -27.0694  -43.3389 H         1 UNK         0.0839 
     99 H99        26.4482  -28.2303  -44.0074 H         1 UNK         0.0839 
    100 H100       24.7093  -29.6848  -42.6477 H         1 UNK         0.2998 
    101 H101       25.7656  -32.3847  -42.7910 H         1 UNK         0.0822 
    102 H102       23.5225  -32.8502  -43.7763 H         1 UNK         0.0787 
    103 H103       22.9811  -31.2342  -43.3428 H         1 UNK         0.0787 
    104 H104       24.2645  -31.4485  -44.5297 H         1 UNK         0.0787 
    105 H105       24.2229  -30.6425  -40.2621 H         1 UNK         0.3055 
    106 H106       23.3679  -31.1224  -38.2805 H         1 UNK         0.1106 
    107 H107       25.4725  -32.4602  -38.0136 H         1 UNK         0.0828 
    108 H108       24.1473  -33.0903  -37.0520 H         1 UNK         0.0828 
    109 H109       24.6097  -33.9067  -38.5358 H         1 UNK         0.0828 
    110 H110       21.7322  -31.6496  -40.6564 H         1 UNK         0.2931 
    111 H111       19.9318  -33.7715  -40.2788 H         1 UNK         0.0412 
    112 H112       17.2733  -32.7793  -38.1312 H         1 UNK         0.3472 
    113 H113       17.8016  -33.9169  -39.3433 H         1 UNK         0.3472 
    114 H114       18.4014  -32.4308  -41.7720 H         1 UNK         0.0970 
    115 H115       19.4685  -31.0592  -41.6425 H         1 UNK         0.0970 
    116 H116       19.6434  -33.9170  -44.9524 H         1 UNK         0.0612 
    117 H117       18.4214  -33.8942  -43.7075 H         1 UNK         0.0612 
@<TRIPOS>BOND
     1    1    2 1    
     2    1   62 1    
     3    1   63 1    
     4    1   64 1    
     5    2    3 2    
     6    2    4 am   BACKBONE|DICT|INTERRES
     7    4    5 1    
     8    4   65 1    
     9    5    6 1    
    10    5   25 1    
    11    5   66 1    
    12    6    7 1    
    13    6   67 1    
    14    6   68 1    
    15    7    8 1    
    16    8    9 1    
    17    8   69 1    
    18    8   70 1    
    19    9   10 ar   
    20    9   14 ar   
    21   10   11 ar   
    22   10   71 1    
    23   11   12 ar   
    24   11   61 1    
    25   12   13 ar   
    26   12   72 1    
    27   13   14 ar   
    28   13   15 1    
    29   14   73 1    
    30   15   16 1    
    31   15   74 1    
    32   15   75 1    
    33   16   17 1    
    34   17   18 1    
    35   17   76 1    
    36   17   77 1    
    37   18   19 1    
    38   18   27 1    
    39   18   78 1    
    40   19   20 am   BACKBONE|DICT|INTERRES
    41   19   79 1    
    42   20   21 2    
    43   20   22 1    
    44   22   23 1    
    45   22   24 1    
    46   22   80 1    
    47   23   81 1    
    48   23   82 1    
    49   23   83 1    
    50   24   25 am   BACKBONE|DICT|INTERRES
    51   24   84 1    
    52   25   26 2    
    53   27   28 2    
    54   27   29 am   BACKBONE|DICT|INTERRES
    55   29   30 1    
    56   29   85 1    
    57   30   31 1    
    58   30   32 1    
    59   30   86 1    
    60   31   87 1    
    61   31   88 1    
    62   31   89 1    
    63   32   33 2    
    64   32   34 am   BACKBONE|DICT|INTERRES
    65   34   35 1    
    66   34   90 1    
    67   35   36 1    
    68   35   37 1    
    69   35   91 1    
    70   36   92 1    
    71   36   93 1    
    72   36   94 1    
    73   37   38 2    
    74   37   39 am   BACKBONE|DICT|INTERRES
    75   39   40 1    
    76   39   95 1    
    77   40   41 1    
    78   40   42 1    
    79   40   96 1    
    80   41   97 1    
    81   41   98 1    
    82   41   99 1    
    83   42   43 2    
    84   42   44 am   BACKBONE|DICT|INTERRES
    85   44   45 1    
    86   44  100 1    
    87   45   46 1    
    88   45   47 1    
    89   45  101 1    
    90   46  102 1    
    91   46  103 1    
    92   46  104 1    
    93   47   48 2    
    94   47   49 am   BACKBONE|DICT|INTERRES
    95   49   50 1    
    96   49  105 1    
    97   50   51 1    
    98   50   52 1    
    99   50  106 1    
   100   51  107 1    
   101   51  108 1    
   102   51  109 1    
   103   52   53 2    
   104   52   54 am   BACKBONE|DICT|INTERRES
   105   54   55 1    
   106   54  110 1    
   107   55   56 1    
   108   55   59 1    
   109   55  111 1    
   110   56   57 am   BACKBONE|DICT|INTERRES
   111   56   58 2    
   112   57  112 1    
   113   57  113 1    
   114   59   60 1    
   115   59  114 1    
   116   59  115 1    
   117   60   61 1    
   118   61  116 1    
   119   61  117 1    
@<TRIPOS>SUBSTRUCTURE
     1 UNK         1 GROUP             0       ****    0 ROOT    
