@<TRIPOS>MOLECULE
3R8
117   119    1
SMALL
USER_CHARGES


@<TRIPOS>ATOM
      1 CA         17.2552  -24.7997  -47.6997 C.3       0 UNK        -0.2013 
      2 C          17.4709  -25.9730  -46.7558 C.2       0 UNK         0.4866 
      3 O          17.9544  -27.0222  -47.1826 O.2       0 UNK        -0.5176 
      4 N          17.1114  -25.8085  -45.4766 N.am      1 UNK        -0.4884 
      5 CA         17.2840  -26.8135  -44.4249 C.3       1 UNK         0.0853 
      6 C6         16.3078  -26.5857  -43.2427 C.3       10 UNK        -0.0849 
      7 S7         14.6167  -27.0933  -43.7189 S.3       10 UNK        -0.2776 
      8 C8         14.3217  -28.6173  -42.7476 C.3       10 UNK         0.0316 
      9 C9         15.5325  -29.5423  -42.6658 C.ar      10 UNK        -0.0863 
     10 C10        16.1132  -30.0697  -43.8243 C.ar      10 UNK        -0.1009 
     11 C11        17.2755  -30.8439  -43.7467 C.ar      10 UNK        -0.0712 
     12 C12        17.8207  -31.1345  -42.4943 C.ar      10 UNK        -0.0894 
     13 C13        17.2186  -30.6632  -41.3248 C.ar      10 UNK        -0.0745 
     14 C14        16.0824  -29.8560  -41.4187 C.ar      10 UNK        -0.0972 
     15 C15        17.7664  -31.0551  -39.9581 C.3       10 UNK         0.0209 
     16 S16        19.5662  -30.8301  -39.8119 S.3       10 UNK        -0.2568 
     17 C17        19.7070  -29.0176  -39.7340 C.3       10 UNK        -0.0983 
     18 CA         20.8807  -28.5177  -40.6062 C.3       3 UNK         0.0876 
     19 N          20.5755  -28.5261  -42.0434 N.am      3 UNK        -0.4424 
     20 C          21.4786  -28.2632  -42.9999 C.2       2 UNK         0.4918 
     21 O          22.6854  -28.1944  -42.7692 O.2       2 UNK        -0.4875 
     22 CA         20.9791  -27.9198  -44.4177 C.3       2 UNK         0.0481 
     23 CB         21.5100  -28.9066  -45.4692 C.3       2 UNK        -0.1831 
     24 N          19.5287  -27.7693  -44.5751 N.am      2 UNK        -0.4498 
     25 C          18.7562  -26.8495  -43.9792 C.2       1 UNK         0.5027 
     26 O          19.1642  -26.0528  -43.1313 O.2       1 UNK        -0.4969 
     27 C          21.3907  -27.1449  -40.1140 C.2       3 UNK         0.5005 
     28 O          22.1551  -27.1099  -39.1497 O.2       3 UNK        -0.5279 
     29 N          21.0437  -26.0526  -40.8156 N.am      4 UNK        -0.4463 
     30 CA         21.5934  -24.7091  -40.6029 C.3       4 UNK         0.0283 
     31 CB         20.8601  -23.7133  -41.5150 C.3       4 UNK        -0.1875 
     32 C          23.1183  -24.6088  -40.8190 C.2       4 UNK         0.4949 
     33 O          23.7391  -23.7052  -40.2595 O.2       4 UNK        -0.5039 
     34 N          23.7023  -25.5355  -41.5956 N.am      5 UNK        -0.4663 
     35 CA         25.1507  -25.6596  -41.7900 C.3       5 UNK         0.0242 
     36 CB         25.4224  -26.3295  -43.1481 C.3       5 UNK        -0.1982 
     37 C          25.8488  -26.4355  -40.6547 C.2       5 UNK         0.5017 
     38 O          27.0796  -26.4626  -40.6347 O.2       5 UNK        -0.5012 
     39 N          25.0673  -27.0430  -39.7462 N.am      6 UNK        -0.4439 
     40 CA         25.4767  -27.8483  -38.5907 C.3       6 UNK         0.0297 
     41 CB         26.1204  -26.9423  -37.5189 C.3       6 UNK        -0.2006 
     42 C          26.3724  -29.0515  -38.9679 C.2       6 UNK         0.4892 
     43 O          27.5508  -29.0568  -38.6116 O.2       6 UNK        -0.5089 
     44 N          25.8701  -30.0678  -39.6823 N.am      7 UNK        -0.4243 
     45 CA         24.5223  -30.2876  -40.2056 C.3       7 UNK         0.0196 
     46 CB         23.5966  -30.8260  -39.0950 C.3       7 UNK        -0.2007 
     47 C          24.6341  -31.3144  -41.3415 C.2       7 UNK         0.5020 
     48 O          25.6073  -32.0732  -41.3774 O.2       7 UNK        -0.5147 
     49 N          23.6375  -31.3480  -42.2306 N.am      8 UNK        -0.4734 
     50 CA         23.5449  -32.2826  -43.3518 C.3       8 UNK         0.0238 
     51 CB         24.4739  -31.8212  -44.4935 C.3       8 UNK        -0.1912 
     52 C          22.0897  -32.3680  -43.8301 C.2       8 UNK         0.5038 
     53 O          21.2715  -31.5334  -43.4397 O.2       8 UNK        -0.5046 
     54 N          21.8095  -33.3514  -44.6909 N.am      9 UNK        -0.4200 
     55 CA         20.5727  -33.5175  -45.4649 C.3       9 UNK         0.0839 
     56 C          20.7836  -34.5624  -46.5954 C.2       9 UNK         0.5513 
     57 N          19.7758  -34.8023  -47.4212 N.am      9 UNK        -0.7519 
     58 O          21.8535  -35.1541  -46.7365 O.2       9 UNK        -0.4960 
     59 C59        19.3133  -33.7948  -44.5863 C.3       10 UNK        -0.0876 
     60 S60        17.7775  -33.1072  -45.3058 S.3       10 UNK        -0.2414 
     61 C61        17.9709  -31.3184  -45.0141 C.3       10 UNK         0.0169 
     62 H62        18.2055  -24.4861  -48.1308 H         1 UNK         0.0903 
     63 H63        16.5913  -25.0906  -48.5133 H         1 UNK         0.0903 
     64 H64        16.8135  -23.9426  -47.1917 H         1 UNK         0.0903 
     65 H65        16.7296  -24.9227  -45.1763 H         1 UNK         0.3096 
     66 H66        17.0598  -27.7892  -44.8576 H         1 UNK         0.1121 
     67 H67        16.2958  -25.5355  -42.9456 H         1 UNK         0.0849 
     68 H68        16.6195  -27.1354  -42.3533 H         1 UNK         0.0849 
     69 H69        13.9946  -28.3254  -41.7483 H         1 UNK         0.0865 
     70 H70        13.4869  -29.1622  -43.1904 H         1 UNK         0.0865 
     71 H71        15.6837  -29.8354  -44.7890 H         1 UNK         0.1346 
     72 H72        18.7211  -31.7252  -42.4224 H         1 UNK         0.1412 
     73 H73        15.6234  -29.4731  -40.5172 H         1 UNK         0.1426 
     74 H74        17.5339  -32.1064  -39.7841 H         1 UNK         0.0716 
     75 H75        17.2745  -30.4954  -39.1609 H         1 UNK         0.0716 
     76 H76        19.8564  -28.7641  -38.6822 H         1 UNK         0.0695 
     77 H77        18.7712  -28.5420  -40.0330 H         1 UNK         0.0695 
     78 H78        21.7177  -29.2000  -40.4625 H         1 UNK         0.0983 
     79 H79        19.6042  -28.6104  -42.3019 H         1 UNK         0.3095 
     80 H80        21.4159  -26.9458  -44.6475 H         1 UNK         0.0454 
     81 H81        22.5831  -29.0647  -45.3563 H         1 UNK         0.0851 
     82 H82        21.3474  -28.5300  -46.4791 H         1 UNK         0.0851 
     83 H83        21.0264  -29.8787  -45.3975 H         1 UNK         0.0851 
     84 H84        19.1047  -28.3391  -45.2940 H         1 UNK         0.2976 
     85 H85        20.4000  -26.1539  -41.5966 H         1 UNK         0.3116 
     86 H86        21.3939  -24.4336  -39.5653 H         1 UNK         0.0646 
     87 H87        21.0117  -23.9463  -42.5698 H         1 UNK         0.0847 
     88 H88        21.2167  -22.6955  -41.3508 H         1 UNK         0.0847 
     89 H89        19.7868  -23.7145  -41.3240 H         1 UNK         0.0847 
     90 H90        23.1334  -26.2618  -42.0154 H         1 UNK         0.3040 
     91 H91        25.5896  -24.6595  -41.8147 H         1 UNK         0.1015 
     92 H92        24.9047  -25.8163  -43.9587 H         1 UNK         0.0786 
     93 H93        25.1109  -27.3742  -43.1561 H         1 UNK         0.0786 
     94 H94        26.4876  -26.3115  -43.3825 H         1 UNK         0.0786 
     95 H95        24.0632  -26.9322  -39.8404 H         1 UNK         0.3172 
     96 H96        24.5638  -28.2449  -38.1511 H         1 UNK         0.0595 
     97 H97        27.0426  -26.4809  -37.8738 H         1 UNK         0.0839 
     98 H98        26.3669  -27.5135  -36.6230 H         1 UNK         0.0839 
     99 H99        25.4422  -26.1441  -37.2171 H         1 UNK         0.0839 
    100 H100       26.4998  -30.8120  -39.9590 H         1 UNK         0.2998 
    101 H101       24.1244  -29.3635  -40.6253 H         1 UNK         0.0822 
    102 H102       23.3480  -30.0672  -38.3556 H         1 UNK         0.0787 
    103 H103       22.6515  -31.1840  -39.5050 H         1 UNK         0.0787 
    104 H104       24.0515  -31.6668  -38.5699 H         1 UNK         0.0787 
    105 H105       22.8408  -30.7270  -42.1456 H         1 UNK         0.3055 
    106 H106       23.8445  -33.2769  -43.0122 H         1 UNK         0.1106 
    107 H107       24.4107  -32.4867  -45.3551 H         1 UNK         0.0828 
    108 H108       24.2194  -30.8177  -44.8356 H         1 UNK         0.0828 
    109 H109       25.5174  -31.8090  -44.1788 H         1 UNK         0.0828 
    110 H110       22.5390  -33.9955  -44.9699 H         1 UNK         0.2931 
    111 H111       20.4440  -32.5663  -45.9834 H         1 UNK         0.0412 
    112 H112       18.8916  -34.3312  -47.2965 H         1 UNK         0.3472 
    113 H113       19.8915  -35.4745  -48.1636 H         1 UNK         0.3472 
    114 H114       19.1781  -34.8669  -44.4323 H         1 UNK         0.0970 
    115 H115       19.4323  -33.3887  -43.5851 H         1 UNK         0.0970 
    116 H116       17.5745  -30.7877  -45.8810 H         1 UNK         0.0612 
    117 H117       19.0264  -31.0559  -44.9600 H         1 UNK         0.0612 
@<TRIPOS>BOND
     1    1    2 1    
     2    1   62 1    
     3    1   63 1    
     4    1   64 1    
     5    2    3 2    
     6    2    4 am   BACKBONE|DICT|INTERRES
     7    4    5 1    
     8    4   65 1    
     9    5    6 1    
    10    5   25 1    
    11    5   66 1    
    12    6    7 1    
    13    6   67 1    
    14    6   68 1    
    15    7    8 1    
    16    8    9 1    
    17    8   69 1    
    18    8   70 1    
    19    9   10 ar   
    20    9   14 ar   
    21   10   11 ar   
    22   10   71 1    
    23   11   12 ar   
    24   11   61 1    
    25   12   13 ar   
    26   12   72 1    
    27   13   14 ar   
    28   13   15 1    
    29   14   73 1    
    30   15   16 1    
    31   15   74 1    
    32   15   75 1    
    33   16   17 1    
    34   17   18 1    
    35   17   76 1    
    36   17   77 1    
    37   18   19 1    
    38   18   27 1    
    39   18   78 1    
    40   19   20 am   BACKBONE|DICT|INTERRES
    41   19   79 1    
    42   20   21 2    
    43   20   22 1    
    44   22   23 1    
    45   22   24 1    
    46   22   80 1    
    47   23   81 1    
    48   23   82 1    
    49   23   83 1    
    50   24   25 am   BACKBONE|DICT|INTERRES
    51   24   84 1    
    52   25   26 2    
    53   27   28 2    
    54   27   29 am   BACKBONE|DICT|INTERRES
    55   29   30 1    
    56   29   85 1    
    57   30   31 1    
    58   30   32 1    
    59   30   86 1    
    60   31   87 1    
    61   31   88 1    
    62   31   89 1    
    63   32   33 2    
    64   32   34 am   BACKBONE|DICT|INTERRES
    65   34   35 1    
    66   34   90 1    
    67   35   36 1    
    68   35   37 1    
    69   35   91 1    
    70   36   92 1    
    71   36   93 1    
    72   36   94 1    
    73   37   38 2    
    74   37   39 am   BACKBONE|DICT|INTERRES
    75   39   40 1    
    76   39   95 1    
    77   40   41 1    
    78   40   42 1    
    79   40   96 1    
    80   41   97 1    
    81   41   98 1    
    82   41   99 1    
    83   42   43 2    
    84   42   44 am   BACKBONE|DICT|INTERRES
    85   44   45 1    
    86   44  100 1    
    87   45   46 1    
    88   45   47 1    
    89   45  101 1    
    90   46  102 1    
    91   46  103 1    
    92   46  104 1    
    93   47   48 2    
    94   47   49 am   BACKBONE|DICT|INTERRES
    95   49   50 1    
    96   49  105 1    
    97   50   51 1    
    98   50   52 1    
    99   50  106 1    
   100   51  107 1    
   101   51  108 1    
   102   51  109 1    
   103   52   53 2    
   104   52   54 am   BACKBONE|DICT|INTERRES
   105   54   55 1    
   106   54  110 1    
   107   55   56 1    
   108   55   59 1    
   109   55  111 1    
   110   56   57 am   BACKBONE|DICT|INTERRES
   111   56   58 2    
   112   57  112 1    
   113   57  113 1    
   114   59   60 1    
   115   59  114 1    
   116   59  115 1    
   117   60   61 1    
   118   61  116 1    
   119   61  117 1    
@<TRIPOS>SUBSTRUCTURE
     1 UNK         1 GROUP             0       ****    0 ROOT    
