@<TRIPOS>MOLECULE
3R8
117   119    1
SMALL
USER_CHARGES


@<TRIPOS>ATOM
      1 CA         15.0931  -33.5883  -46.0805 C.3       0 UNK        -0.2013 
      2 C          15.9966  -32.5059  -45.5101 C.2       0 UNK         0.4866 
      3 O          16.7955  -32.7882  -44.6170 O.2       0 UNK        -0.5176 
      4 N          15.8678  -31.2717  -46.0120 N.am      1 UNK        -0.4884 
      5 CA         16.6821  -30.1162  -45.6225 C.3       1 UNK         0.0853 
      6 C6         16.0392  -28.7808  -46.0794 C.3       10 UNK        -0.0849 
      7 S7         14.4176  -28.4876  -45.2914 S.3       10 UNK        -0.2776 
      8 C8         14.6601  -26.8667  -44.4765 C.3       10 UNK         0.0316 
      9 C9         15.8069  -26.8216  -43.4665 C.ar      10 UNK        -0.0863 
     10 C10        16.1203  -27.9253  -42.6671 C.ar      10 UNK        -0.1009 
     11 C11        17.1942  -27.8772  -41.7766 C.ar      10 UNK        -0.0712 
     12 C12        17.9308  -26.6985  -41.6418 C.ar      10 UNK        -0.0894 
     13 C13        17.6214  -25.5793  -42.4210 C.ar      10 UNK        -0.0745 
     14 C14        16.5600  -25.6501  -43.3307 C.ar      10 UNK        -0.0972 
     15 C15        18.4276  -24.2897  -42.2930 C.3       10 UNK         0.0209 
     16 S16        20.2354  -24.5362  -42.3799 S.3       10 UNK        -0.2568 
     17 C17        20.4443  -25.3894  -43.9796 C.3       10 UNK        -0.0983 
     18 CA         21.2942  -26.6790  -43.8248 C.3       3 UNK         0.0876 
     19 N          20.8512  -27.7249  -44.7461 N.am      3 UNK        -0.4424 
     20 C          21.2311  -29.0082  -44.7075 C.2       2 UNK         0.4918 
     21 O          22.0164  -29.4815  -43.8821 O.2       2 UNK        -0.4875 
     22 CA         20.5286  -29.9162  -45.7231 C.3       2 UNK         0.0481 
     23 CB         21.1166  -31.3374  -45.7898 C.3       2 UNK        -0.1831 
     24 N          19.1125  -29.9590  -45.3669 N.am      2 UNK        -0.4498 
     25 C          18.1060  -30.2433  -46.1988 C.2       1 UNK         0.5027 
     26 O          18.2582  -30.5509  -47.3839 O.2       1 UNK        -0.4969 
     27 C          22.7977  -26.3718  -43.9827 C.2       3 UNK         0.5005 
     28 O          23.3099  -26.3653  -45.1054 O.2       3 UNK        -0.5279 
     29 N          23.4531  -26.0785  -42.8569 N.am      4 UNK        -0.4463 
     30 CA         24.8511  -25.6851  -42.7090 C.3       4 UNK         0.0283 
     31 CB         25.7963  -26.8413  -43.1041 C.3       4 UNK        -0.1875 
     32 C          25.0487  -25.2742  -41.2419 C.2       4 UNK         0.4949 
     33 O          24.1077  -25.3780  -40.4490 O.2       4 UNK        -0.5039 
     34 N          26.2710  -24.8501  -40.8884 N.am      5 UNK        -0.4663 
     35 CA         26.6787  -24.5596  -39.5041 C.3       5 UNK         0.0242 
     36 CB         28.0920  -23.9551  -39.5015 C.3       5 UNK        -0.1982 
     37 C          26.6144  -25.7961  -38.5850 C.2       5 UNK         0.5017 
     38 O          26.3151  -25.6614  -37.3983 O.2       5 UNK        -0.5012 
     39 N          26.8510  -26.9731  -39.1737 N.am      6 UNK        -0.4439 
     40 CA         26.5487  -28.2867  -38.6230 C.3       6 UNK         0.0297 
     41 CB         27.8596  -29.0239  -38.2926 C.3       6 UNK        -0.2006 
     42 C          25.7201  -28.9978  -39.6992 C.2       6 UNK         0.4892 
     43 O          26.2910  -29.6477  -40.5768 O.2       6 UNK        -0.5089 
     44 N          24.4000  -28.7678  -39.6701 N.am      7 UNK        -0.4243 
     45 CA         23.4304  -29.2625  -40.6528 C.3       7 UNK         0.0196 
     46 CB         22.0469  -28.6734  -40.3347 C.3       7 UNK        -0.2007 
     47 C          23.3695  -30.7989  -40.7103 C.2       7 UNK         0.5020 
     48 O          23.5279  -31.4613  -39.6824 O.2       7 UNK        -0.5147 
     49 N          23.1166  -31.3296  -41.9103 N.am      8 UNK        -0.4734 
     50 CA         23.1102  -32.7649  -42.2142 C.3       8 UNK         0.0238 
     51 CB         24.0927  -33.0206  -43.3730 C.3       8 UNK        -0.1912 
     52 C          21.6930  -33.2699  -42.5379 C.2       8 UNK         0.5038 
     53 O          21.5474  -34.2219  -43.3067 O.2       8 UNK        -0.5046 
     54 N          20.6786  -32.5934  -41.9859 N.am      9 UNK        -0.4200 
     55 CA         19.2470  -32.8158  -42.2321 C.3       9 UNK         0.0839 
     56 C          18.7551  -34.2531  -41.9151 C.2       9 UNK         0.5513 
     57 N          17.7591  -34.7265  -42.6502 N.am      9 UNK        -0.7519 
     58 O          19.2253  -34.9099  -40.9880 O.2       9 UNK        -0.4960 
     59 C59        18.3840  -31.7742  -41.4790 C.3       10 UNK        -0.0876 
     60 S60        18.7733  -30.0768  -42.0017 S.3       10 UNK        -0.2414 
     61 C61        17.5889  -29.1241  -41.0108 C.3       10 UNK         0.0169 
     62 H62        14.4281  -33.2009  -46.8522 H         1 UNK         0.0903 
     63 H63        15.6942  -34.3847  -46.5186 H         1 UNK         0.0903 
     64 H64        14.4802  -34.0195  -45.2895 H         1 UNK         0.0903 
     65 H65        15.2000  -31.1013  -46.7502 H         1 UNK         0.3096 
     66 H66        16.7533  -30.1122  -44.5325 H         1 UNK         0.1121 
     67 H67        16.7017  -27.9421  -45.8563 H         1 UNK         0.0849 
     68 H68        15.9006  -28.7704  -47.1624 H         1 UNK         0.0849 
     69 H69        14.8122  -26.1159  -45.2538 H         1 UNK         0.0865 
     70 H70        13.7372  -26.5937  -43.9634 H         1 UNK         0.0865 
     71 H71        15.5491  -28.8388  -42.7570 H         1 UNK         0.1346 
     72 H72        18.7625  -26.6615  -40.9516 H         1 UNK         0.1412 
     73 H73        16.3197  -24.7881  -43.9385 H         1 UNK         0.1426 
     74 H74        18.1841  -23.8186  -41.3399 H         1 UNK         0.0716 
     75 H75        18.1424  -23.5778  -43.0692 H         1 UNK         0.0716 
     76 H76        20.8766  -24.6951  -44.7034 H         1 UNK         0.0695 
     77 H77        19.4573  -25.6316  -44.3747 H         1 UNK         0.0695 
     78 H78        21.1340  -27.0896  -42.8251 H         1 UNK         0.0983 
     79 H79        20.2157  -27.4347  -45.4738 H         1 UNK         0.3095 
     80 H80        20.6417  -29.4507  -46.7045 H         1 UNK         0.0454 
     81 H81        20.9448  -31.8803  -44.8635 H         1 UNK         0.0851 
     82 H82        22.1925  -31.3107  -45.9652 H         1 UNK         0.0851 
     83 H83        20.6702  -31.9148  -46.5991 H         1 UNK         0.0851 
     84 H84        18.9069  -29.7235  -44.4026 H         1 UNK         0.2976 
     85 H85        22.9504  -26.0371  -41.9762 H         1 UNK         0.3116 
     86 H86        25.0410  -24.8154  -43.3406 H         1 UNK         0.0646 
     87 H87        25.6322  -27.7259  -42.4903 H         1 UNK         0.0847 
     88 H88        26.8434  -26.5583  -42.9954 H         1 UNK         0.0847 
     89 H89        25.6621  -27.1347  -44.1449 H         1 UNK         0.0847 
     90 H90        26.9833  -24.7617  -41.5998 H         1 UNK         0.3040 
     91 H91        25.9854  -23.8185  -39.0996 H         1 UNK         0.1015 
     92 H92        28.1305  -23.0325  -40.0812 H         1 UNK         0.0786 
     93 H93        28.8289  -24.6445  -39.9156 H         1 UNK         0.0786 
     94 H94        28.4090  -23.7107  -38.4865 H         1 UNK         0.0786 
     95 H95        27.0758  -26.9629  -40.1588 H         1 UNK         0.3172 
     96 H96        25.9488  -28.2063  -37.7137 H         1 UNK         0.0595 
     97 H97        28.5095  -29.1140  -39.1640 H         1 UNK         0.0839 
     98 H98        27.6569  -30.0321  -37.9295 H         1 UNK         0.0839 
     99 H99        28.4177  -28.5034  -37.5143 H         1 UNK         0.0839 
    100 H100       24.0282  -28.2008  -38.9219 H         1 UNK         0.2998 
    101 H101       23.7421  -28.8955  -41.6325 H         1 UNK         0.0822 
    102 H102       22.0733  -27.5841  -40.3024 H         1 UNK         0.0787 
    103 H103       21.3231  -28.9546  -41.0991 H         1 UNK         0.0787 
    104 H104       21.6664  -29.0297  -39.3766 H         1 UNK         0.0787 
    105 H105       22.8916  -30.7046  -42.6831 H         1 UNK         0.3055 
    106 H106       23.4526  -33.3401  -41.3511 H         1 UNK         0.1106 
    107 H107       24.1760  -34.0857  -43.5935 H         1 UNK         0.0828 
    108 H108       23.7745  -32.5198  -44.2879 H         1 UNK         0.0828 
    109 H109       25.0938  -32.6654  -43.1277 H         1 UNK         0.0828 
    110 H110       20.9041  -31.8212  -41.3778 H         1 UNK         0.2931 
    111 H111       19.1065  -32.6564  -43.3029 H         1 UNK         0.0412 
    112 H112       17.3634  -34.1535  -43.3919 H         1 UNK         0.3472 
    113 H113       17.3944  -35.6481  -42.4684 H         1 UNK         0.3472 
    114 H114       17.3236  -31.9489  -41.6736 H         1 UNK         0.0970 
    115 H115       18.5226  -31.8599  -40.3995 H         1 UNK         0.0970 
    116 H116       16.7036  -29.7241  -40.7946 H         1 UNK         0.0612 
    117 H117       18.0383  -28.8669  -40.0505 H         1 UNK         0.0612 
@<TRIPOS>BOND
     1    1    2 1    
     2    1   62 1    
     3    1   63 1    
     4    1   64 1    
     5    2    3 2    
     6    2    4 am   BACKBONE|DICT|INTERRES
     7    4    5 1    
     8    4   65 1    
     9    5    6 1    
    10    5   25 1    
    11    5   66 1    
    12    6    7 1    
    13    6   67 1    
    14    6   68 1    
    15    7    8 1    
    16    8    9 1    
    17    8   69 1    
    18    8   70 1    
    19    9   10 ar   
    20    9   14 ar   
    21   10   11 ar   
    22   10   71 1    
    23   11   12 ar   
    24   11   61 1    
    25   12   13 ar   
    26   12   72 1    
    27   13   14 ar   
    28   13   15 1    
    29   14   73 1    
    30   15   16 1    
    31   15   74 1    
    32   15   75 1    
    33   16   17 1    
    34   17   18 1    
    35   17   76 1    
    36   17   77 1    
    37   18   19 1    
    38   18   27 1    
    39   18   78 1    
    40   19   20 am   BACKBONE|DICT|INTERRES
    41   19   79 1    
    42   20   21 2    
    43   20   22 1    
    44   22   23 1    
    45   22   24 1    
    46   22   80 1    
    47   23   81 1    
    48   23   82 1    
    49   23   83 1    
    50   24   25 am   BACKBONE|DICT|INTERRES
    51   24   84 1    
    52   25   26 2    
    53   27   28 2    
    54   27   29 am   BACKBONE|DICT|INTERRES
    55   29   30 1    
    56   29   85 1    
    57   30   31 1    
    58   30   32 1    
    59   30   86 1    
    60   31   87 1    
    61   31   88 1    
    62   31   89 1    
    63   32   33 2    
    64   32   34 am   BACKBONE|DICT|INTERRES
    65   34   35 1    
    66   34   90 1    
    67   35   36 1    
    68   35   37 1    
    69   35   91 1    
    70   36   92 1    
    71   36   93 1    
    72   36   94 1    
    73   37   38 2    
    74   37   39 am   BACKBONE|DICT|INTERRES
    75   39   40 1    
    76   39   95 1    
    77   40   41 1    
    78   40   42 1    
    79   40   96 1    
    80   41   97 1    
    81   41   98 1    
    82   41   99 1    
    83   42   43 2    
    84   42   44 am   BACKBONE|DICT|INTERRES
    85   44   45 1    
    86   44  100 1    
    87   45   46 1    
    88   45   47 1    
    89   45  101 1    
    90   46  102 1    
    91   46  103 1    
    92   46  104 1    
    93   47   48 2    
    94   47   49 am   BACKBONE|DICT|INTERRES
    95   49   50 1    
    96   49  105 1    
    97   50   51 1    
    98   50   52 1    
    99   50  106 1    
   100   51  107 1    
   101   51  108 1    
   102   51  109 1    
   103   52   53 2    
   104   52   54 am   BACKBONE|DICT|INTERRES
   105   54   55 1    
   106   54  110 1    
   107   55   56 1    
   108   55   59 1    
   109   55  111 1    
   110   56   57 am   BACKBONE|DICT|INTERRES
   111   56   58 2    
   112   57  112 1    
   113   57  113 1    
   114   59   60 1    
   115   59  114 1    
   116   59  115 1    
   117   60   61 1    
   118   61  116 1    
   119   61  117 1    
@<TRIPOS>SUBSTRUCTURE
     1 UNK         1 GROUP             0       ****    0 ROOT    
