@<TRIPOS>MOLECULE
3R8
117   119    1
SMALL
USER_CHARGES


@<TRIPOS>ATOM
      1 CA         13.1674  -23.5766  -43.4608 C.3       0 UNK        -0.2013 
      2 C          14.1453  -23.9774  -44.5554 C.2       0 UNK         0.4866 
      3 O          14.1807  -23.3394  -45.6085 O.2       0 UNK        -0.5176 
      4 N          14.9320  -25.0345  -44.3196 N.am      1 UNK        -0.4884 
      5 CA         15.9635  -25.5301  -45.2373 C.3       1 UNK         0.0853 
      6 C6         16.4324  -26.9528  -44.8524 C.3       10 UNK        -0.0849 
      7 S7         15.1365  -28.2083  -45.1330 S.3       10 UNK        -0.2776 
      8 C8         15.4723  -29.4255  -43.8082 C.3       10 UNK         0.0316 
      9 C9         16.9412  -29.8282  -43.6793 C.ar      10 UNK        -0.0863 
     10 C10        17.4999  -29.9935  -42.4076 C.ar      10 UNK        -0.1009 
     11 C11        18.8525  -30.3139  -42.2567 C.ar      10 UNK        -0.0712 
     12 C12        19.6558  -30.4505  -43.3922 C.ar      10 UNK        -0.0894 
     13 C13        19.1124  -30.2848  -44.6690 C.ar      10 UNK        -0.0745 
     14 C14        17.7499  -30.0109  -44.8073 C.ar      10 UNK        -0.0972 
     15 C15        20.0078  -30.3373  -45.8983 C.3       10 UNK         0.0209 
     16 S16        20.3019  -28.6717  -46.5854 S.3       10 UNK        -0.2568 
     17 C17        21.0632  -27.8216  -45.1610 C.3       10 UNK        -0.0983 
     18 CA         21.4536  -26.3521  -45.4572 C.3       3 UNK         0.0876 
     19 N          20.2944  -25.5668  -45.8941 N.am      3 UNK        -0.4424 
     20 C          20.3203  -24.3016  -46.3338 C.2       2 UNK         0.4918 
     21 O          21.3542  -23.6412  -46.4470 O.2       2 UNK        -0.4875 
     22 CA         18.9800  -23.6644  -46.7555 C.3       2 UNK         0.0481 
     23 CB         18.9961  -23.3259  -48.2562 C.3       2 UNK        -0.1831 
     24 N          17.8080  -24.5033  -46.4775 N.am      2 UNK        -0.4498 
     25 C          17.1694  -24.5687  -45.3008 C.2       1 UNK         0.5027 
     26 O          17.5153  -23.9435  -44.2952 O.2       1 UNK        -0.4969 
     27 C          22.1305  -25.7396  -44.2112 C.2       3 UNK         0.5005 
     28 O          21.4513  -25.1469  -43.3686 O.2       3 UNK        -0.5279 
     29 N          23.4506  -25.9451  -44.0902 N.am      4 UNK        -0.4463 
     30 CA         24.2558  -25.5225  -42.9365 C.3       4 UNK         0.0283 
     31 CB         25.7476  -25.6050  -43.3005 C.3       4 UNK        -0.1875 
     32 C          23.9738  -26.3338  -41.6571 C.2       4 UNK         0.4949 
     33 O          24.2348  -25.8357  -40.5628 O.2       4 UNK        -0.5039 
     34 N          23.4666  -27.5663  -41.8231 N.am      5 UNK        -0.4663 
     35 CA         23.0411  -28.5211  -40.7871 C.3       5 UNK         0.0242 
     36 CB         21.8942  -27.9387  -39.9346 C.3       5 UNK        -0.1982 
     37 C          24.1746  -29.0957  -39.9135 C.2       5 UNK         0.5017 
     38 O          23.8855  -29.8060  -38.9497 O.2       5 UNK        -0.5012 
     39 N          25.4385  -28.8434  -40.2851 N.am      6 UNK        -0.4439 
     40 CA         26.6447  -29.3200  -39.5944 C.3       6 UNK         0.0297 
     41 CB         27.8821  -28.6734  -40.2375 C.3       6 UNK        -0.2006 
     42 C          26.7912  -30.8542  -39.5667 C.2       6 UNK         0.4892 
     43 O          27.4280  -31.3852  -38.6569 O.2       6 UNK        -0.5089 
     44 N          26.1757  -31.5340  -40.5433 N.am      7 UNK        -0.4243 
     45 CA         26.0868  -32.9924  -40.6432 C.3       7 UNK         0.0196 
     46 CB         25.9334  -33.3679  -42.1286 C.3       7 UNK        -0.2007 
     47 C          24.9412  -33.5981  -39.8046 C.2       7 UNK         0.5020 
     48 O          24.6818  -34.7941  -39.9400 O.2       7 UNK        -0.5147 
     49 N          24.2396  -32.7809  -38.9998 N.am      8 UNK        -0.4734 
     50 CA         23.0673  -33.1339  -38.1811 C.3       8 UNK         0.0238 
     51 CB         23.4607  -34.0964  -37.0400 C.3       8 UNK        -0.1912 
     52 C          21.8882  -33.6526  -39.0291 C.2       8 UNK         0.5038 
     53 O          21.1862  -34.5797  -38.6212 O.2       8 UNK        -0.5046 
     54 N          21.7280  -33.0458  -40.2120 N.am      9 UNK        -0.4200 
     55 CA         20.7786  -33.4069  -41.2768 C.3       9 UNK         0.0839 
     56 C          21.1082  -34.7418  -42.0131 C.2       9 UNK         0.5513 
     57 N          22.2612  -35.3651  -41.7957 N.am      9 UNK        -0.7519 
     58 O          20.3155  -35.2082  -42.8272 O.2       9 UNK        -0.4960 
     59 C59        19.2801  -33.3246  -40.8536 C.3       10 UNK        -0.0876 
     60 S60        18.7716  -31.8381  -39.9143 S.3       10 UNK        -0.2414 
     61 C61        19.4588  -30.4459  -40.8667 C.3       10 UNK         0.0169 
     62 H62        12.1457  -23.6144  -43.8380 H         1 UNK         0.0903 
     63 H63        13.2330  -24.2340  -42.5940 H         1 UNK         0.0903 
     64 H64        13.3715  -22.5585  -43.1303 H         1 UNK         0.0903 
     65 H65        14.8689  -25.5145  -43.4335 H         1 UNK         0.3096 
     66 H66        15.5223  -25.5715  -46.2363 H         1 UNK         0.1121 
     67 H67        16.7579  -26.9794  -43.8103 H         1 UNK         0.0849 
     68 H68        17.2975  -27.2512  -45.4479 H         1 UNK         0.0849 
     69 H69        15.1123  -29.0064  -42.8672 H         1 UNK         0.0865 
     70 H70        14.8775  -30.3209  -43.9929 H         1 UNK         0.0865 
     71 H71        16.8867  -29.8605  -41.5265 H         1 UNK         0.1346 
     72 H72        20.7122  -30.6522  -43.2851 H         1 UNK         0.1412 
     73 H73        17.3348  -29.8811  -45.7974 H         1 UNK         0.1426 
     74 H74        19.5418  -30.9610  -46.6625 H         1 UNK         0.0716 
     75 H75        20.9657  -30.8036  -45.6626 H         1 UNK         0.0716 
     76 H76        21.9376  -28.4011  -44.8588 H         1 UNK         0.0695 
     77 H77        20.3642  -27.8545  -44.3229 H         1 UNK         0.0695 
     78 H78        22.1759  -26.3400  -46.2763 H         1 UNK         0.0983 
     79 H79        19.4035  -26.0332  -45.8372 H         1 UNK         0.3095 
     80 H80        18.8814  -22.7279  -46.2026 H         1 UNK         0.0454 
     81 H81        19.1090  -24.2192  -48.8716 H         1 UNK         0.0851 
     82 H82        19.8234  -22.6576  -48.4991 H         1 UNK         0.0851 
     83 H83        18.0787  -22.8212  -48.5597 H         1 UNK         0.0851 
     84 H84        17.4649  -25.0567  -47.2507 H         1 UNK         0.2976 
     85 H85        23.9400  -26.4330  -44.8279 H         1 UNK         0.3116 
     86 H86        24.0161  -24.4791  -42.7196 H         1 UNK         0.0646 
     87 H87        25.9845  -24.9663  -44.1516 H         1 UNK         0.0847 
     88 H88        26.0511  -26.6227  -43.5489 H         1 UNK         0.0847 
     89 H89        26.3713  -25.2736  -42.4688 H         1 UNK         0.0847 
     90 H90        23.3257  -27.8724  -42.7751 H         1 UNK         0.3040 
     91 H91        22.6379  -29.3775  -41.3286 H         1 UNK         0.1015 
     92 H92        22.2289  -27.1030  -39.3196 H         1 UNK         0.0786 
     93 H93        21.4843  -28.6895  -39.2580 H         1 UNK         0.0786 
     94 H94        21.0748  -27.5862  -40.5615 H         1 UNK         0.0786 
     95 H95        25.5773  -28.2434  -41.0847 H         1 UNK         0.3172 
     96 H96        26.5830  -28.9823  -38.5578 H         1 UNK         0.0595 
     97 H97        27.9868  -28.9533  -41.2865 H         1 UNK         0.0839 
     98 H98        28.7946  -28.9833  -39.7258 H         1 UNK         0.0839 
     99 H99        27.8371  -27.5854  -40.1817 H         1 UNK         0.0839 
    100 H100       25.6880  -31.0033  -41.2499 H         1 UNK         0.2998 
    101 H101       27.0175  -33.4300  -40.2758 H         1 UNK         0.0822 
    102 H102       25.9410  -34.4503  -42.2645 H         1 UNK         0.0787 
    103 H103       24.9971  -32.9948  -42.5458 H         1 UNK         0.0787 
    104 H104       26.7520  -32.9665  -42.7263 H         1 UNK         0.0787 
    105 H105       24.4951  -31.7989  -38.9730 H         1 UNK         0.3055 
    106 H106       22.7206  -32.2053  -37.7237 H         1 UNK         0.1106 
    107 H107       23.7594  -35.0746  -37.4179 H         1 UNK         0.0828 
    108 H108       22.6250  -34.2547  -36.3572 H         1 UNK         0.0828 
    109 H109       24.2867  -33.6971  -36.4516 H         1 UNK         0.0828 
    110 H110       22.3830  -32.3158  -40.4452 H         1 UNK         0.2931 
    111 H111       20.9342  -32.6498  -42.0430 H         1 UNK         0.0412 
    112 H112       22.9289  -35.0229  -41.1159 H         1 UNK         0.3472 
    113 H113       22.4539  -36.2196  -42.2939 H         1 UNK         0.3472 
    114 H114       19.0187  -34.1935  -40.2474 H         1 UNK         0.0970 
    115 H115       18.6435  -33.3816  -41.7386 H         1 UNK         0.0970 
    116 H116       20.5428  -30.5407  -40.9155 H         1 UNK         0.0612 
    117 H117       19.2622  -29.5260  -40.3148 H         1 UNK         0.0612 
@<TRIPOS>BOND
     1    1    2 1    
     2    1   62 1    
     3    1   63 1    
     4    1   64 1    
     5    2    3 2    
     6    2    4 am   BACKBONE|DICT|INTERRES
     7    4    5 1    
     8    4   65 1    
     9    5    6 1    
    10    5   25 1    
    11    5   66 1    
    12    6    7 1    
    13    6   67 1    
    14    6   68 1    
    15    7    8 1    
    16    8    9 1    
    17    8   69 1    
    18    8   70 1    
    19    9   10 ar   
    20    9   14 ar   
    21   10   11 ar   
    22   10   71 1    
    23   11   12 ar   
    24   11   61 1    
    25   12   13 ar   
    26   12   72 1    
    27   13   14 ar   
    28   13   15 1    
    29   14   73 1    
    30   15   16 1    
    31   15   74 1    
    32   15   75 1    
    33   16   17 1    
    34   17   18 1    
    35   17   76 1    
    36   17   77 1    
    37   18   19 1    
    38   18   27 1    
    39   18   78 1    
    40   19   20 am   BACKBONE|DICT|INTERRES
    41   19   79 1    
    42   20   21 2    
    43   20   22 1    
    44   22   23 1    
    45   22   24 1    
    46   22   80 1    
    47   23   81 1    
    48   23   82 1    
    49   23   83 1    
    50   24   25 am   BACKBONE|DICT|INTERRES
    51   24   84 1    
    52   25   26 2    
    53   27   28 2    
    54   27   29 am   BACKBONE|DICT|INTERRES
    55   29   30 1    
    56   29   85 1    
    57   30   31 1    
    58   30   32 1    
    59   30   86 1    
    60   31   87 1    
    61   31   88 1    
    62   31   89 1    
    63   32   33 2    
    64   32   34 am   BACKBONE|DICT|INTERRES
    65   34   35 1    
    66   34   90 1    
    67   35   36 1    
    68   35   37 1    
    69   35   91 1    
    70   36   92 1    
    71   36   93 1    
    72   36   94 1    
    73   37   38 2    
    74   37   39 am   BACKBONE|DICT|INTERRES
    75   39   40 1    
    76   39   95 1    
    77   40   41 1    
    78   40   42 1    
    79   40   96 1    
    80   41   97 1    
    81   41   98 1    
    82   41   99 1    
    83   42   43 2    
    84   42   44 am   BACKBONE|DICT|INTERRES
    85   44   45 1    
    86   44  100 1    
    87   45   46 1    
    88   45   47 1    
    89   45  101 1    
    90   46  102 1    
    91   46  103 1    
    92   46  104 1    
    93   47   48 2    
    94   47   49 am   BACKBONE|DICT|INTERRES
    95   49   50 1    
    96   49  105 1    
    97   50   51 1    
    98   50   52 1    
    99   50  106 1    
   100   51  107 1    
   101   51  108 1    
   102   51  109 1    
   103   52   53 2    
   104   52   54 am   BACKBONE|DICT|INTERRES
   105   54   55 1    
   106   54  110 1    
   107   55   56 1    
   108   55   59 1    
   109   55  111 1    
   110   56   57 am   BACKBONE|DICT|INTERRES
   111   56   58 2    
   112   57  112 1    
   113   57  113 1    
   114   59   60 1    
   115   59  114 1    
   116   59  115 1    
   117   60   61 1    
   118   61  116 1    
   119   61  117 1    
@<TRIPOS>SUBSTRUCTURE
     1 UNK         1 GROUP             0       ****    0 ROOT    
