@<TRIPOS>MOLECULE
3R8
117   119    1
SMALL
USER_CHARGES


@<TRIPOS>ATOM
      1 CA         22.7544  -29.1851  -50.0990 C.3       0 UNK        -0.2013 
      2 C          22.7751  -29.1930  -48.5779 C.2       0 UNK         0.4866 
      3 O          23.5653  -29.9233  -47.9786 O.2       0 UNK        -0.5176 
      4 N          21.9174  -28.3851  -47.9482 N.am      1 UNK        -0.4884 
      5 CA         21.7983  -28.2529  -46.4979 C.3       1 UNK         0.0853 
      6 C6         21.0833  -29.4655  -45.8321 C.3       10 UNK        -0.0849 
      7 S7         19.3741  -29.7339  -46.4205 S.3       10 UNK        -0.2776 
      8 C8         18.8138  -31.0545  -45.3035 C.3       10 UNK         0.0316 
      9 C9         18.4912  -30.5407  -43.9063 C.ar      10 UNK        -0.0863 
     10 C10        19.3501  -30.8143  -42.8387 C.ar      10 UNK        -0.1009 
     11 C11        19.0114  -30.4416  -41.5299 C.ar      10 UNK        -0.0712 
     12 C12        17.8182  -29.7437  -41.3151 C.ar      10 UNK        -0.0894 
     13 C13        16.9745  -29.4163  -42.3802 C.ar      10 UNK        -0.0745 
     14 C14        17.3093  -29.8327  -43.6720 C.ar      10 UNK        -0.0972 
     15 C15        15.6880  -28.6377  -42.1392 C.3       10 UNK         0.0209 
     16 S16        15.8238  -26.9111  -42.7072 S.3       10 UNK        -0.2568 
     17 C17        16.5839  -26.0631  -41.2772 C.3       10 UNK        -0.0983 
     18 CA         18.1325  -26.1059  -41.2702 C.3       3 UNK         0.0876 
     19 N          18.7175  -25.6992  -42.5498 N.am      3 UNK        -0.4424 
     20 C          19.9944  -25.9022  -42.8882 C.2       2 UNK         0.4918 
     21 O          20.8290  -26.4402  -42.1540 O.2       2 UNK        -0.4875 
     22 CA         20.4111  -25.4493  -44.2885 C.3       2 UNK         0.0481 
     23 CB         21.2832  -24.1843  -44.2417 C.3       2 UNK        -0.1831 
     24 N          21.1545  -26.5524  -44.8784 N.am      2 UNK        -0.4498 
     25 C          21.1204  -26.9137  -46.1637 C.2       1 UNK         0.5027 
     26 O          20.5713  -26.2572  -47.0545 O.2       1 UNK        -0.4969 
     27 C          18.7105  -25.2640  -40.1149 C.2       3 UNK         0.5005 
     28 O          19.0517  -24.0959  -40.3211 O.2       3 UNK        -0.5279 
     29 N          18.8480  -25.8818  -38.9329 N.am      4 UNK        -0.4463 
     30 CA         19.4780  -25.3725  -37.7022 C.3       4 UNK         0.0283 
     31 CB         18.7986  -24.0871  -37.1896 C.3       4 UNK        -0.1875 
     32 C          21.0073  -25.1983  -37.7974 C.2       4 UNK         0.4949 
     33 O          21.7028  -25.5222  -36.8348 O.2       4 UNK        -0.5039 
     34 N          21.5097  -24.7264  -38.9465 N.am      5 UNK        -0.4663 
     35 CA         22.9357  -24.6562  -39.2813 C.3       5 UNK         0.0242 
     36 CB         23.1192  -23.8249  -40.5603 C.3       5 UNK        -0.1982 
     37 C          23.5676  -26.0516  -39.4377 C.2       5 UNK         0.5017 
     38 O          24.6816  -26.2609  -38.9560 O.2       5 UNK        -0.5012 
     39 N          22.8102  -26.9685  -40.0602 N.am      6 UNK        -0.4439 
     40 CA         23.0722  -28.3940  -40.2803 C.3       6 UNK         0.0297 
     41 CB         23.3905  -29.1255  -38.9589 C.3       6 UNK        -0.2006 
     42 C          24.1264  -28.6845  -41.3613 C.2       6 UNK         0.4892 
     43 O          24.9962  -27.8581  -41.6431 O.2       6 UNK        -0.5089 
     44 N          24.0115  -29.8825  -41.9445 N.am      7 UNK        -0.4243 
     45 CA         24.8721  -30.4436  -42.9828 C.3       7 UNK         0.0196 
     46 CB         24.7368  -29.6567  -44.3066 C.3       7 UNK        -0.2007 
     47 C          24.5094  -31.9320  -43.1045 C.2       7 UNK         0.5020 
     48 O          24.5493  -32.6430  -42.0989 O.2       7 UNK        -0.5147 
     49 N          24.1257  -32.3829  -44.3061 N.am      8 UNK        -0.4734 
     50 CA         23.6521  -33.7384  -44.5999 C.3       8 UNK         0.0238 
     51 CB         23.8168  -34.0006  -46.1089 C.3       8 UNK        -0.1912 
     52 C          22.2015  -33.9504  -44.1198 C.2       8 UNK         0.5038 
     53 O          21.2944  -34.1023  -44.9398 O.2       8 UNK        -0.5046 
     54 N          22.0092  -33.9251  -42.7965 N.am      9 UNK        -0.4200 
     55 CA         20.7107  -34.0865  -42.1202 C.3       9 UNK         0.0839 
     56 C          20.1704  -35.5458  -42.0849 C.2       9 UNK         0.5513 
     57 N          20.9455  -36.5553  -42.4630 N.am      9 UNK        -0.7519 
     58 O          19.0217  -35.7650  -41.7095 O.2       9 UNK        -0.4960 
     59 C59        20.7160  -33.4641  -40.6968 C.3       10 UNK        -0.0876 
     60 S60        21.3792  -31.7612  -40.6282 S.3       10 UNK        -0.2414 
     61 C61        19.8853  -30.7572  -40.3134 C.3       10 UNK         0.0169 
     62 H62        22.0070  -28.4965  -50.4928 H         1 UNK         0.0903 
     63 H63        23.7284  -28.8870  -50.4861 H         1 UNK         0.0903 
     64 H64        22.5282  -30.1823  -50.4754 H         1 UNK         0.0903 
     65 H65        21.3012  -27.7667  -48.4627 H         1 UNK         0.3096 
     66 H66        22.8120  -28.1761  -46.1015 H         1 UNK         0.1121 
     67 H67        21.0683  -29.3505  -44.7471 H         1 UNK         0.0849 
     68 H68        21.6508  -30.3782  -46.0198 H         1 UNK         0.0849 
     69 H69        17.9196  -31.5137  -45.7277 H         1 UNK         0.0865 
     70 H70        19.5661  -31.8445  -45.2661 H         1 UNK         0.0865 
     71 H71        20.2720  -31.3377  -43.0411 H         1 UNK         0.1346 
     72 H72        17.5482  -29.4466  -40.3108 H         1 UNK         0.1412 
     73 H73        16.6480  -29.6053  -44.4973 H         1 UNK         0.1426 
     74 H74        15.4005  -28.6643  -41.0871 H         1 UNK         0.0716 
     75 H75        14.8757  -29.1194  -42.6854 H         1 UNK         0.0716 
     76 H76        16.1838  -26.4927  -40.3570 H         1 UNK         0.0695 
     77 H77        16.2378  -25.0277  -41.2987 H         1 UNK         0.0695 
     78 H78        18.4420  -27.1378  -41.1042 H         1 UNK         0.0983 
     79 H79        18.0928  -25.2457  -43.1995 H         1 UNK         0.3095 
     80 H80        19.5126  -25.2466  -44.8759 H         1 UNK         0.0454 
     81 H81        22.2307  -24.3665  -43.7345 H         1 UNK         0.0851 
     82 H82        20.7754  -23.3764  -43.7133 H         1 UNK         0.0851 
     83 H83        21.5087  -23.8255  -45.2459 H         1 UNK         0.0851 
     84 H84        21.6018  -27.1520  -44.1968 H         1 UNK         0.2976 
     85 H85        18.5493  -26.8458  -38.8739 H         1 UNK         0.3116 
     86 H86        19.3048  -26.1460  -36.9519 H         1 UNK         0.0646 
     87 H87        18.9646  -23.2393  -37.8546 H         1 UNK         0.0847 
     88 H88        19.1914  -23.8071  -36.2113 H         1 UNK         0.0847 
     89 H89        17.7228  -24.2225  -37.0796 H         1 UNK         0.0847 
     90 H90        20.8442  -24.4425  -39.6601 H         1 UNK         0.3040 
     91 H91        23.4512  -24.1484  -38.4629 H         1 UNK         0.1015 
     92 H92        22.5908  -24.2682  -41.4038 H         1 UNK         0.0786 
     93 H93        24.1731  -23.7553  -40.8335 H         1 UNK         0.0786 
     94 H94        22.7491  -22.8079  -40.4295 H         1 UNK         0.0786 
     95 H95        21.9650  -26.6321  -40.5117 H         1 UNK         0.3172 
     96 H96        22.1281  -28.7839  -40.6602 H         1 UNK         0.0595 
     97 H97        24.3449  -28.8110  -38.5367 H         1 UNK         0.0839 
     98 H98        23.4531  -30.2035  -39.1090 H         1 UNK         0.0839 
     99 H99        22.6170  -28.9485  -38.2116 H         1 UNK         0.0839 
    100 H100       23.3018  -30.5199  -41.6016 H         1 UNK         0.2998 
    101 H101       25.9076  -30.3884  -42.6413 H         1 UNK         0.0822 
    102 H102       25.0207  -28.6114  -44.1874 H         1 UNK         0.0787 
    103 H103       25.3845  -30.0668  -45.0828 H         1 UNK         0.0787 
    104 H104       23.7135  -29.6814  -44.6744 H         1 UNK         0.0787 
    105 H105       24.1007  -31.7266  -45.0737 H         1 UNK         0.3055 
    106 H106       24.2799  -34.4561  -44.0665 H         1 UNK         0.1106 
    107 H107       23.2337  -33.3000  -46.7086 H         1 UNK         0.0828 
    108 H108       23.4860  -35.0070  -46.3693 H         1 UNK         0.0828 
    109 H109       24.8597  -33.9156  -46.4150 H         1 UNK         0.0828 
    110 H110       22.8075  -33.7295  -42.2024 H         1 UNK         0.2931 
    111 H111       19.9749  -33.5375  -42.7079 H         1 UNK         0.0412 
    112 H112       20.5810  -37.4950  -42.4379 H         1 UNK         0.3472 
    113 H113       21.8899  -36.3881  -42.7705 H         1 UNK         0.3472 
    114 H114       19.7079  -33.4739  -40.2783 H         1 UNK         0.0970 
    115 H115       21.3219  -34.0751  -40.0251 H         1 UNK         0.0970 
    116 H116       19.2811  -31.2545  -39.5533 H         1 UNK         0.0612 
    117 H117       20.2025  -29.8129  -39.8706 H         1 UNK         0.0612 
@<TRIPOS>BOND
     1    1    2 1    
     2    1   62 1    
     3    1   63 1    
     4    1   64 1    
     5    2    3 2    
     6    2    4 am   BACKBONE|DICT|INTERRES
     7    4    5 1    
     8    4   65 1    
     9    5    6 1    
    10    5   25 1    
    11    5   66 1    
    12    6    7 1    
    13    6   67 1    
    14    6   68 1    
    15    7    8 1    
    16    8    9 1    
    17    8   69 1    
    18    8   70 1    
    19    9   10 ar   
    20    9   14 ar   
    21   10   11 ar   
    22   10   71 1    
    23   11   12 ar   
    24   11   61 1    
    25   12   13 ar   
    26   12   72 1    
    27   13   14 ar   
    28   13   15 1    
    29   14   73 1    
    30   15   16 1    
    31   15   74 1    
    32   15   75 1    
    33   16   17 1    
    34   17   18 1    
    35   17   76 1    
    36   17   77 1    
    37   18   19 1    
    38   18   27 1    
    39   18   78 1    
    40   19   20 am   BACKBONE|DICT|INTERRES
    41   19   79 1    
    42   20   21 2    
    43   20   22 1    
    44   22   23 1    
    45   22   24 1    
    46   22   80 1    
    47   23   81 1    
    48   23   82 1    
    49   23   83 1    
    50   24   25 am   BACKBONE|DICT|INTERRES
    51   24   84 1    
    52   25   26 2    
    53   27   28 2    
    54   27   29 am   BACKBONE|DICT|INTERRES
    55   29   30 1    
    56   29   85 1    
    57   30   31 1    
    58   30   32 1    
    59   30   86 1    
    60   31   87 1    
    61   31   88 1    
    62   31   89 1    
    63   32   33 2    
    64   32   34 am   BACKBONE|DICT|INTERRES
    65   34   35 1    
    66   34   90 1    
    67   35   36 1    
    68   35   37 1    
    69   35   91 1    
    70   36   92 1    
    71   36   93 1    
    72   36   94 1    
    73   37   38 2    
    74   37   39 am   BACKBONE|DICT|INTERRES
    75   39   40 1    
    76   39   95 1    
    77   40   41 1    
    78   40   42 1    
    79   40   96 1    
    80   41   97 1    
    81   41   98 1    
    82   41   99 1    
    83   42   43 2    
    84   42   44 am   BACKBONE|DICT|INTERRES
    85   44   45 1    
    86   44  100 1    
    87   45   46 1    
    88   45   47 1    
    89   45  101 1    
    90   46  102 1    
    91   46  103 1    
    92   46  104 1    
    93   47   48 2    
    94   47   49 am   BACKBONE|DICT|INTERRES
    95   49   50 1    
    96   49  105 1    
    97   50   51 1    
    98   50   52 1    
    99   50  106 1    
   100   51  107 1    
   101   51  108 1    
   102   51  109 1    
   103   52   53 2    
   104   52   54 am   BACKBONE|DICT|INTERRES
   105   54   55 1    
   106   54  110 1    
   107   55   56 1    
   108   55   59 1    
   109   55  111 1    
   110   56   57 am   BACKBONE|DICT|INTERRES
   111   56   58 2    
   112   57  112 1    
   113   57  113 1    
   114   59   60 1    
   115   59  114 1    
   116   59  115 1    
   117   60   61 1    
   118   61  116 1    
   119   61  117 1    
@<TRIPOS>SUBSTRUCTURE
     1 UNK         1 GROUP             0       ****    0 ROOT    
