@<TRIPOS>MOLECULE
3R8
117   119    1
SMALL
USER_CHARGES


@<TRIPOS>ATOM
      1 CA         18.8711  -29.0967  -48.9213 C.3       0 UNK        -0.2013 
      2 C          18.3917  -28.8413  -47.5013 C.2       0 UNK         0.4866 
      3 O          18.8805  -29.4694  -46.5644 O.2       0 UNK        -0.5176 
      4 N          17.4414  -27.9178  -47.3168 N.am      1 UNK        -0.4884 
      5 CA         16.9097  -27.5349  -46.0058 C.3       1 UNK         0.0853 
      6 C6         15.4478  -27.0402  -46.1240 C.3       10 UNK        -0.0849 
      7 S7         14.5648  -27.0133  -44.5286 S.3       10 UNK        -0.2776 
      8 C8         14.2074  -28.7818  -44.2559 C.3       10 UNK         0.0316 
      9 C9         15.2881  -29.4757  -43.4328 C.ar      10 UNK        -0.0863 
     10 C10        15.9854  -30.5784  -43.9438 C.ar      10 UNK        -0.1009 
     11 C11        16.9187  -31.2606  -43.1536 C.ar      10 UNK        -0.0712 
     12 C12        17.1393  -30.8320  -41.8406 C.ar      10 UNK        -0.0894 
     13 C13        16.4827  -29.7087  -41.3311 C.ar      10 UNK        -0.0745 
     14 C14        15.5529  -29.0406  -42.1303 C.ar      10 UNK        -0.0972 
     15 C15        16.7479  -29.2353  -39.9080 C.3       10 UNK         0.0209 
     16 S16        18.0257  -27.9365  -39.8402 S.3       10 UNK        -0.2568 
     17 C17        19.5465  -28.9134  -40.1051 C.3       10 UNK        -0.0983 
     18 CA         20.6280  -28.2125  -40.9634 C.3       3 UNK         0.0876 
     19 N          20.0858  -27.5464  -42.1572 N.am      3 UNK        -0.4424 
     20 C          20.8178  -27.1757  -43.2154 C.2       2 UNK         0.4918 
     21 O          22.0040  -27.4793  -43.3552 O.2       2 UNK        -0.4875 
     22 CA         20.1089  -26.3100  -44.2631 C.3       2 UNK         0.0481 
     23 CB         21.0570  -25.7836  -45.3576 C.3       2 UNK        -0.1831 
     24 N          19.0180  -27.0631  -44.8700 N.am      2 UNK        -0.4498 
     25 C          17.8695  -26.5421  -45.3166 C.2       1 UNK         0.5027 
     26 O          17.5882  -25.3437  -45.2492 O.2       1 UNK        -0.4969 
     27 C          21.5475  -27.3062  -40.1142 C.2       3 UNK         0.5005 
     28 O          22.2788  -27.8233  -39.2688 O.2       3 UNK        -0.5279 
     29 N          21.5648  -25.9926  -40.3917 N.am      4 UNK        -0.4463 
     30 CA         22.5482  -25.0349  -39.8746 C.3       4 UNK         0.0283 
     31 CB         22.2020  -23.6255  -40.3799 C.3       4 UNK        -0.1875 
     32 C          24.0017  -25.3958  -40.2422 C.2       4 UNK         0.4949 
     33 O          24.9139  -25.0725  -39.4809 O.2       4 UNK        -0.5039 
     34 N          24.1952  -26.1108  -41.3612 N.am      5 UNK        -0.4663 
     35 CA         25.4644  -26.7134  -41.7707 C.3       5 UNK         0.0242 
     36 CB         25.4383  -26.9412  -43.2942 C.3       5 UNK        -0.1982 
     37 C          25.7436  -28.0112  -40.9846 C.2       5 UNK         0.5017 
     38 O          25.8328  -29.0840  -41.5812 O.2       5 UNK        -0.5012 
     39 N          25.8475  -27.8909  -39.6527 N.am      6 UNK        -0.4439 
     40 CA         26.2025  -28.9354  -38.6801 C.3       6 UNK         0.0297 
     41 CB         27.7137  -29.2355  -38.7695 C.3       6 UNK        -0.2006 
     42 C          25.3424  -30.2161  -38.7685 C.2       6 UNK         0.4892 
     43 O          25.8732  -31.3191  -38.6260 O.2       6 UNK        -0.5089 
     44 N          24.0349  -30.0451  -39.0174 N.am      7 UNK        -0.4243 
     45 CA         23.0156  -31.0879  -39.1971 C.3       7 UNK         0.0196 
     46 CB         22.8135  -31.8938  -37.8959 C.3       7 UNK        -0.2007 
     47 C          23.2292  -31.9948  -40.4278 C.2       7 UNK         0.5020 
     48 O          22.6239  -33.0651  -40.4934 O.2       7 UNK        -0.5147 
     49 N          24.0536  -31.5648  -41.3955 N.am      8 UNK        -0.4734 
     50 CA         24.3450  -32.3246  -42.6174 C.3       8 UNK         0.0238 
     51 CB         25.6894  -31.8550  -43.1976 C.3       8 UNK        -0.1912 
     52 C          23.2429  -32.2273  -43.6881 C.2       8 UNK         0.5038 
     53 O          23.2717  -33.0183  -44.6318 O.2       8 UNK        -0.5046 
     54 N          22.3208  -31.2644  -43.5382 N.am      9 UNK        -0.4200 
     55 CA         21.2722  -30.8994  -44.5062 C.3       9 UNK         0.0839 
     56 C          21.9070  -30.3295  -45.8065 C.2       9 UNK         0.5513 
     57 N          22.5500  -29.1717  -45.7204 N.am      9 UNK        -0.7519 
     58 O          21.8516  -30.9328  -46.8757 O.2       9 UNK        -0.4960 
     59 C59        20.2332  -32.0294  -44.7701 C.3       10 UNK        -0.0876 
     60 S60        19.3956  -32.6099  -43.2543 S.3       10 UNK        -0.2414 
     61 C61        17.6200  -32.5080  -43.6892 C.3       10 UNK         0.0169 
     62 H62        18.6544  -30.1252  -49.2090 H         1 UNK         0.0903 
     63 H63        18.3923  -28.4321  -49.6403 H         1 UNK         0.0903 
     64 H64        19.9490  -28.9468  -48.9829 H         1 UNK         0.0903 
     65 H65        17.0888  -27.3972  -48.1081 H         1 UNK         0.3096 
     66 H66        16.8953  -28.4291  -45.3830 H         1 UNK         0.1121 
     67 H67        15.4047  -26.0443  -46.5692 H         1 UNK         0.0849 
     68 H68        14.8872  -27.6863  -46.8017 H         1 UNK         0.0849 
     69 H69        14.0527  -29.2858  -45.2111 H         1 UNK         0.0865 
     70 H70        13.2616  -28.8634  -43.7182 H         1 UNK         0.0865 
     71 H71        15.7822  -30.9238  -44.9485 H         1 UNK         0.1346 
     72 H72        17.8237  -31.3831  -41.2115 H         1 UNK         0.1412 
     73 H73        15.0220  -28.1859  -41.7329 H         1 UNK         0.1426 
     74 H74        17.0435  -30.0724  -39.2734 H         1 UNK         0.0716 
     75 H75        15.8266  -28.8411  -39.4764 H         1 UNK         0.0716 
     76 H76        19.2906  -29.8481  -40.5966 H         1 UNK         0.0695 
     77 H77        19.9374  -29.2123  -39.1303 H         1 UNK         0.0695 
     78 H78        21.2890  -29.0027  -41.3261 H         1 UNK         0.0983 
     79 H79        19.1080  -27.2928  -42.1124 H         1 UNK         0.3095 
     80 H80        19.7035  -25.4503  -43.7257 H         1 UNK         0.0454 
     81 H81        20.5467  -25.0832  -46.0186 H         1 UNK         0.0851 
     82 H82        21.4521  -26.5920  -45.9725 H         1 UNK         0.0851 
     83 H83        21.9068  -25.2557  -44.9228 H         1 UNK         0.0851 
     84 H84        19.1837  -28.0509  -45.0377 H         1 UNK         0.2976 
     85 H85        20.9088  -25.6448  -41.0747 H         1 UNK         0.3116 
     86 H86        22.4740  -25.0399  -38.7852 H         1 UNK         0.0646 
     87 H87        22.9050  -22.8885  -39.9889 H         1 UNK         0.0847 
     88 H88        21.2059  -23.3204  -40.0585 H         1 UNK         0.0847 
     89 H89        22.2393  -23.5643  -41.4683 H         1 UNK         0.0847 
     90 H90        23.3885  -26.3684  -41.9158 H         1 UNK         0.3040 
     91 H91        26.2777  -26.0179  -41.5514 H         1 UNK         0.1015 
     92 H92        25.2530  -26.0119  -43.8327 H         1 UNK         0.0786 
     93 H93        24.6676  -27.6560  -43.5847 H         1 UNK         0.0786 
     94 H94        26.3932  -27.3345  -43.6453 H         1 UNK         0.0786 
     95 H95        25.6887  -26.9633  -39.2707 H         1 UNK         0.3172 
     96 H96        26.0073  -28.5112  -37.6942 H         1 UNK         0.0595 
     97 H97        27.9752  -29.6975  -39.7223 H         1 UNK         0.0839 
     98 H98        28.0278  -29.9181  -37.9788 H         1 UNK         0.0839 
     99 H99        28.3069  -28.3273  -38.6631 H         1 UNK         0.0839 
    100 H100       23.6804  -29.0946  -39.1045 H         1 UNK         0.2998 
    101 H101       22.0830  -30.5579  -39.3890 H         1 UNK         0.0822 
    102 H102       23.6766  -32.5197  -37.6678 H         1 UNK         0.0787 
    103 H103       22.6411  -31.2351  -37.0447 H         1 UNK         0.0787 
    104 H104       21.9476  -32.5526  -37.9725 H         1 UNK         0.0787 
    105 H105       24.5539  -30.6887  -41.2757 H         1 UNK         0.3055 
    106 H106       24.4438  -33.3801  -42.3529 H         1 UNK         0.1106 
    107 H107       25.9919  -32.4817  -44.0376 H         1 UNK         0.0828 
    108 H108       25.6337  -30.8292  -43.5641 H         1 UNK         0.0828 
    109 H109       26.4848  -31.9037  -42.4536 H         1 UNK         0.0828 
    110 H110       22.4134  -30.6584  -42.7389 H         1 UNK         0.2931 
    111 H111       20.7201  -30.0745  -44.0547 H         1 UNK         0.0412 
    112 H112       22.5746  -28.6535  -44.8495 H         1 UNK         0.3472 
    113 H113       22.9879  -28.7928  -46.5443 H         1 UNK         0.3472 
    114 H114       19.4831  -31.6829  -45.4802 H         1 UNK         0.0970 
    115 H115       20.7093  -32.8879  -45.2458 H         1 UNK         0.0970 
    116 H116       17.4971  -32.5916  -44.7699 H         1 UNK         0.0612 
    117 H117       17.1204  -33.3785  -43.2627 H         1 UNK         0.0612 
@<TRIPOS>BOND
     1    1    2 1    
     2    1   62 1    
     3    1   63 1    
     4    1   64 1    
     5    2    3 2    
     6    2    4 am   BACKBONE|DICT|INTERRES
     7    4    5 1    
     8    4   65 1    
     9    5    6 1    
    10    5   25 1    
    11    5   66 1    
    12    6    7 1    
    13    6   67 1    
    14    6   68 1    
    15    7    8 1    
    16    8    9 1    
    17    8   69 1    
    18    8   70 1    
    19    9   10 ar   
    20    9   14 ar   
    21   10   11 ar   
    22   10   71 1    
    23   11   12 ar   
    24   11   61 1    
    25   12   13 ar   
    26   12   72 1    
    27   13   14 ar   
    28   13   15 1    
    29   14   73 1    
    30   15   16 1    
    31   15   74 1    
    32   15   75 1    
    33   16   17 1    
    34   17   18 1    
    35   17   76 1    
    36   17   77 1    
    37   18   19 1    
    38   18   27 1    
    39   18   78 1    
    40   19   20 am   BACKBONE|DICT|INTERRES
    41   19   79 1    
    42   20   21 2    
    43   20   22 1    
    44   22   23 1    
    45   22   24 1    
    46   22   80 1    
    47   23   81 1    
    48   23   82 1    
    49   23   83 1    
    50   24   25 am   BACKBONE|DICT|INTERRES
    51   24   84 1    
    52   25   26 2    
    53   27   28 2    
    54   27   29 am   BACKBONE|DICT|INTERRES
    55   29   30 1    
    56   29   85 1    
    57   30   31 1    
    58   30   32 1    
    59   30   86 1    
    60   31   87 1    
    61   31   88 1    
    62   31   89 1    
    63   32   33 2    
    64   32   34 am   BACKBONE|DICT|INTERRES
    65   34   35 1    
    66   34   90 1    
    67   35   36 1    
    68   35   37 1    
    69   35   91 1    
    70   36   92 1    
    71   36   93 1    
    72   36   94 1    
    73   37   38 2    
    74   37   39 am   BACKBONE|DICT|INTERRES
    75   39   40 1    
    76   39   95 1    
    77   40   41 1    
    78   40   42 1    
    79   40   96 1    
    80   41   97 1    
    81   41   98 1    
    82   41   99 1    
    83   42   43 2    
    84   42   44 am   BACKBONE|DICT|INTERRES
    85   44   45 1    
    86   44  100 1    
    87   45   46 1    
    88   45   47 1    
    89   45  101 1    
    90   46  102 1    
    91   46  103 1    
    92   46  104 1    
    93   47   48 2    
    94   47   49 am   BACKBONE|DICT|INTERRES
    95   49   50 1    
    96   49  105 1    
    97   50   51 1    
    98   50   52 1    
    99   50  106 1    
   100   51  107 1    
   101   51  108 1    
   102   51  109 1    
   103   52   53 2    
   104   52   54 am   BACKBONE|DICT|INTERRES
   105   54   55 1    
   106   54  110 1    
   107   55   56 1    
   108   55   59 1    
   109   55  111 1    
   110   56   57 am   BACKBONE|DICT|INTERRES
   111   56   58 2    
   112   57  112 1    
   113   57  113 1    
   114   59   60 1    
   115   59  114 1    
   116   59  115 1    
   117   60   61 1    
   118   61  116 1    
   119   61  117 1    
@<TRIPOS>SUBSTRUCTURE
     1 UNK         1 GROUP             0       ****    0 ROOT    
