@<TRIPOS>MOLECULE
3R8
117   119    1
SMALL
USER_CHARGES


@<TRIPOS>ATOM
      1 CA         16.6881  -25.1297  -49.5051 C.3       0 UNK        -0.2013 
      2 C          17.6619  -26.0445  -48.7772 C.2       0 UNK         0.4866 
      3 O          18.6600  -26.4668  -49.3623 O.2       0 UNK        -0.5176 
      4 N          17.3756  -26.3618  -47.5089 N.am      1 UNK        -0.4884 
      5 CA         18.2173  -27.1930  -46.6416 C.3       1 UNK         0.0853 
      6 C6         17.4858  -27.6017  -45.3366 C.3       10 UNK        -0.0849 
      7 S7         15.8146  -28.3053  -45.5636 S.3       10 UNK        -0.2776 
      8 C8         15.8874  -29.8754  -44.6224 C.3       10 UNK         0.0316 
      9 C9         16.3562  -29.7881  -43.1641 C.ar      10 UNK        -0.0863 
     10 C10        16.7244  -30.9718  -42.5143 C.ar      10 UNK        -0.1009 
     11 C11        17.1809  -30.9554  -41.1924 C.ar      10 UNK        -0.0712 
     12 C12        17.2625  -29.7401  -40.5105 C.ar      10 UNK        -0.0894 
     13 C13        16.9059  -28.5462  -41.1431 C.ar      10 UNK        -0.0745 
     14 C14        16.4287  -28.5804  -42.4557 C.ar      10 UNK        -0.0972 
     15 C15        17.0444  -27.2174  -40.4135 C.3       10 UNK         0.0209 
     16 S16        18.7534  -26.9161  -39.8562 S.3       10 UNK        -0.2568 
     17 C17        19.6734  -26.7095  -41.4250 C.3       10 UNK        -0.0983 
     18 CA         20.2990  -27.9990  -42.0494 C.3       3 UNK         0.0876 
     19 N          20.7980  -27.7751  -43.4119 N.am      3 UNK        -0.4424 
     20 C          21.6205  -26.8072  -43.8502 C.2       2 UNK         0.4918 
     21 O          22.1667  -25.9751  -43.1263 O.2       2 UNK        -0.4875 
     22 CA         21.8026  -26.6959  -45.3799 C.3       2 UNK         0.0481 
     23 CB         23.0543  -27.4314  -45.8764 C.3       2 UNK        -0.1831 
     24 N          20.6183  -27.1774  -46.1014 N.am      2 UNK        -0.4498 
     25 C          19.5065  -26.4428  -46.2470 C.2       1 UNK         0.5027 
     26 O          19.4471  -25.2367  -45.9908 O.2       1 UNK        -0.4969 
     27 C          21.3443  -28.6974  -41.1517 C.2       3 UNK         0.5005 
     28 O          22.5357  -28.7541  -41.4711 O.2       3 UNK        -0.5279 
     29 N          20.8683  -29.2139  -40.0110 N.am      4 UNK        -0.4463 
     30 CA         21.6511  -29.8296  -38.9362 C.3       4 UNK         0.0283 
     31 CB         20.6970  -30.3407  -37.8455 C.3       4 UNK        -0.1875 
     32 C          22.7002  -28.8860  -38.3219 C.2       4 UNK         0.4949 
     33 O          23.7135  -29.3663  -37.8180 O.2       4 UNK        -0.5039 
     34 N          22.4799  -27.5675  -38.4331 N.am      5 UNK        -0.4663 
     35 CA         23.4418  -26.5152  -38.0900 C.3       5 UNK         0.0242 
     36 CB         22.7604  -25.1463  -38.2457 C.3       5 UNK        -0.1982 
     37 C          24.7386  -26.5680  -38.9230 C.2       5 UNK         0.5017 
     38 O          25.7892  -26.1705  -38.4190 O.2       5 UNK        -0.5012 
     39 N          24.6478  -27.0788  -40.1592 N.am      6 UNK        -0.4439 
     40 CA         25.7790  -27.3551  -41.0480 C.3       6 UNK         0.0297 
     41 CB         25.4269  -26.8404  -42.4543 C.3       6 UNK        -0.2006 
     42 C          26.1153  -28.8589  -41.0970 C.2       6 UNK         0.4892 
     43 O          26.9833  -29.2468  -41.8799 O.2       6 UNK        -0.5089 
     44 N          25.4123  -29.6756  -40.2936 N.am      7 UNK        -0.4243 
     45 CA         25.4146  -31.1434  -40.2732 C.3       7 UNK         0.0196 
     46 CB         26.7630  -31.6804  -39.7483 C.3       7 UNK        -0.2007 
     47 C          25.0035  -31.7585  -41.6269 C.2       7 UNK         0.5020 
     48 O          25.5538  -32.7869  -42.0246 O.2       7 UNK        -0.5147 
     49 N          24.0592  -31.1116  -42.3231 N.am      8 UNK        -0.4734 
     50 CA         23.6816  -31.4336  -43.6959 C.3       8 UNK         0.0238 
     51 CB         24.5153  -30.5679  -44.6578 C.3       8 UNK        -0.1912 
     52 C          22.1675  -31.2744  -43.8807 C.2       8 UNK         0.5038 
     53 O          21.7115  -30.3767  -44.5925 O.2       8 UNK        -0.5046 
     54 N          21.4066  -32.1567  -43.2244 N.am      9 UNK        -0.4200 
     55 CA         19.9656  -32.3326  -43.4492 C.3       9 UNK         0.0839 
     56 C          19.6816  -32.8262  -44.8941 C.2       9 UNK         0.5513 
     57 N          18.8428  -32.1246  -45.6421 N.am      9 UNK        -0.7519 
     58 O          20.1949  -33.8575  -45.3228 O.2       9 UNK        -0.4960 
     59 C59        19.3487  -33.3091  -42.4174 C.3       10 UNK        -0.0876 
     60 S60        19.3483  -32.6246  -40.7280 S.3       10 UNK        -0.2414 
     61 C61        17.5826  -32.2444  -40.4900 C.3       10 UNK         0.0169 
     62 H62        15.8539  -24.8334  -48.8693 H         1 UNK         0.0903 
     63 H63        17.1990  -24.2260  -49.8368 H         1 UNK         0.0903 
     64 H64        16.2834  -25.6342  -50.3821 H         1 UNK         0.0903 
     65 H65        16.5443  -25.9876  -47.0738 H         1 UNK         0.3096 
     66 H66        18.4842  -28.0955  -47.1962 H         1 UNK         0.1121 
     67 H67        18.0997  -28.3155  -44.7846 H         1 UNK         0.0849 
     68 H68        17.3726  -26.7354  -44.6807 H         1 UNK         0.0849 
     69 H69        14.8915  -30.3204  -44.6331 H         1 UNK         0.0865 
     70 H70        16.5292  -30.5642  -45.1707 H         1 UNK         0.0865 
     71 H71        16.6562  -31.9128  -43.0424 H         1 UNK         0.1346 
     72 H72        17.6142  -29.7212  -39.4880 H         1 UNK         0.1412 
     73 H73        16.1254  -27.6548  -42.9216 H         1 UNK         0.1426 
     74 H74        16.3862  -27.2230  -39.5437 H         1 UNK         0.0716 
     75 H75        16.7208  -26.3846  -41.0398 H         1 UNK         0.0716 
     76 H76        19.0017  -26.2439  -42.1480 H         1 UNK         0.0695 
     77 H77        20.4513  -25.9703  -41.2302 H         1 UNK         0.0695 
     78 H78        19.4964  -28.7258  -42.1779 H         1 UNK         0.0983 
     79 H79        20.5530  -28.4953  -44.0769 H         1 UNK         0.3095 
     80 H80        21.9497  -25.6371  -45.6040 H         1 UNK         0.0454 
     81 H81        23.9259  -27.1837  -45.2698 H         1 UNK         0.0851 
     82 H82        23.2879  -27.1528  -46.9038 H         1 UNK         0.0851 
     83 H83        22.9244  -28.5107  -45.8535 H         1 UNK         0.0851 
     84 H84        20.6081  -28.1560  -46.3542 H         1 UNK         0.2976 
     85 H85        19.8828  -29.0885  -39.8243 H         1 UNK         0.3116 
     86 H86        22.1801  -30.6839  -39.3630 H         1 UNK         0.0646 
     87 H87        20.1240  -29.5285  -37.3961 H         1 UNK         0.0847 
     88 H88        19.9908  -31.0705  -38.2402 H         1 UNK         0.0847 
     89 H89        21.2497  -30.8318  -37.0433 H         1 UNK         0.0847 
     90 H90        21.6086  -27.2669  -38.8463 H         1 UNK         0.3040 
     91 H91        23.7217  -26.6477  -37.0425 H         1 UNK         0.1015 
     92 H92        23.4413  -24.3381  -37.9744 H         1 UNK         0.0786 
     93 H93        21.8862  -25.0614  -37.5997 H         1 UNK         0.0786 
     94 H94        22.4378  -24.9701  -39.2730 H         1 UNK         0.0786 
     95 H95        23.7447  -27.4006  -40.4949 H         1 UNK         0.3172 
     96 H96        26.6723  -26.8303  -40.7041 H         1 UNK         0.0595 
     97 H97        24.5816  -27.3856  -42.8754 H         1 UNK         0.0839 
     98 H98        26.2663  -26.9587  -43.1405 H         1 UNK         0.0839 
     99 H99        25.1668  -25.7819  -42.4388 H         1 UNK         0.0839 
    100 H100       24.7625  -29.2457  -39.6471 H         1 UNK         0.2998 
    101 H101       24.6439  -31.4409  -39.5610 H         1 UNK         0.0822 
    102 H102       26.7254  -32.7612  -39.6063 H         1 UNK         0.0787 
    103 H103       27.0174  -31.2373  -38.7855 H         1 UNK         0.0787 
    104 H104       27.5793  -31.4718  -40.4405 H         1 UNK         0.0787 
    105 H105       23.6212  -30.2803  -41.9292 H         1 UNK         0.3055 
    106 H106       23.9032  -32.4805  -43.9161 H         1 UNK         0.1106 
    107 H107       24.4421  -29.5111  -44.4034 H         1 UNK         0.0828 
    108 H108       25.5698  -30.8410  -44.6156 H         1 UNK         0.0828 
    109 H109       24.1892  -30.6921  -45.6912 H         1 UNK         0.0828 
    110 H110       21.8540  -32.8469  -42.6402 H         1 UNK         0.2931 
    111 H111       19.4946  -31.3559  -43.3190 H         1 UNK         0.0412 
    112 H112       18.6421  -32.4405  -46.5783 H         1 UNK         0.3472 
    113 H113       18.4437  -31.2660  -45.3036 H         1 UNK         0.3472 
    114 H114       18.3273  -33.5740  -42.6950 H         1 UNK         0.0970 
    115 H115       19.8988  -34.2520  -42.4070 H         1 UNK         0.0970 
    116 H116       17.3914  -32.1541  -39.4197 H         1 UNK         0.0612 
    117 H117       16.9680  -33.0775  -40.8339 H         1 UNK         0.0612 
@<TRIPOS>BOND
     1    1    2 1    
     2    1   62 1    
     3    1   63 1    
     4    1   64 1    
     5    2    3 2    
     6    2    4 am   BACKBONE|DICT|INTERRES
     7    4    5 1    
     8    4   65 1    
     9    5    6 1    
    10    5   25 1    
    11    5   66 1    
    12    6    7 1    
    13    6   67 1    
    14    6   68 1    
    15    7    8 1    
    16    8    9 1    
    17    8   69 1    
    18    8   70 1    
    19    9   10 ar   
    20    9   14 ar   
    21   10   11 ar   
    22   10   71 1    
    23   11   12 ar   
    24   11   61 1    
    25   12   13 ar   
    26   12   72 1    
    27   13   14 ar   
    28   13   15 1    
    29   14   73 1    
    30   15   16 1    
    31   15   74 1    
    32   15   75 1    
    33   16   17 1    
    34   17   18 1    
    35   17   76 1    
    36   17   77 1    
    37   18   19 1    
    38   18   27 1    
    39   18   78 1    
    40   19   20 am   BACKBONE|DICT|INTERRES
    41   19   79 1    
    42   20   21 2    
    43   20   22 1    
    44   22   23 1    
    45   22   24 1    
    46   22   80 1    
    47   23   81 1    
    48   23   82 1    
    49   23   83 1    
    50   24   25 am   BACKBONE|DICT|INTERRES
    51   24   84 1    
    52   25   26 2    
    53   27   28 2    
    54   27   29 am   BACKBONE|DICT|INTERRES
    55   29   30 1    
    56   29   85 1    
    57   30   31 1    
    58   30   32 1    
    59   30   86 1    
    60   31   87 1    
    61   31   88 1    
    62   31   89 1    
    63   32   33 2    
    64   32   34 am   BACKBONE|DICT|INTERRES
    65   34   35 1    
    66   34   90 1    
    67   35   36 1    
    68   35   37 1    
    69   35   91 1    
    70   36   92 1    
    71   36   93 1    
    72   36   94 1    
    73   37   38 2    
    74   37   39 am   BACKBONE|DICT|INTERRES
    75   39   40 1    
    76   39   95 1    
    77   40   41 1    
    78   40   42 1    
    79   40   96 1    
    80   41   97 1    
    81   41   98 1    
    82   41   99 1    
    83   42   43 2    
    84   42   44 am   BACKBONE|DICT|INTERRES
    85   44   45 1    
    86   44  100 1    
    87   45   46 1    
    88   45   47 1    
    89   45  101 1    
    90   46  102 1    
    91   46  103 1    
    92   46  104 1    
    93   47   48 2    
    94   47   49 am   BACKBONE|DICT|INTERRES
    95   49   50 1    
    96   49  105 1    
    97   50   51 1    
    98   50   52 1    
    99   50  106 1    
   100   51  107 1    
   101   51  108 1    
   102   51  109 1    
   103   52   53 2    
   104   52   54 am   BACKBONE|DICT|INTERRES
   105   54   55 1    
   106   54  110 1    
   107   55   56 1    
   108   55   59 1    
   109   55  111 1    
   110   56   57 am   BACKBONE|DICT|INTERRES
   111   56   58 2    
   112   57  112 1    
   113   57  113 1    
   114   59   60 1    
   115   59  114 1    
   116   59  115 1    
   117   60   61 1    
   118   61  116 1    
   119   61  117 1    
@<TRIPOS>SUBSTRUCTURE
     1 UNK         1 GROUP             0       ****    0 ROOT    
