@<TRIPOS>MOLECULE
3R8
117   119    1
SMALL
USER_CHARGES


@<TRIPOS>ATOM
      1 CA         16.7352  -22.2431  -46.9294 C.3       0 UNK        -0.2013 
      2 C          17.6112  -23.4652  -47.1621 C.2       0 UNK         0.4866 
      3 O          17.7801  -23.8871  -48.3063 O.2       0 UNK        -0.5176 
      4 N          18.1709  -24.0330  -46.0880 N.am      1 UNK        -0.4884 
      5 CA         19.0796  -25.1830  -46.1254 C.3       1 UNK         0.0853 
      6 C6         18.3574  -26.5284  -46.4100 C.3       10 UNK        -0.0849 
      7 S7         19.4790  -27.7751  -47.1283 S.3       10 UNK        -0.2776 
      8 C8         18.3130  -29.1112  -47.5376 C.3       10 UNK         0.0316 
      9 C9         18.0918  -30.0541  -46.3631 C.ar      10 UNK        -0.0863 
     10 C10        18.8238  -31.2421  -46.2709 C.ar      10 UNK        -0.1009 
     11 C11        18.5925  -32.1410  -45.2253 C.ar      10 UNK        -0.0712 
     12 C12        17.6393  -31.8314  -44.2505 C.ar      10 UNK        -0.0894 
     13 C13        16.9149  -30.6383  -44.3206 C.ar      10 UNK        -0.0745 
     14 C14        17.1345  -29.7613  -45.3874 C.ar      10 UNK        -0.0972 
     15 C15        15.8683  -30.3107  -43.2663 C.3       10 UNK         0.0209 
     16 S16        16.3349  -28.8657  -42.2625 S.3       10 UNK        -0.2568 
     17 C17        17.6862  -29.5182  -41.2180 C.3       10 UNK        -0.0983 
     18 CA         19.0823  -28.9426  -41.5757 C.3       3 UNK         0.0876 
     19 N          19.0526  -27.4848  -41.7423 N.am      3 UNK        -0.4424 
     20 C          20.0825  -26.6808  -42.0403 C.2       2 UNK         0.4918 
     21 O          21.2518  -27.0522  -42.1558 O.2       2 UNK        -0.4875 
     22 CA         19.6892  -25.2172  -42.3084 C.3       2 UNK         0.0481 
     23 CB         20.7942  -24.1986  -41.9614 C.3       2 UNK        -0.1831 
     24 N          19.1997  -25.0587  -43.6832 N.am      2 UNK        -0.4498 
     25 C          19.8924  -25.2448  -44.8224 C.2       1 UNK         0.5027 
     26 O          21.1067  -25.4375  -44.8814 O.2       1 UNK        -0.4969 
     27 C          20.1265  -29.4078  -40.5398 C.2       3 UNK         0.5005 
     28 O          20.8369  -30.3845  -40.7799 O.2       3 UNK        -0.5279 
     29 N          20.2076  -28.6932  -39.4109 N.am      4 UNK        -0.4463 
     30 CA         21.1982  -28.9141  -38.3614 C.3       4 UNK         0.0283 
     31 CB         20.6046  -28.4848  -37.0103 C.3       4 UNK        -0.1875 
     32 C          22.4750  -28.1164  -38.6584 C.2       4 UNK         0.4949 
     33 O          22.3910  -26.9781  -39.1242 O.2       4 UNK        -0.5039 
     34 N          23.6264  -28.7186  -38.3354 N.am      5 UNK        -0.4663 
     35 CA         24.9950  -28.1822  -38.3889 C.3       5 UNK         0.0242 
     36 CB         25.1619  -26.9793  -37.4389 C.3       5 UNK        -0.1982 
     37 C          25.5295  -27.8515  -39.7946 C.2       5 UNK         0.5017 
     38 O          26.6166  -28.3170  -40.1357 O.2       5 UNK        -0.5012 
     39 N          24.7886  -27.0500  -40.5706 N.am      6 UNK        -0.4439 
     40 CA         25.1798  -26.5971  -41.9077 C.3       6 UNK         0.0297 
     41 CB         24.3885  -25.3420  -42.2978 C.3       6 UNK        -0.2006 
     42 C          25.0280  -27.7162  -42.9468 C.2       6 UNK         0.4892 
     43 O          26.0254  -28.1135  -43.5505 O.2       6 UNK        -0.5089 
     44 N          23.8008  -28.2346  -43.1084 N.am      7 UNK        -0.4243 
     45 CA         23.5383  -29.4418  -43.9006 C.3       7 UNK         0.0196 
     46 CB         22.0453  -29.5190  -44.2534 C.3       7 UNK        -0.2007 
     47 C          23.9873  -30.7184  -43.1656 C.2       7 UNK         0.5020 
     48 O          24.3328  -31.7004  -43.8223 O.2       7 UNK        -0.5147 
     49 N          23.9851  -30.6659  -41.8230 N.am      8 UNK        -0.4734 
     50 CA         24.3711  -31.7246  -40.8791 C.3       8 UNK         0.0238 
     51 CB         25.8751  -32.0483  -41.0004 C.3       8 UNK        -0.1912 
     52 C          23.4754  -32.9774  -40.9603 C.2       8 UNK         0.5038 
     53 O          23.9353  -34.0850  -40.6756 O.2       8 UNK        -0.5046 
     54 N          22.2090  -32.7693  -41.3308 N.am      9 UNK        -0.4200 
     55 CA         21.1519  -33.7841  -41.3786 C.3       9 UNK         0.0839 
     56 C          20.4574  -33.9713  -40.0034 C.2       9 UNK         0.5513 
     57 N          20.3792  -32.9399  -39.1700 N.am      9 UNK        -0.7519 
     58 O          19.9887  -35.0627  -39.6915 O.2       9 UNK        -0.4960 
     59 C59        20.1039  -33.4452  -42.4665 C.3       10 UNK        -0.0876 
     60 S60        20.8335  -33.3609  -44.1364 S.3       10 UNK        -0.2414 
     61 C61        19.3457  -33.4625  -45.1750 C.3       10 UNK         0.0169 
     62 H62        16.6651  -21.9843  -45.8731 H         1 UNK         0.0903 
     63 H63        17.1410  -21.3838  -47.4628 H         1 UNK         0.0903 
     64 H64        15.7273  -22.4287  -47.2998 H         1 UNK         0.0903 
     65 H65        18.0533  -23.5978  -45.1832 H         1 UNK         0.3096 
     66 H66        19.7940  -24.9935  -46.9309 H         1 UNK         0.1121 
     67 H67        17.8894  -26.9273  -45.5087 H         1 UNK         0.0849 
     68 H68        17.5473  -26.3757  -47.1243 H         1 UNK         0.0849 
     69 H69        17.3624  -28.6944  -47.8738 H         1 UNK         0.0865 
     70 H70        18.7100  -29.6674  -48.3883 H         1 UNK         0.0865 
     71 H71        19.5615  -31.4782  -47.0259 H         1 UNK         0.1346 
     72 H72        17.4529  -32.5264  -43.4437 H         1 UNK         0.1412 
     73 H73        16.5554  -28.8510  -45.4548 H         1 UNK         0.1426 
     74 H74        15.6836  -31.1639  -42.6117 H         1 UNK         0.0716 
     75 H75        14.9209  -30.0988  -43.7640 H         1 UNK         0.0716 
     76 H76        17.7010  -30.6080  -41.2812 H         1 UNK         0.0695 
     77 H77        17.4271  -29.2819  -40.1839 H         1 UNK         0.0695 
     78 H78        19.3683  -29.3598  -42.5422 H         1 UNK         0.0983 
     79 H79        18.1273  -27.0818  -41.7074 H         1 UNK         0.3095 
     80 H80        18.8467  -24.9924  -41.6521 H         1 UNK         0.0454 
     81 H81        21.2357  -24.4167  -40.9878 H         1 UNK         0.0851 
     82 H82        20.3901  -23.1878  -41.9143 H         1 UNK         0.0851 
     83 H83        21.6008  -24.1897  -42.6911 H         1 UNK         0.0851 
     84 H84        18.1991  -24.9456  -43.7628 H         1 UNK         0.2976 
     85 H85        19.6396  -27.8625  -39.3283 H         1 UNK         0.3116 
     86 H86        21.4402  -29.9778  -38.3067 H         1 UNK         0.0646 
     87 H87        19.7017  -29.0491  -36.7763 H         1 UNK         0.0847 
     88 H88        20.3505  -27.4240  -36.9978 H         1 UNK         0.0847 
     89 H89        21.3132  -28.6585  -36.1993 H         1 UNK         0.0847 
     90 H90        23.5626  -29.6536  -37.9563 H         1 UNK         0.3040 
     91 H91        25.6327  -28.9807  -38.0046 H         1 UNK         0.1015 
     92 H92        26.1989  -26.6415  -37.4174 H         1 UNK         0.0786 
     93 H93        24.8863  -27.2408  -36.4172 H         1 UNK         0.0786 
     94 H94        24.5517  -26.1280  -37.7421 H         1 UNK         0.0786 
     95 H95        23.8803  -26.7603  -40.2112 H         1 UNK         0.3172 
     96 H96        26.2350  -26.3168  -41.8748 H         1 UNK         0.0595 
     97 H97        24.6797  -24.9865  -43.2870 H         1 UNK         0.0839 
     98 H98        24.5588  -24.5275  -41.5938 H         1 UNK         0.0839 
     99 H99        23.3212  -25.5431  -42.3263 H         1 UNK         0.0839 
    100 H100       23.0067  -27.8119  -42.6329 H         1 UNK         0.2998 
    101 H101       24.1021  -29.3751  -44.8336 H         1 UNK         0.0822 
    102 H102       21.8447  -30.3525  -44.9280 H         1 UNK         0.0787 
    103 H103       21.6990  -28.6090  -44.7448 H         1 UNK         0.0787 
    104 H104       21.4389  -29.6728  -43.3638 H         1 UNK         0.0787 
    105 H105       23.6500  -29.8091  -41.4063 H         1 UNK         0.3055 
    106 H106       24.2076  -31.3149  -39.8817 H         1 UNK         0.1106 
    107 H107       26.4818  -31.1456  -40.9244 H         1 UNK         0.0828 
    108 H108       26.1972  -32.7213  -40.2049 H         1 UNK         0.0828 
    109 H109       26.1100  -32.5318  -41.9490 H         1 UNK         0.0828 
    110 H110       21.8961  -31.8125  -41.4633 H         1 UNK         0.2931 
    111 H111       21.6034  -34.7428  -41.6420 H         1 UNK         0.0412 
    112 H112       20.7048  -32.0306  -39.4707 H         1 UNK         0.3472 
    113 H113       19.9330  -33.0549  -38.2739 H         1 UNK         0.3472 
    114 H114       19.6265  -32.4883  -42.2480 H         1 UNK         0.0970 
    115 H115       19.3114  -34.1961  -42.4722 H         1 UNK         0.0970 
    116 H116       19.6476  -33.7547  -46.1818 H         1 UNK         0.0612 
    117 H117       18.6930  -34.2591  -44.8147 H         1 UNK         0.0612 
@<TRIPOS>BOND
     1    1    2 1    
     2    1   62 1    
     3    1   63 1    
     4    1   64 1    
     5    2    3 2    
     6    2    4 am   BACKBONE|DICT|INTERRES
     7    4    5 1    
     8    4   65 1    
     9    5    6 1    
    10    5   25 1    
    11    5   66 1    
    12    6    7 1    
    13    6   67 1    
    14    6   68 1    
    15    7    8 1    
    16    8    9 1    
    17    8   69 1    
    18    8   70 1    
    19    9   10 ar   
    20    9   14 ar   
    21   10   11 ar   
    22   10   71 1    
    23   11   12 ar   
    24   11   61 1    
    25   12   13 ar   
    26   12   72 1    
    27   13   14 ar   
    28   13   15 1    
    29   14   73 1    
    30   15   16 1    
    31   15   74 1    
    32   15   75 1    
    33   16   17 1    
    34   17   18 1    
    35   17   76 1    
    36   17   77 1    
    37   18   19 1    
    38   18   27 1    
    39   18   78 1    
    40   19   20 am   BACKBONE|DICT|INTERRES
    41   19   79 1    
    42   20   21 2    
    43   20   22 1    
    44   22   23 1    
    45   22   24 1    
    46   22   80 1    
    47   23   81 1    
    48   23   82 1    
    49   23   83 1    
    50   24   25 am   BACKBONE|DICT|INTERRES
    51   24   84 1    
    52   25   26 2    
    53   27   28 2    
    54   27   29 am   BACKBONE|DICT|INTERRES
    55   29   30 1    
    56   29   85 1    
    57   30   31 1    
    58   30   32 1    
    59   30   86 1    
    60   31   87 1    
    61   31   88 1    
    62   31   89 1    
    63   32   33 2    
    64   32   34 am   BACKBONE|DICT|INTERRES
    65   34   35 1    
    66   34   90 1    
    67   35   36 1    
    68   35   37 1    
    69   35   91 1    
    70   36   92 1    
    71   36   93 1    
    72   36   94 1    
    73   37   38 2    
    74   37   39 am   BACKBONE|DICT|INTERRES
    75   39   40 1    
    76   39   95 1    
    77   40   41 1    
    78   40   42 1    
    79   40   96 1    
    80   41   97 1    
    81   41   98 1    
    82   41   99 1    
    83   42   43 2    
    84   42   44 am   BACKBONE|DICT|INTERRES
    85   44   45 1    
    86   44  100 1    
    87   45   46 1    
    88   45   47 1    
    89   45  101 1    
    90   46  102 1    
    91   46  103 1    
    92   46  104 1    
    93   47   48 2    
    94   47   49 am   BACKBONE|DICT|INTERRES
    95   49   50 1    
    96   49  105 1    
    97   50   51 1    
    98   50   52 1    
    99   50  106 1    
   100   51  107 1    
   101   51  108 1    
   102   51  109 1    
   103   52   53 2    
   104   52   54 am   BACKBONE|DICT|INTERRES
   105   54   55 1    
   106   54  110 1    
   107   55   56 1    
   108   55   59 1    
   109   55  111 1    
   110   56   57 am   BACKBONE|DICT|INTERRES
   111   56   58 2    
   112   57  112 1    
   113   57  113 1    
   114   59   60 1    
   115   59  114 1    
   116   59  115 1    
   117   60   61 1    
   118   61  116 1    
   119   61  117 1    
@<TRIPOS>SUBSTRUCTURE
     1 UNK         1 GROUP             0       ****    0 ROOT    
