@<TRIPOS>MOLECULE
3R8
117   119    1
SMALL
USER_CHARGES


@<TRIPOS>ATOM
      1 CA         16.1873  -24.6368  -39.7336 C.3       0 UNK        -0.2013 
      2 C          16.3173  -25.0797  -41.1834 C.2       0 UNK         0.4866 
      3 O          15.5035  -24.6854  -42.0195 O.2       0 UNK        -0.5176 
      4 N          17.3282  -25.9034  -41.4858 N.am      1 UNK        -0.4884 
      5 CA         17.6361  -26.3942  -42.8327 C.3       1 UNK         0.0853 
      6 C6         18.6730  -27.5437  -42.7981 C.3       10 UNK        -0.0849 
      7 S7         18.0105  -29.0425  -42.0003 S.3       10 UNK        -0.2776 
      8 C8         17.7804  -30.1476  -43.4311 C.3       10 UNK         0.0316 
      9 C9         19.1091  -30.6282  -43.9996 C.ar      10 UNK        -0.0863 
     10 C10        19.8720  -31.5585  -43.2903 C.ar      10 UNK        -0.1009 
     11 C11        21.0762  -32.0378  -43.8129 C.ar      10 UNK        -0.0712 
     12 C12        21.5366  -31.5442  -45.0365 C.ar      10 UNK        -0.0894 
     13 C13        20.8005  -30.5913  -45.7477 C.ar      10 UNK        -0.0745 
     14 C14        19.5718  -30.1571  -45.2329 C.ar      10 UNK        -0.0972 
     15 C15        21.3445  -30.0806  -47.0817 C.3       10 UNK         0.0209 
     16 S16        20.9653  -28.3329  -47.4466 S.3       10 UNK        -0.2568 
     17 C17        21.9088  -27.4477  -46.1566 C.3       10 UNK        -0.0983 
     18 CA         21.6630  -25.9186  -46.2277 C.3       3 UNK         0.0876 
     19 N          20.2367  -25.5998  -46.1047 N.am      3 UNK        -0.4424 
     20 C          19.6608  -24.4226  -46.3832 C.2       2 UNK         0.4918 
     21 O          20.2585  -23.4616  -46.8671 O.2       2 UNK        -0.4875 
     22 CA         18.1666  -24.2869  -46.0275 C.3       2 UNK         0.0481 
     23 CB         17.3009  -24.4616  -47.2853 C.3       2 UNK        -0.1831 
     24 N          17.7128  -25.2269  -44.9916 N.am      2 UNK        -0.4498 
     25 C          18.1607  -25.2551  -43.7268 C.2       1 UNK         0.5027 
     26 O          19.0152  -24.4824  -43.2858 O.2       1 UNK        -0.4969 
     27 C          22.5355  -25.1527  -45.2034 C.2       3 UNK         0.5005 
     28 O          23.7382  -25.0178  -45.4298 O.2       3 UNK        -0.5279 
     29 N          21.9186  -24.6428  -44.1220 N.am      4 UNK        -0.4463 
     30 CA         22.4456  -23.7010  -43.1232 C.3       4 UNK         0.0283 
     31 CB         22.8428  -22.3687  -43.7929 C.3       4 UNK        -0.1875 
     32 C          23.5654  -24.2245  -42.2025 C.2       4 UNK         0.4949 
     33 O          24.0200  -23.4697  -41.3413 O.2       4 UNK        -0.5039 
     34 N          23.9819  -25.4851  -42.3544 N.am      5 UNK        -0.4663 
     35 CA         25.0169  -26.1318  -41.5526 C.3       5 UNK         0.0242 
     36 CB         26.4120  -25.6833  -42.0311 C.3       5 UNK        -0.1982 
     37 C          24.8698  -27.6522  -41.6646 C.2       5 UNK         0.5017 
     38 O          24.2852  -28.1363  -42.6372 O.2       5 UNK        -0.5012 
     39 N          25.4344  -28.3632  -40.6766 N.am      6 UNK        -0.4439 
     40 CA         25.5412  -29.8257  -40.5786 C.3       6 UNK         0.0297 
     41 CB         26.5211  -30.3643  -41.6433 C.3       6 UNK        -0.2006 
     42 C          24.1846  -30.5582  -40.6017 C.2       6 UNK         0.4892 
     43 O          24.0859  -31.6419  -41.1781 O.2       6 UNK        -0.5089 
     44 N          23.1663  -29.9714  -39.9557 N.am      7 UNK        -0.4243 
     45 CA         21.7747  -30.4417  -39.9078 C.3       7 UNK         0.0196 
     46 CB         20.8731  -29.2652  -39.4899 C.3       7 UNK        -0.2007 
     47 C          21.5529  -31.6986  -39.0321 C.2       7 UNK         0.5020 
     48 O          20.5898  -31.7599  -38.2674 O.2       7 UNK        -0.5147 
     49 N          22.4393  -32.6917  -39.1624 N.am      8 UNK        -0.4734 
     50 CA         22.4123  -33.9704  -38.4431 C.3       8 UNK         0.0238 
     51 CB         23.8512  -34.5073  -38.3550 C.3       8 UNK        -0.1912 
     52 C          21.4828  -35.0196  -39.0848 C.2       8 UNK         0.5038 
     53 O          21.2979  -36.0905  -38.5052 O.2       8 UNK        -0.5046 
     54 N          20.9370  -34.7095  -40.2673 N.am      9 UNK        -0.4200 
     55 CA         20.0592  -35.5715  -41.0749 C.3       9 UNK         0.0839 
     56 C          18.6640  -35.8603  -40.4460 C.2       9 UNK         0.5513 
     57 N          18.2186  -35.1179  -39.4391 N.am      9 UNK        -0.7519 
     58 O          17.9739  -36.7770  -40.8840 O.2       9 UNK        -0.4960 
     59 C59        19.8940  -35.0283  -42.5215 C.3       10 UNK        -0.0876 
     60 S60        21.4705  -34.7837  -43.4158 S.3       10 UNK        -0.2414 
     61 C61        21.9064  -33.0525  -43.0412 C.3       10 UNK         0.0169 
     62 H62        16.9630  -25.0709  -39.1031 H         1 UNK         0.0903 
     63 H63        16.2623  -23.5518  -39.6650 H         1 UNK         0.0903 
     64 H64        15.2188  -24.9375  -39.3347 H         1 UNK         0.0903 
     65 H65        17.9685  -26.1935  -40.7607 H         1 UNK         0.3096 
     66 H66        16.7086  -26.7730  -43.2687 H         1 UNK         0.1121 
     67 H67        19.0070  -27.7967  -43.8049 H         1 UNK         0.0849 
     68 H68        19.5719  -27.2377  -42.2589 H         1 UNK         0.0849 
     69 H69        17.1870  -29.6403  -44.1934 H         1 UNK         0.0865 
     70 H70        17.1934  -31.0118  -43.1168 H         1 UNK         0.0865 
     71 H71        19.5215  -31.9027  -42.3277 H         1 UNK         0.1346 
     72 H72        22.4769  -31.9025  -45.4333 H         1 UNK         0.1412 
     73 H73        18.9779  -29.4448  -45.7882 H         1 UNK         0.1426 
     74 H74        20.9285  -30.6974  -47.8791 H         1 UNK         0.0716 
     75 H75        22.4272  -30.2095  -47.1251 H         1 UNK         0.0716 
     76 H76        22.9681  -27.6747  -46.2917 H         1 UNK         0.0695 
     77 H77        21.6295  -27.8397  -45.1764 H         1 UNK         0.0695 
     78 H78        21.9844  -25.5752  -47.2137 H         1 UNK         0.0983 
     79 H79        19.6485  -26.3464  -45.7698 H         1 UNK         0.3095 
     80 H80        18.0139  -23.2754  -45.6456 H         1 UNK         0.0454 
     81 H81        17.3948  -25.4637  -47.7059 H         1 UNK         0.0851 
     82 H82        17.5948  -23.7545  -48.0625 H         1 UNK         0.0851 
     83 H83        16.2471  -24.2827  -47.0716 H         1 UNK         0.0851 
     84 H84        17.0107  -25.8960  -45.2754 H         1 UNK         0.2976 
     85 H85        20.9239  -24.8182  -44.0256 H         1 UNK         0.3116 
     86 H86        21.6041  -23.4893  -42.4618 H         1 UNK         0.0646 
     87 H87        23.0878  -21.6111  -43.0475 H         1 UNK         0.0847 
     88 H88        22.0288  -21.9714  -44.3995 H         1 UNK         0.0847 
     89 H89        23.7161  -22.4830  -44.4357 H         1 UNK         0.0847 
     90 H90        23.5676  -26.0710  -43.0688 H         1 UNK         0.3040 
     91 H91        24.8800  -25.8504  -40.5058 H         1 UNK         0.1015 
     92 H92        26.5500  -24.6087  -41.9112 H         1 UNK         0.0786 
     93 H93        26.5697  -25.9241  -43.0833 H         1 UNK         0.0786 
     94 H94        27.2030  -26.1729  -41.4615 H         1 UNK         0.0786 
     95 H95        25.8781  -27.8515  -39.9254 H         1 UNK         0.3172 
     96 H96        25.9755  -30.0347  -39.5999 H         1 UNK         0.0595 
     97 H97        26.1273  -30.2401  -42.6528 H         1 UNK         0.0839 
     98 H98        26.7130  -31.4283  -41.4987 H         1 UNK         0.0839 
     99 H99        27.4832  -29.8546  -41.5933 H         1 UNK         0.0839 
    100 H100       23.3564  -29.1023  -39.4788 H         1 UNK         0.2998 
    101 H101       21.4880  -30.7173  -40.9240 H         1 UNK         0.0822 
    102 H102       20.9836  -28.4200  -40.1697 H         1 UNK         0.0787 
    103 H103       19.8204  -29.5507  -39.5080 H         1 UNK         0.0787 
    104 H104       21.1011  -28.9208  -38.4806 H         1 UNK         0.0787 
    105 H105       23.1885  -32.5543  -39.8384 H         1 UNK         0.3055 
    106 H106       22.0472  -33.7978  -37.4280 H         1 UNK         0.1106 
    107 H107       23.8889  -35.4416  -37.7930 H         1 UNK         0.0828 
    108 H108       24.2695  -34.7035  -39.3431 H         1 UNK         0.0828 
    109 H109       24.5078  -33.8006  -37.8470 H         1 UNK         0.0828 
    110 H110       21.1548  -33.8079  -40.6581 H         1 UNK         0.2931 
    111 H111       20.5604  -36.5388  -41.1467 H         1 UNK         0.0412 
    112 H112       18.7787  -34.3662  -39.0691 H         1 UNK         0.3472 
    113 H113       17.3147  -35.3178  -39.0402 H         1 UNK         0.3472 
    114 H114       19.3128  -34.1085  -42.5247 H         1 UNK         0.0970 
    115 H115       19.3097  -35.7356  -43.1135 H         1 UNK         0.0970 
    116 H116       22.9620  -32.9126  -43.2786 H         1 UNK         0.0612 
    117 H117       21.8175  -32.8672  -41.9741 H         1 UNK         0.0612 
@<TRIPOS>BOND
     1    1    2 1    
     2    1   62 1    
     3    1   63 1    
     4    1   64 1    
     5    2    3 2    
     6    2    4 am   BACKBONE|DICT|INTERRES
     7    4    5 1    
     8    4   65 1    
     9    5    6 1    
    10    5   25 1    
    11    5   66 1    
    12    6    7 1    
    13    6   67 1    
    14    6   68 1    
    15    7    8 1    
    16    8    9 1    
    17    8   69 1    
    18    8   70 1    
    19    9   10 ar   
    20    9   14 ar   
    21   10   11 ar   
    22   10   71 1    
    23   11   12 ar   
    24   11   61 1    
    25   12   13 ar   
    26   12   72 1    
    27   13   14 ar   
    28   13   15 1    
    29   14   73 1    
    30   15   16 1    
    31   15   74 1    
    32   15   75 1    
    33   16   17 1    
    34   17   18 1    
    35   17   76 1    
    36   17   77 1    
    37   18   19 1    
    38   18   27 1    
    39   18   78 1    
    40   19   20 am   BACKBONE|DICT|INTERRES
    41   19   79 1    
    42   20   21 2    
    43   20   22 1    
    44   22   23 1    
    45   22   24 1    
    46   22   80 1    
    47   23   81 1    
    48   23   82 1    
    49   23   83 1    
    50   24   25 am   BACKBONE|DICT|INTERRES
    51   24   84 1    
    52   25   26 2    
    53   27   28 2    
    54   27   29 am   BACKBONE|DICT|INTERRES
    55   29   30 1    
    56   29   85 1    
    57   30   31 1    
    58   30   32 1    
    59   30   86 1    
    60   31   87 1    
    61   31   88 1    
    62   31   89 1    
    63   32   33 2    
    64   32   34 am   BACKBONE|DICT|INTERRES
    65   34   35 1    
    66   34   90 1    
    67   35   36 1    
    68   35   37 1    
    69   35   91 1    
    70   36   92 1    
    71   36   93 1    
    72   36   94 1    
    73   37   38 2    
    74   37   39 am   BACKBONE|DICT|INTERRES
    75   39   40 1    
    76   39   95 1    
    77   40   41 1    
    78   40   42 1    
    79   40   96 1    
    80   41   97 1    
    81   41   98 1    
    82   41   99 1    
    83   42   43 2    
    84   42   44 am   BACKBONE|DICT|INTERRES
    85   44   45 1    
    86   44  100 1    
    87   45   46 1    
    88   45   47 1    
    89   45  101 1    
    90   46  102 1    
    91   46  103 1    
    92   46  104 1    
    93   47   48 2    
    94   47   49 am   BACKBONE|DICT|INTERRES
    95   49   50 1    
    96   49  105 1    
    97   50   51 1    
    98   50   52 1    
    99   50  106 1    
   100   51  107 1    
   101   51  108 1    
   102   51  109 1    
   103   52   53 2    
   104   52   54 am   BACKBONE|DICT|INTERRES
   105   54   55 1    
   106   54  110 1    
   107   55   56 1    
   108   55   59 1    
   109   55  111 1    
   110   56   57 am   BACKBONE|DICT|INTERRES
   111   56   58 2    
   112   57  112 1    
   113   57  113 1    
   114   59   60 1    
   115   59  114 1    
   116   59  115 1    
   117   60   61 1    
   118   61  116 1    
   119   61  117 1    
@<TRIPOS>SUBSTRUCTURE
     1 UNK         1 GROUP             0       ****    0 ROOT    
