@<TRIPOS>MOLECULE
3R8
117   119    1
SMALL
USER_CHARGES


@<TRIPOS>ATOM
      1 CA         15.2177  -24.3361  -43.0314 C.3       0 UNK        -0.2013 
      2 C          14.6015  -23.7839  -44.3164 C.2       0 UNK         0.4866 
      3 O          13.6638  -22.9930  -44.2294 O.2       0 UNK        -0.5176 
      4 N          15.0499  -24.1595  -45.5259 N.am      1 UNK        -0.4884 
      5 CA         16.1778  -25.0309  -45.8957 C.3       1 UNK         0.0853 
      6 C6         16.1428  -26.4199  -45.1969 C.3       10 UNK        -0.0849 
      7 S7         16.7111  -27.7962  -46.2530 S.3       10 UNK        -0.2776 
      8 C8         16.1676  -29.2490  -45.2826 C.3       10 UNK         0.0316 
      9 C9         17.1255  -29.5415  -44.1355 C.ar      10 UNK        -0.0863 
     10 C10        18.1098  -30.5263  -44.2625 C.ar      10 UNK        -0.1009 
     11 C11        19.0427  -30.7360  -43.2405 C.ar      10 UNK        -0.0712 
     12 C12        19.0001  -29.9383  -42.0921 C.ar      10 UNK        -0.0894 
     13 C13        18.0429  -28.9244  -41.9774 C.ar      10 UNK        -0.0745 
     14 C14        17.0684  -28.7811  -42.9665 C.ar      10 UNK        -0.0972 
     15 C15        18.1362  -27.8797  -40.8766 C.3       10 UNK         0.0209 
     16 S16        18.6082  -26.2554  -41.5830 S.3       10 UNK        -0.2568 
     17 C17        20.3517  -26.5302  -42.0511 C.3       10 UNK        -0.0983 
     18 CA         20.5412  -27.1297  -43.4748 C.3       3 UNK         0.0876 
     19 N          20.1151  -26.2542  -44.5745 N.am      3 UNK        -0.4424 
     20 C          20.6288  -25.0883  -44.9867 C.2       2 UNK         0.4918 
     21 O          21.6091  -24.5494  -44.4736 O.2       2 UNK        -0.4875 
     22 CA         19.9694  -24.4449  -46.2209 C.3       2 UNK         0.0481 
     23 CB         20.7633  -24.8001  -47.4885 C.3       2 UNK        -0.1831 
     24 N          18.5740  -24.8664  -46.3908 N.am      2 UNK        -0.4498 
     25 C          17.5443  -24.3272  -45.7252 C.2       1 UNK         0.5027 
     26 O          17.6562  -23.3392  -44.9954 O.2       1 UNK        -0.4969 
     27 C          21.9443  -27.7588  -43.6153 C.2       3 UNK         0.5005 
     28 O          22.1564  -28.8298  -43.0468 O.2       3 UNK        -0.5279 
     29 N          22.8821  -27.1080  -44.3207 N.am      4 UNK        -0.4463 
     30 CA         24.2808  -27.5202  -44.5189 C.3       4 UNK         0.0283 
     31 CB         24.3584  -28.7547  -45.4415 C.3       4 UNK        -0.1875 
     32 C          25.0158  -27.7211  -43.1777 C.2       4 UNK         0.4949 
     33 O          25.6109  -28.7728  -42.9396 O.2       4 UNK        -0.5039 
     34 N          24.8879  -26.7105  -42.3038 N.am      5 UNK        -0.4663 
     35 CA         25.3555  -26.6577  -40.9103 C.3       5 UNK         0.0242 
     36 CB         26.8891  -26.8165  -40.8234 C.3       5 UNK        -0.1982 
     37 C          24.6124  -27.6163  -39.9557 C.2       5 UNK         0.5017 
     38 O          25.0848  -27.8346  -38.8397 O.2       5 UNK        -0.5012 
     39 N          23.4726  -28.1734  -40.3954 N.am      6 UNK        -0.4439 
     40 CA         22.5424  -29.0759  -39.6986 C.3       6 UNK         0.0297 
     41 CB         21.9721  -28.4362  -38.4190 C.3       6 UNK        -0.2006 
     42 C          23.0899  -30.4869  -39.4264 C.2       6 UNK         0.4892 
     43 O          22.3219  -31.4463  -39.5051 O.2       6 UNK        -0.5089 
     44 N          24.3986  -30.6010  -39.1614 N.am      7 UNK        -0.4243 
     45 CA         25.1443  -31.8415  -38.9219 C.3       7 UNK         0.0196 
     46 CB         26.6160  -31.4948  -38.6478 C.3       7 UNK        -0.2007 
     47 C          25.0391  -32.8744  -40.0580 C.2       7 UNK         0.5020 
     48 O          25.1383  -34.0720  -39.7914 O.2       7 UNK        -0.5147 
     49 N          24.7783  -32.4053  -41.2870 N.am      8 UNK        -0.4734 
     50 CA         24.4626  -33.2201  -42.4650 C.3       8 UNK         0.0238 
     51 CB         24.2970  -32.2884  -43.6768 C.3       8 UNK        -0.1912 
     52 C          23.2116  -34.1087  -42.3027 C.2       8 UNK         0.5038 
     53 O          23.1174  -35.1312  -42.9829 O.2       8 UNK        -0.5046 
     54 N          22.2970  -33.7140  -41.4079 N.am      9 UNK        -0.4200 
     55 CA         21.0879  -34.4538  -41.0202 C.3       9 UNK         0.0839 
     56 C          21.1416  -34.9318  -39.5392 C.2       9 UNK         0.5513 
     57 N          22.2944  -34.9355  -38.8782 N.am      9 UNK        -0.7519 
     58 O          20.1247  -35.3353  -38.9802 O.2       9 UNK        -0.4960 
     59 C59        19.8047  -33.6391  -41.3418 C.3       10 UNK        -0.0876 
     60 S60        19.5588  -33.4554  -43.1407 S.3       10 UNK        -0.2414 
     61 C61        20.1503  -31.7610  -43.4275 C.3       10 UNK         0.0169 
     62 H62        14.8210  -25.3268  -42.8131 H         1 UNK         0.0903 
     63 H63        16.3028  -24.3959  -43.0774 H         1 UNK         0.0903 
     64 H64        14.9709  -23.6899  -42.1895 H         1 UNK         0.0903 
     65 H65        14.5948  -23.7372  -46.3238 H         1 UNK         0.3096 
     66 H66        16.0478  -25.1859  -46.9686 H         1 UNK         0.1121 
     67 H67        15.1225  -26.6601  -44.8937 H         1 UNK         0.0849 
     68 H68        16.7387  -26.4034  -44.2847 H         1 UNK         0.0849 
     69 H69        15.1570  -29.0936  -44.9019 H         1 UNK         0.0865 
     70 H70        16.1087  -30.1114  -45.9484 H         1 UNK         0.0865 
     71 H71        18.1692  -31.1152  -45.1678 H         1 UNK         0.1346 
     72 H72        19.7594  -30.0546  -41.3320 H         1 UNK         0.1412 
     73 H73        16.3199  -28.0096  -42.8597 H         1 UNK         0.1426 
     74 H74        18.8542  -28.1735  -40.1092 H         1 UNK         0.0716 
     75 H75        17.1687  -27.7878  -40.3812 H         1 UNK         0.0716 
     76 H76        20.7877  -27.1774  -41.2892 H         1 UNK         0.0695 
     77 H77        20.8822  -25.5804  -41.9681 H         1 UNK         0.0695 
     78 H78        19.8740  -27.9784  -43.5812 H         1 UNK         0.0983 
     79 H79        19.3264  -26.6077  -45.0957 H         1 UNK         0.3095 
     80 H80        20.0072  -23.3610  -46.0928 H         1 UNK         0.0454 
     81 H81        20.7744  -25.8748  -47.6749 H         1 UNK         0.0851 
     82 H82        21.8009  -24.4739  -47.4033 H         1 UNK         0.0851 
     83 H83        20.3447  -24.3111  -48.3682 H         1 UNK         0.0851 
     84 H84        18.4041  -25.6620  -46.9917 H         1 UNK         0.2976 
     85 H85        22.6298  -26.1875  -44.6687 H         1 UNK         0.3116 
     86 H86        24.7835  -26.6958  -45.0268 H         1 UNK         0.0646 
     87 H87        23.8813  -28.5617  -46.4020 H         1 UNK         0.0847 
     88 H88        25.3948  -29.0281  -45.6432 H         1 UNK         0.0847 
     89 H89        23.8741  -29.6239  -44.9972 H         1 UNK         0.0847 
     90 H90        24.3645  -25.9008  -42.6103 H         1 UNK         0.3040 
     91 H91        25.1149  -25.6544  -40.5547 H         1 UNK         0.1015 
     92 H92        27.2088  -27.8307  -41.0644 H         1 UNK         0.0786 
     93 H93        27.2487  -26.5975  -39.8172 H         1 UNK         0.0786 
     94 H94        27.3988  -26.1328  -41.5022 H         1 UNK         0.0786 
     95 H95        23.2418  -28.0263  -41.3711 H         1 UNK         0.3172 
     96 H96        21.7087  -29.2103  -40.3869 H         1 UNK         0.0595 
     97 H97        22.7395  -28.2834  -37.6598 H         1 UNK         0.0839 
     98 H98        21.2046  -29.0731  -37.9773 H         1 UNK         0.0839 
     99 H99        21.5099  -27.4718  -38.6298 H         1 UNK         0.0839 
    100 H100       24.9176  -29.7320  -39.0761 H         1 UNK         0.2998 
    101 H101       24.7240  -32.3033  -38.0262 H         1 UNK         0.0822 
    102 H102       27.1980  -32.3938  -38.4395 H         1 UNK         0.0787 
    103 H103       27.0776  -30.9964  -39.5015 H         1 UNK         0.0787 
    104 H104       26.7150  -30.8386  -37.7827 H         1 UNK         0.0787 
    105 H105       24.7248  -31.4031  -41.4057 H         1 UNK         0.3055 
    106 H106       25.3101  -33.8845  -42.6465 H         1 UNK         0.1106 
    107 H107       24.0838  -32.8568  -44.5832 H         1 UNK         0.0828 
    108 H108       23.4762  -31.5842  -43.5322 H         1 UNK         0.0828 
    109 H109       25.2031  -31.7108  -43.8626 H         1 UNK         0.0828 
    110 H110       22.4720  -32.8758  -40.8617 H         1 UNK         0.2931 
    111 H111       21.0336  -35.3805  -41.5939 H         1 UNK         0.0412 
    112 H112       22.3097  -35.2567  -37.9232 H         1 UNK         0.3472 
    113 H113       23.1550  -34.6470  -39.3260 H         1 UNK         0.3472 
    114 H114       18.9174  -34.1424  -40.9539 H         1 UNK         0.0970 
    115 H115       19.8324  -32.6616  -40.8572 H         1 UNK         0.0970 
    116 H116       20.9974  -31.5424  -42.7754 H         1 UNK         0.0612 
    117 H117       20.5332  -31.6934  -44.4467 H         1 UNK         0.0612 
@<TRIPOS>BOND
     1    1    2 1    
     2    1   62 1    
     3    1   63 1    
     4    1   64 1    
     5    2    3 2    
     6    2    4 am   BACKBONE|DICT|INTERRES
     7    4    5 1    
     8    4   65 1    
     9    5    6 1    
    10    5   25 1    
    11    5   66 1    
    12    6    7 1    
    13    6   67 1    
    14    6   68 1    
    15    7    8 1    
    16    8    9 1    
    17    8   69 1    
    18    8   70 1    
    19    9   10 ar   
    20    9   14 ar   
    21   10   11 ar   
    22   10   71 1    
    23   11   12 ar   
    24   11   61 1    
    25   12   13 ar   
    26   12   72 1    
    27   13   14 ar   
    28   13   15 1    
    29   14   73 1    
    30   15   16 1    
    31   15   74 1    
    32   15   75 1    
    33   16   17 1    
    34   17   18 1    
    35   17   76 1    
    36   17   77 1    
    37   18   19 1    
    38   18   27 1    
    39   18   78 1    
    40   19   20 am   BACKBONE|DICT|INTERRES
    41   19   79 1    
    42   20   21 2    
    43   20   22 1    
    44   22   23 1    
    45   22   24 1    
    46   22   80 1    
    47   23   81 1    
    48   23   82 1    
    49   23   83 1    
    50   24   25 am   BACKBONE|DICT|INTERRES
    51   24   84 1    
    52   25   26 2    
    53   27   28 2    
    54   27   29 am   BACKBONE|DICT|INTERRES
    55   29   30 1    
    56   29   85 1    
    57   30   31 1    
    58   30   32 1    
    59   30   86 1    
    60   31   87 1    
    61   31   88 1    
    62   31   89 1    
    63   32   33 2    
    64   32   34 am   BACKBONE|DICT|INTERRES
    65   34   35 1    
    66   34   90 1    
    67   35   36 1    
    68   35   37 1    
    69   35   91 1    
    70   36   92 1    
    71   36   93 1    
    72   36   94 1    
    73   37   38 2    
    74   37   39 am   BACKBONE|DICT|INTERRES
    75   39   40 1    
    76   39   95 1    
    77   40   41 1    
    78   40   42 1    
    79   40   96 1    
    80   41   97 1    
    81   41   98 1    
    82   41   99 1    
    83   42   43 2    
    84   42   44 am   BACKBONE|DICT|INTERRES
    85   44   45 1    
    86   44  100 1    
    87   45   46 1    
    88   45   47 1    
    89   45  101 1    
    90   46  102 1    
    91   46  103 1    
    92   46  104 1    
    93   47   48 2    
    94   47   49 am   BACKBONE|DICT|INTERRES
    95   49   50 1    
    96   49  105 1    
    97   50   51 1    
    98   50   52 1    
    99   50  106 1    
   100   51  107 1    
   101   51  108 1    
   102   51  109 1    
   103   52   53 2    
   104   52   54 am   BACKBONE|DICT|INTERRES
   105   54   55 1    
   106   54  110 1    
   107   55   56 1    
   108   55   59 1    
   109   55  111 1    
   110   56   57 am   BACKBONE|DICT|INTERRES
   111   56   58 2    
   112   57  112 1    
   113   57  113 1    
   114   59   60 1    
   115   59  114 1    
   116   59  115 1    
   117   60   61 1    
   118   61  116 1    
   119   61  117 1    
@<TRIPOS>SUBSTRUCTURE
     1 UNK         1 GROUP             0       ****    0 ROOT    
