@<TRIPOS>MOLECULE
3R8
117   119    1
SMALL
USER_CHARGES


@<TRIPOS>ATOM
      1 CA         16.9980  -24.6921  -39.3321 C.3       0 UNK        -0.2013 
      2 C          17.7948  -25.5575  -40.2974 C.2       0 UNK         0.4866 
      3 O          18.5347  -26.4339  -39.8503 O.2       0 UNK        -0.5176 
      4 N          17.6341  -25.3115  -41.6075 N.am      1 UNK        -0.4884 
      5 CA         18.3098  -25.9785  -42.7356 C.3       1 UNK         0.0853 
      6 C6         18.1078  -27.5213  -42.7629 C.3       10 UNK        -0.0849 
      7 S7         16.3780  -28.0782  -42.5500 S.3       10 UNK        -0.2776 
      8 C8         15.9120  -28.6745  -44.2042 C.3       10 UNK         0.0316 
      9 C9         16.6066  -29.9745  -44.5952 C.ar      10 UNK        -0.0863 
     10 C10        16.1752  -31.2040  -44.0810 C.ar      10 UNK        -0.1009 
     11 C11        16.7441  -32.4018  -44.5322 C.ar      10 UNK        -0.0712 
     12 C12        17.7698  -32.3583  -45.4813 C.ar      10 UNK        -0.0894 
     13 C13        18.2185  -31.1390  -45.9942 C.ar      10 UNK        -0.0745 
     14 C14        17.6275  -29.9521  -45.5483 C.ar      10 UNK        -0.0972 
     15 C15        19.2695  -31.1297  -47.0994 C.3       10 UNK         0.0209 
     16 S16        20.4760  -29.7756  -46.9509 S.3       10 UNK        -0.2568 
     17 C17        21.5753  -30.4144  -45.6484 C.3       10 UNK        -0.0983 
     18 CA         22.6969  -29.3895  -45.3699 C.3       3 UNK         0.0876 
     19 N          22.2039  -28.2056  -44.6577 N.am      3 UNK        -0.4424 
     20 C          22.5369  -26.9476  -44.9676 C.2       2 UNK         0.4918 
     21 O          23.2656  -26.6450  -45.9134 O.2       2 UNK        -0.4875 
     22 CA         21.9376  -25.8483  -44.0782 C.3       2 UNK         0.0481 
     23 CB         22.1823  -24.4266  -44.6271 C.3       2 UNK        -0.1831 
     24 N          20.5082  -26.0845  -43.8543 N.am      2 UNK        -0.4498 
     25 C          19.8114  -25.5934  -42.8195 C.2       1 UNK         0.5027 
     26 O          20.3149  -24.8464  -41.9761 O.2       1 UNK        -0.4969 
     27 C          23.8783  -30.0140  -44.6113 C.2       3 UNK         0.5005 
     28 O          24.8744  -30.3734  -45.2408 O.2       3 UNK        -0.5279 
     29 N          23.7997  -30.0615  -43.2746 N.am      4 UNK        -0.4463 
     30 CA         24.9155  -30.3992  -42.3900 C.3       4 UNK         0.0283 
     31 CB         24.3830  -31.1756  -41.1733 C.3       4 UNK        -0.1875 
     32 C          25.6514  -29.1041  -42.0083 C.2       4 UNK         0.4949 
     33 O          25.6605  -28.7138  -40.8401 O.2       4 UNK        -0.5039 
     34 N          26.1928  -28.4246  -43.0302 N.am      5 UNK        -0.4663 
     35 CA         26.8601  -27.1137  -43.0318 C.3       5 UNK         0.0242 
     36 CB         28.1286  -27.1197  -42.1555 C.3       5 UNK        -0.1982 
     37 C          25.9353  -25.9355  -42.6737 C.2       5 UNK         0.5017 
     38 O          25.8305  -24.9906  -43.4552 O.2       5 UNK        -0.5012 
     39 N          25.2822  -26.0157  -41.5118 N.am      6 UNK        -0.4439 
     40 CA         24.3588  -25.0207  -40.9670 C.3       6 UNK         0.0297 
     41 CB         25.1473  -23.9110  -40.2429 C.3       6 UNK        -0.2006 
     42 C          23.3163  -25.7067  -40.0672 C.2       6 UNK         0.4892 
     43 O          22.9422  -25.1563  -39.0301 O.2       6 UNK        -0.5089 
     44 N          22.8909  -26.9120  -40.4630 N.am      7 UNK        -0.4243 
     45 CA         21.9370  -27.7543  -39.7522 C.3       7 UNK         0.0196 
     46 CB         22.6489  -28.4937  -38.6010 C.3       7 UNK        -0.2007 
     47 C          21.2704  -28.7220  -40.7390 C.2       7 UNK         0.5020 
     48 O          21.6597  -28.7882  -41.9109 O.2       7 UNK        -0.5147 
     49 N          20.2616  -29.4427  -40.2440 N.am      8 UNK        -0.4734 
     50 CA         19.4479  -30.3964  -40.9968 C.3       8 UNK         0.0238 
     51 CB         18.0581  -30.4603  -40.3322 C.3       8 UNK        -0.1912 
     52 C          20.0810  -31.7920  -41.0791 C.2       8 UNK         0.5038 
     53 O          21.1472  -32.0422  -40.5142 O.2       8 UNK        -0.5046 
     54 N          19.3606  -32.6799  -41.7698 N.am      9 UNK        -0.4200 
     55 CA         19.6085  -34.1212  -41.9044 C.3       9 UNK         0.0839 
     56 C          19.6678  -34.9357  -40.5762 C.2       9 UNK         0.5513 
     57 N          19.1553  -34.4346  -39.4586 N.am      9 UNK        -0.7519 
     58 O          20.1929  -36.0461  -40.5654 O.2       9 UNK        -0.4960 
     59 C59        18.5900  -34.7482  -42.8955 C.3       10 UNK        -0.0876 
     60 S60        16.8510  -34.3265  -42.4915 S.3       10 UNK        -0.2414 
     61 C61        16.1843  -33.7477  -44.0832 C.3       10 UNK         0.0169 
     62 H62        16.3751  -23.9645  -39.8520 H         1 UNK         0.0903 
     63 H63        16.3491  -25.3166  -38.7185 H         1 UNK         0.0903 
     64 H64        17.6738  -24.1499  -38.6713 H         1 UNK         0.0903 
     65 H65        17.0179  -24.5581  -41.8788 H         1 UNK         0.3096 
     66 H66        17.8471  -25.5705  -43.6356 H         1 UNK         0.1121 
     67 H67        18.6777  -27.9538  -41.9467 H         1 UNK         0.0849 
     68 H68        18.5132  -27.9576  -43.6759 H         1 UNK         0.0849 
     69 H69        16.1100  -27.8900  -44.9363 H         1 UNK         0.0865 
     70 H70        14.8326  -28.8321  -44.2229 H         1 UNK         0.0865 
     71 H71        15.3652  -31.2303  -43.3645 H         1 UNK         0.1346 
     72 H72        18.1897  -33.2807  -45.8584 H         1 UNK         0.1412 
     73 H73        17.9391  -29.0078  -45.9727 H         1 UNK         0.1426 
     74 H74        18.7555  -31.0289  -48.0560 H         1 UNK         0.0716 
     75 H75        19.8059  -32.0793  -47.1366 H         1 UNK         0.0716 
     76 H76        21.9878  -31.3644  -45.9944 H         1 UNK         0.0695 
     77 H77        20.9975  -30.6285  -44.7469 H         1 UNK         0.0695 
     78 H78        23.1038  -29.0879  -46.3385 H         1 UNK         0.0983 
     79 H79        21.6724  -28.3735  -43.8087 H         1 UNK         0.3095 
     80 H80        22.4527  -25.9359  -43.1219 H         1 UNK         0.0454 
     81 H81        21.6891  -24.2778  -45.5880 H         1 UNK         0.0851 
     82 H82        23.2477  -24.2416  -44.7716 H         1 UNK         0.0851 
     83 H83        21.8196  -23.6614  -43.9413 H         1 UNK         0.0851 
     84 H84        20.0496  -26.6716  -44.5380 H         1 UNK         0.2976 
     85 H85        22.9648  -29.7011  -42.8167 H         1 UNK         0.3116 
     86 H86        25.6305  -31.0451  -42.9039 H         1 UNK         0.0646 
     87 H87        23.6176  -30.6167  -40.6378 H         1 UNK         0.0847 
     88 H88        25.1833  -31.3989  -40.4668 H         1 UNK         0.0847 
     89 H89        23.9418  -32.1256  -41.4751 H         1 UNK         0.0847 
     90 H90        26.0851  -28.8437  -43.9465 H         1 UNK         0.3040 
     91 H91        27.1812  -26.9489  -44.0621 H         1 UNK         0.1015 
     92 H92        27.9025  -27.2804  -41.1010 H         1 UNK         0.0786 
     93 H93        28.6561  -26.1678  -42.2303 H         1 UNK         0.0786 
     94 H94        28.8223  -27.8992  -42.4704 H         1 UNK         0.0786 
     95 H95        25.4149  -26.8652  -40.9632 H         1 UNK         0.3172 
     96 H96        23.8039  -24.5608  -41.7868 H         1 UNK         0.0595 
     97 H97        25.7094  -24.3071  -39.3964 H         1 UNK         0.0839 
     98 H98        24.4783  -23.1388  -39.8609 H         1 UNK         0.0839 
     99 H99        25.8524  -23.4202  -40.9138 H         1 UNK         0.0839 
    100 H100       23.1988  -27.2885  -41.3485 H         1 UNK         0.2998 
    101 H101       21.1478  -27.1204  -39.3419 H         1 UNK         0.0822 
    102 H102       23.0037  -27.7927  -37.8454 H         1 UNK         0.0787 
    103 H103       21.9838  -29.1950  -38.0963 H         1 UNK         0.0787 
    104 H104       23.5125  -29.0560  -38.9551 H         1 UNK         0.0787 
    105 H105       20.0315  -29.3374  -39.2667 H         1 UNK         0.3055 
    106 H106       19.3380  -30.0473  -42.0251 H         1 UNK         0.1106 
    107 H107       18.0981  -30.9432  -39.3551 H         1 UNK         0.0828 
    108 H108       17.3437  -31.0124  -40.9443 H         1 UNK         0.0828 
    109 H109       17.6410  -29.4633  -40.1877 H         1 UNK         0.0828 
    110 H110       18.4901  -32.3744  -42.1806 H         1 UNK         0.2931 
    111 H111       20.6002  -34.2166  -42.3506 H         1 UNK         0.0412 
    112 H112       19.2039  -34.9728  -38.6078 H         1 UNK         0.3472 
    113 H113       18.7154  -33.5294  -39.4599 H         1 UNK         0.3472 
    114 H114       18.8230  -34.4105  -43.9041 H         1 UNK         0.0970 
    115 H115       18.6904  -35.8349  -42.9323 H         1 UNK         0.0970 
    116 H116       15.0999  -33.6704  -43.9920 H         1 UNK         0.0612 
    117 H117       16.3648  -34.5101  -44.8427 H         1 UNK         0.0612 
@<TRIPOS>BOND
     1    1    2 1    
     2    1   62 1    
     3    1   63 1    
     4    1   64 1    
     5    2    3 2    
     6    2    4 am   BACKBONE|DICT|INTERRES
     7    4    5 1    
     8    4   65 1    
     9    5    6 1    
    10    5   25 1    
    11    5   66 1    
    12    6    7 1    
    13    6   67 1    
    14    6   68 1    
    15    7    8 1    
    16    8    9 1    
    17    8   69 1    
    18    8   70 1    
    19    9   10 ar   
    20    9   14 ar   
    21   10   11 ar   
    22   10   71 1    
    23   11   12 ar   
    24   11   61 1    
    25   12   13 ar   
    26   12   72 1    
    27   13   14 ar   
    28   13   15 1    
    29   14   73 1    
    30   15   16 1    
    31   15   74 1    
    32   15   75 1    
    33   16   17 1    
    34   17   18 1    
    35   17   76 1    
    36   17   77 1    
    37   18   19 1    
    38   18   27 1    
    39   18   78 1    
    40   19   20 am   BACKBONE|DICT|INTERRES
    41   19   79 1    
    42   20   21 2    
    43   20   22 1    
    44   22   23 1    
    45   22   24 1    
    46   22   80 1    
    47   23   81 1    
    48   23   82 1    
    49   23   83 1    
    50   24   25 am   BACKBONE|DICT|INTERRES
    51   24   84 1    
    52   25   26 2    
    53   27   28 2    
    54   27   29 am   BACKBONE|DICT|INTERRES
    55   29   30 1    
    56   29   85 1    
    57   30   31 1    
    58   30   32 1    
    59   30   86 1    
    60   31   87 1    
    61   31   88 1    
    62   31   89 1    
    63   32   33 2    
    64   32   34 am   BACKBONE|DICT|INTERRES
    65   34   35 1    
    66   34   90 1    
    67   35   36 1    
    68   35   37 1    
    69   35   91 1    
    70   36   92 1    
    71   36   93 1    
    72   36   94 1    
    73   37   38 2    
    74   37   39 am   BACKBONE|DICT|INTERRES
    75   39   40 1    
    76   39   95 1    
    77   40   41 1    
    78   40   42 1    
    79   40   96 1    
    80   41   97 1    
    81   41   98 1    
    82   41   99 1    
    83   42   43 2    
    84   42   44 am   BACKBONE|DICT|INTERRES
    85   44   45 1    
    86   44  100 1    
    87   45   46 1    
    88   45   47 1    
    89   45  101 1    
    90   46  102 1    
    91   46  103 1    
    92   46  104 1    
    93   47   48 2    
    94   47   49 am   BACKBONE|DICT|INTERRES
    95   49   50 1    
    96   49  105 1    
    97   50   51 1    
    98   50   52 1    
    99   50  106 1    
   100   51  107 1    
   101   51  108 1    
   102   51  109 1    
   103   52   53 2    
   104   52   54 am   BACKBONE|DICT|INTERRES
   105   54   55 1    
   106   54  110 1    
   107   55   56 1    
   108   55   59 1    
   109   55  111 1    
   110   56   57 am   BACKBONE|DICT|INTERRES
   111   56   58 2    
   112   57  112 1    
   113   57  113 1    
   114   59   60 1    
   115   59  114 1    
   116   59  115 1    
   117   60   61 1    
   118   61  116 1    
   119   61  117 1    
@<TRIPOS>SUBSTRUCTURE
     1 UNK         1 GROUP             0       ****    0 ROOT    
