@<TRIPOS>MOLECULE
3R8
117   119    1
SMALL
USER_CHARGES


@<TRIPOS>ATOM
      1 CA         18.6800  -27.8313  -41.8415 C.3       0 UNK        -0.2013 
      2 C          17.5022  -27.0222  -42.3532 C.2       0 UNK         0.4866 
      3 O          17.0730  -26.0835  -41.6824 O.2       0 UNK        -0.5176 
      4 N          16.9784  -27.3658  -43.5390 N.am      1 UNK        -0.4884 
      5 CA         15.8839  -26.6284  -44.1849 C.3       1 UNK         0.0853 
      6 C6         15.1371  -27.4808  -45.2442 C.3       10 UNK        -0.0849 
      7 S7         16.0569  -27.8192  -46.7896 S.3       10 UNK        -0.2776 
      8 C8         16.4570  -29.5889  -46.6464 C.3       10 UNK         0.0316 
      9 C9         17.7046  -29.8245  -45.8085 C.ar      10 UNK        -0.0863 
     10 C10        17.6213  -30.4722  -44.5726 C.ar      10 UNK        -0.1009 
     11 C11        18.7788  -30.7336  -43.8332 C.ar      10 UNK        -0.0712 
     12 C12        20.0235  -30.3307  -44.3289 C.ar      10 UNK        -0.0894 
     13 C13        20.1174  -29.6731  -45.5591 C.ar      10 UNK        -0.0745 
     14 C14        18.9545  -29.4300  -46.2957 C.ar      10 UNK        -0.0972 
     15 C15        21.4753  -29.2675  -46.1185 C.3       10 UNK         0.0209 
     16 S16        21.6402  -27.4649  -46.3223 S.3       10 UNK        -0.2568 
     17 C17        21.9092  -26.9292  -44.6031 C.3       10 UNK        -0.0983 
     18 CA         21.6757  -25.4071  -44.4169 C.3       3 UNK         0.0876 
     19 N          20.2802  -25.0281  -44.6320 N.am      3 UNK        -0.4424 
     20 C          19.8303  -24.2688  -45.6398 C.2       2 UNK         0.4918 
     21 O          20.5605  -23.7745  -46.5003 O.2       2 UNK        -0.4875 
     22 CA         18.3088  -24.0424  -45.7098 C.3       2 UNK         0.0481 
     23 CB         17.8214  -23.6909  -47.1306 C.3       2 UNK        -0.1831 
     24 N          17.6051  -25.2219  -45.2110 N.am      2 UNK        -0.4498 
     25 C          16.3567  -25.2612  -44.7280 C.2       1 UNK         0.5027 
     26 O          15.6063  -24.2855  -44.6715 O.2       1 UNK        -0.4969 
     27 C          22.0497  -24.9926  -42.9887 C.2       3 UNK         0.5005 
     28 O          21.3499  -25.3816  -42.0507 O.2       3 UNK        -0.5279 
     29 N          23.1506  -24.2426  -42.8424 N.am      4 UNK        -0.4463 
     30 CA         23.7640  -23.9414  -41.5457 C.3       4 UNK         0.0283 
     31 CB         24.6447  -22.6858  -41.6571 C.3       4 UNK        -0.1875 
     32 C          24.5778  -25.1437  -41.0428 C.2       4 UNK         0.4949 
     33 O          24.4121  -25.5654  -39.8984 O.2       4 UNK        -0.5039 
     34 N          25.3995  -25.7173  -41.9329 N.am      5 UNK        -0.4663 
     35 CA         26.1746  -26.9392  -41.7078 C.3       5 UNK         0.0242 
     36 CB         27.4540  -26.8824  -42.5638 C.3       5 UNK        -0.1982 
     37 C          25.3154  -28.1830  -42.0027 C.2       5 UNK         0.5017 
     38 O          25.6578  -28.9832  -42.8745 O.2       5 UNK        -0.5012 
     39 N          24.1872  -28.2980  -41.2902 N.am      6 UNK        -0.4439 
     40 CA         23.1926  -29.3613  -41.4534 C.3       6 UNK         0.0297 
     41 CB         21.9016  -28.9491  -40.7324 C.3       6 UNK        -0.2006 
     42 C          23.6648  -30.7393  -40.9582 C.2       6 UNK         0.4892 
     43 O          23.1350  -31.7483  -41.4224 O.2       6 UNK        -0.5089 
     44 N          24.6232  -30.7574  -40.0162 N.am      7 UNK        -0.4243 
     45 CA         25.2736  -31.9398  -39.4277 C.3       7 UNK         0.0196 
     46 CB         26.1978  -32.6069  -40.4688 C.3       7 UNK        -0.2007 
     47 C          24.2893  -32.9400  -38.7831 C.2       7 UNK         0.5020 
     48 O          24.5090  -34.1494  -38.8530 O.2       7 UNK        -0.5147 
     49 N          23.2084  -32.4082  -38.1906 N.am      8 UNK        -0.4734 
     50 CA         22.0570  -33.1204  -37.6120 C.3       8 UNK         0.0238 
     51 CB         22.4857  -34.0175  -36.4304 C.3       8 UNK        -0.1912 
     52 C          21.1915  -33.8789  -38.6435 C.2       8 UNK         0.5038 
     53 O          20.3516  -34.6870  -38.2430 O.2       8 UNK        -0.5046 
     54 N          21.3697  -33.5765  -39.9370 N.am      9 UNK        -0.4200 
     55 CA         20.6596  -34.1584  -41.0828 C.3       9 UNK         0.0839 
     56 C          20.9629  -35.6673  -41.3288 C.2       9 UNK         0.5513 
     57 N          20.2401  -36.3084  -42.2376 N.am      9 UNK        -0.7519 
     58 O          21.8681  -36.2575  -40.7428 O.2       9 UNK        -0.4960 
     59 C59        19.1391  -33.8069  -41.0759 C.3       10 UNK        -0.0876 
     60 S60        18.5746  -33.2519  -42.7181 S.3       10 UNK        -0.2414 
     61 C61        18.6882  -31.4510  -42.4972 C.3       10 UNK         0.0169 
     62 H62        19.2970  -27.2163  -41.1869 H         1 UNK         0.0903 
     63 H63        18.3320  -28.6915  -41.2714 H         1 UNK         0.0903 
     64 H64        19.3072  -28.1782  -42.6600 H         1 UNK         0.0903 
     65 H65        17.3509  -28.1537  -44.0546 H         1 UNK         0.3096 
     66 H66        15.1520  -26.4007  -43.4058 H         1 UNK         0.1121 
     67 H67        14.2139  -26.9713  -45.5265 H         1 UNK         0.0849 
     68 H68        14.8148  -28.4216  -44.7956 H         1 UNK         0.0849 
     69 H69        15.6006  -30.1369  -46.2504 H         1 UNK         0.0865 
     70 H70        16.6289  -29.9873  -47.6474 H         1 UNK         0.0865 
     71 H71        16.6608  -30.7935  -44.1922 H         1 UNK         0.1346 
     72 H72        20.9193  -30.5392  -43.7596 H         1 UNK         0.1412 
     73 H73        19.0239  -28.9357  -47.2556 H         1 UNK         0.1426 
     74 H74        22.2873  -29.6339  -45.4880 H         1 UNK         0.0716 
     75 H75        21.6073  -29.7414  -47.0920 H         1 UNK         0.0716 
     76 H76        22.9314  -27.1999  -44.3298 H         1 UNK         0.0695 
     77 H77        21.2545  -27.5032  -43.9453 H         1 UNK         0.0695 
     78 H78        22.3264  -24.8716  -45.1119 H         1 UNK         0.0983 
     79 H79        19.6440  -25.3055  -43.8982 H         1 UNK         0.3095 
     80 H80        18.0896  -23.2014  -45.0491 H         1 UNK         0.0454 
     81 H81        16.7489  -23.4984  -47.1507 H         1 UNK         0.0851 
     82 H82        18.0295  -24.4977  -47.8342 H         1 UNK         0.0851 
     83 H83        18.3132  -22.7925  -47.5056 H         1 UNK         0.0851 
     84 H84        18.1209  -26.0906  -45.2493 H         1 UNK         0.2976 
     85 H85        23.6482  -23.9345  -43.6662 H         1 UNK         0.3116 
     86 H86        22.9765  -23.7364  -40.8168 H         1 UNK         0.0646 
     87 H87        24.0586  -21.8175  -41.9588 H         1 UNK         0.0847 
     88 H88        25.1024  -22.4465  -40.6961 H         1 UNK         0.0847 
     89 H89        25.4524  -22.8117  -42.3790 H         1 UNK         0.0847 
     90 H90        25.4476  -25.3265  -42.8622 H         1 UNK         0.3040 
     91 H91        26.4775  -26.9924  -40.6594 H         1 UNK         0.1015 
     92 H92        27.2279  -26.8352  -43.6299 H         1 UNK         0.0786 
     93 H93        28.0730  -27.7657  -42.4001 H         1 UNK         0.0786 
     94 H94        28.0613  -26.0129  -42.3110 H         1 UNK         0.0786 
     95 H95        23.9831  -27.5693  -40.6150 H         1 UNK         0.3172 
     96 H96        22.9722  -29.4539  -42.5191 H         1 UNK         0.0595 
     97 H97        22.0513  -28.8455  -39.6571 H         1 UNK         0.0839 
     98 H98        21.1139  -29.6874  -40.8832 H         1 UNK         0.0839 
     99 H99        21.5329  -27.9964  -41.1105 H         1 UNK         0.0839 
    100 H100       24.9634  -29.8642  -39.6887 H         1 UNK         0.2998 
    101 H101       25.9029  -31.5733  -38.6152 H         1 UNK         0.0822 
    102 H102       26.7900  -33.4037  -40.0169 H         1 UNK         0.0787 
    103 H103       25.6286  -33.0477  -41.2880 H         1 UNK         0.0787 
    104 H104       26.8972  -31.8884  -40.8964 H         1 UNK         0.0787 
    105 H105       23.1339  -31.3999  -38.1938 H         1 UNK         0.3055 
    106 H106       21.4040  -32.3459  -37.2062 H         1 UNK         0.1106 
    107 H107       23.0875  -33.4652  -35.7089 H         1 UNK         0.0828 
    108 H108       21.6163  -34.4023  -35.8960 H         1 UNK         0.0828 
    109 H109       23.0648  -34.8794  -36.7628 H         1 UNK         0.0828 
    110 H110       22.1082  -32.9279  -40.1886 H         1 UNK         0.2931 
    111 H111       21.1275  -33.6529  -41.9285 H         1 UNK         0.0412 
    112 H112       20.4296  -37.2808  -42.4251 H         1 UNK         0.3472 
    113 H113       19.5129  -35.8270  -42.7453 H         1 UNK         0.3472 
    114 H114       18.5318  -34.6535  -40.7499 H         1 UNK         0.0970 
    115 H115       18.9211  -33.0165  -40.3560 H         1 UNK         0.0970 
    116 H116       19.5640  -31.2145  -41.8915 H         1 UNK         0.0612 
    117 H117       17.8192  -31.1009  -41.9383 H         1 UNK         0.0612 
@<TRIPOS>BOND
     1    1    2 1    
     2    1   62 1    
     3    1   63 1    
     4    1   64 1    
     5    2    3 2    
     6    2    4 am   BACKBONE|DICT|INTERRES
     7    4    5 1    
     8    4   65 1    
     9    5    6 1    
    10    5   25 1    
    11    5   66 1    
    12    6    7 1    
    13    6   67 1    
    14    6   68 1    
    15    7    8 1    
    16    8    9 1    
    17    8   69 1    
    18    8   70 1    
    19    9   10 ar   
    20    9   14 ar   
    21   10   11 ar   
    22   10   71 1    
    23   11   12 ar   
    24   11   61 1    
    25   12   13 ar   
    26   12   72 1    
    27   13   14 ar   
    28   13   15 1    
    29   14   73 1    
    30   15   16 1    
    31   15   74 1    
    32   15   75 1    
    33   16   17 1    
    34   17   18 1    
    35   17   76 1    
    36   17   77 1    
    37   18   19 1    
    38   18   27 1    
    39   18   78 1    
    40   19   20 am   BACKBONE|DICT|INTERRES
    41   19   79 1    
    42   20   21 2    
    43   20   22 1    
    44   22   23 1    
    45   22   24 1    
    46   22   80 1    
    47   23   81 1    
    48   23   82 1    
    49   23   83 1    
    50   24   25 am   BACKBONE|DICT|INTERRES
    51   24   84 1    
    52   25   26 2    
    53   27   28 2    
    54   27   29 am   BACKBONE|DICT|INTERRES
    55   29   30 1    
    56   29   85 1    
    57   30   31 1    
    58   30   32 1    
    59   30   86 1    
    60   31   87 1    
    61   31   88 1    
    62   31   89 1    
    63   32   33 2    
    64   32   34 am   BACKBONE|DICT|INTERRES
    65   34   35 1    
    66   34   90 1    
    67   35   36 1    
    68   35   37 1    
    69   35   91 1    
    70   36   92 1    
    71   36   93 1    
    72   36   94 1    
    73   37   38 2    
    74   37   39 am   BACKBONE|DICT|INTERRES
    75   39   40 1    
    76   39   95 1    
    77   40   41 1    
    78   40   42 1    
    79   40   96 1    
    80   41   97 1    
    81   41   98 1    
    82   41   99 1    
    83   42   43 2    
    84   42   44 am   BACKBONE|DICT|INTERRES
    85   44   45 1    
    86   44  100 1    
    87   45   46 1    
    88   45   47 1    
    89   45  101 1    
    90   46  102 1    
    91   46  103 1    
    92   46  104 1    
    93   47   48 2    
    94   47   49 am   BACKBONE|DICT|INTERRES
    95   49   50 1    
    96   49  105 1    
    97   50   51 1    
    98   50   52 1    
    99   50  106 1    
   100   51  107 1    
   101   51  108 1    
   102   51  109 1    
   103   52   53 2    
   104   52   54 am   BACKBONE|DICT|INTERRES
   105   54   55 1    
   106   54  110 1    
   107   55   56 1    
   108   55   59 1    
   109   55  111 1    
   110   56   57 am   BACKBONE|DICT|INTERRES
   111   56   58 2    
   112   57  112 1    
   113   57  113 1    
   114   59   60 1    
   115   59  114 1    
   116   59  115 1    
   117   60   61 1    
   118   61  116 1    
   119   61  117 1    
@<TRIPOS>SUBSTRUCTURE
     1 UNK         1 GROUP             0       ****    0 ROOT    
