@<TRIPOS>MOLECULE
3R8
117   119    1
SMALL
USER_CHARGES


@<TRIPOS>ATOM
      1 CA         16.3824  -22.4214  -46.2574 C.3       0 UNK        -0.2013 
      2 C          17.4521  -23.4797  -46.4807 C.2       0 UNK         0.4866 
      3 O          18.4188  -23.2302  -47.2011 O.2       0 UNK        -0.5176 
      4 N          17.2844  -24.6610  -45.8714 N.am      1 UNK        -0.4884 
      5 CA         18.2041  -25.8029  -45.9794 C.3       1 UNK         0.0853 
      6 C6         17.5941  -27.0959  -45.3856 C.3       10 UNK        -0.0849 
      7 S7         15.9530  -27.5310  -46.0603 S.3       10 UNK        -0.2776 
      8 C8         16.1562  -29.3078  -46.4539 C.3       10 UNK         0.0316 
      9 C9         16.5071  -30.2351  -45.2832 C.ar      10 UNK        -0.0863 
     10 C10        16.8318  -31.5653  -45.5691 C.ar      10 UNK        -0.1009 
     11 C11        17.1788  -32.4588  -44.5504 C.ar      10 UNK        -0.0712 
     12 C12        17.2357  -32.0027  -43.2299 C.ar      10 UNK        -0.0894 
     13 C13        16.9325  -30.6732  -42.9238 C.ar      10 UNK        -0.0745 
     14 C14        16.5259  -29.8123  -43.9470 C.ar      10 UNK        -0.0972 
     15 C15        17.0465  -30.1688  -41.4880 C.3       10 UNK         0.0209 
     16 S16        18.0222  -28.6292  -41.3423 S.3       10 UNK        -0.2568 
     17 C17        19.6319  -29.1371  -42.0450 C.3       10 UNK        -0.0983 
     18 CA         20.7645  -28.0929  -41.8568 C.3       3 UNK         0.0876 
     19 N          20.3936  -26.7763  -42.3978 N.am      3 UNK        -0.4424 
     20 C          21.2113  -25.7256  -42.5636 C.2       2 UNK         0.4918 
     21 O          22.3753  -25.7027  -42.1637 O.2       2 UNK        -0.4875 
     22 CA         20.6246  -24.4787  -43.2594 C.3       2 UNK         0.0481 
     23 CB         21.7099  -23.6323  -43.9576 C.3       2 UNK        -0.1831 
     24 N          19.5178  -24.7815  -44.1777 N.am      2 UNK        -0.4498 
     25 C          19.5580  -25.5387  -45.2879 C.2       1 UNK         0.5027 
     26 O          20.5802  -26.0541  -45.7410 O.2       1 UNK        -0.4969 
     27 C          21.2900  -28.0670  -40.4036 C.2       3 UNK         0.5005 
     28 O          22.0222  -28.9753  -40.0097 O.2       3 UNK        -0.5279 
     29 N          20.9293  -27.0274  -39.6375 N.am      4 UNK        -0.4463 
     30 CA         21.4327  -26.7777  -38.2852 C.3       4 UNK         0.0283 
     31 CB         20.5054  -25.7743  -37.5807 C.3       4 UNK        -0.1875 
     32 C          22.8873  -26.2697  -38.2603 C.2       4 UNK         0.4949 
     33 O          23.5645  -26.4575  -37.2494 O.2       4 UNK        -0.5039 
     34 N          23.3350  -25.6272  -39.3481 N.am      5 UNK        -0.4663 
     35 CA         24.6849  -25.0808  -39.4989 C.3       5 UNK         0.0242 
     36 CB         24.5996  -23.6646  -40.0949 C.3       5 UNK        -0.1982 
     37 C          25.5395  -25.9983  -40.3818 C.2       5 UNK         0.5017 
     38 O          26.6171  -26.4206  -39.9611 O.2       5 UNK        -0.5012 
     39 N          25.0322  -26.3091  -41.5803 N.am      6 UNK        -0.4439 
     40 CA         25.6203  -27.2443  -42.5323 C.3       6 UNK         0.0297 
     41 CB         25.2962  -26.7685  -43.9609 C.3       6 UNK        -0.2006 
     42 C          25.0541  -28.6386  -42.2363 C.2       6 UNK         0.4892 
     43 O          24.0794  -29.0465  -42.8693 O.2       6 UNK        -0.5089 
     44 N          25.6439  -29.3035  -41.2326 N.am      7 UNK        -0.4243 
     45 CA         25.2196  -30.5961  -40.6886 C.3       7 UNK         0.0196 
     46 CB         26.1879  -31.0198  -39.5716 C.3       7 UNK        -0.2007 
     47 C          25.1057  -31.6906  -41.7633 C.2       7 UNK         0.5020 
     48 O          26.0920  -31.9936  -42.4385 O.2       7 UNK        -0.5147 
     49 N          23.9032  -32.2534  -41.8949 N.am      8 UNK        -0.4734 
     50 CA         23.5200  -33.2650  -42.8737 C.3       8 UNK         0.0238 
     51 CB         23.3253  -32.6091  -44.2559 C.3       8 UNK        -0.1912 
     52 C          22.2233  -33.9285  -42.3934 C.2       8 UNK         0.5038 
     53 O          21.5862  -33.4184  -41.4664 O.2       8 UNK        -0.5046 
     54 N          21.8534  -35.0398  -43.0425 N.am      9 UNK        -0.4200 
     55 CA         20.6240  -35.8162  -42.7918 C.3       9 UNK         0.0839 
     56 C          20.5967  -36.5684  -41.4249 C.2       9 UNK         0.5513 
     57 N          21.7255  -36.7582  -40.7521 N.am      9 UNK        -0.7519 
     58 O          19.5439  -37.0186  -40.9797 O.2       9 UNK        -0.4960 
     59 C59        19.3243  -34.9978  -43.0511 C.3       10 UNK        -0.0876 
     60 S60        19.2362  -34.3260  -44.7480 S.3       10 UNK        -0.2414 
     61 C61        17.4662  -33.9179  -44.8820 C.3       10 UNK         0.0169 
     62 H62        15.9385  -22.1304  -47.2090 H         1 UNK         0.0903 
     63 H63        15.5843  -22.7783  -45.6066 H         1 UNK         0.0903 
     64 H64        16.8214  -21.5347  -45.8008 H         1 UNK         0.0903 
     65 H65        16.4494  -24.8257  -45.3260 H         1 UNK         0.3096 
     66 H66        18.4065  -25.9711  -47.0397 H         1 UNK         0.1121 
     67 H67        18.2760  -27.9346  -45.5434 H         1 UNK         0.0849 
     68 H68        17.4852  -26.9963  -44.3040 H         1 UNK         0.0849 
     69 H69        15.2286  -29.6614  -46.9062 H         1 UNK         0.0865 
     70 H70        16.9248  -29.3997  -47.2230 H         1 UNK         0.0865 
     71 H71        16.8050  -31.9107  -46.5940 H         1 UNK         0.1346 
     72 H72        17.5153  -32.6837  -42.4394 H         1 UNK         0.1412 
     73 H73        16.2532  -28.8020  -43.6841 H         1 UNK         0.1426 
     74 H74        17.4979  -30.9269  -40.8460 H         1 UNK         0.0716 
     75 H75        16.0442  -29.9891  -41.0974 H         1 UNK         0.0716 
     76 H76        19.4877  -29.3182  -43.1115 H         1 UNK         0.0695 
     77 H77        19.9198  -30.1019  -41.6217 H         1 UNK         0.0695 
     78 H78        21.6076  -28.4333  -42.4599 H         1 UNK         0.0983 
     79 H79        19.4386  -26.6917  -42.7106 H         1 UNK         0.3095 
     80 H80        20.1959  -23.8676  -42.4642 H         1 UNK         0.0454 
     81 H81        22.2511  -24.2069  -44.7099 H         1 UNK         0.0851 
     82 H82        22.4456  -23.2682  -43.2395 H         1 UNK         0.0851 
     83 H83        21.2791  -22.7594  -44.4477 H         1 UNK         0.0851 
     84 H84        18.6184  -24.4005  -43.9169 H         1 UNK         0.2976 
     85 H85        20.2994  -26.3429  -40.0299 H         1 UNK         0.3116 
     86 H86        21.4020  -27.7170  -37.7285 H         1 UNK         0.0646 
     87 H87        20.4865  -24.8112  -38.0924 H         1 UNK         0.0847 
     88 H88        20.8355  -25.5916  -36.5570 H         1 UNK         0.0847 
     89 H89        19.4827  -26.1479  -37.5266 H         1 UNK         0.0847 
     90 H90        22.7339  -25.5745  -40.1624 H         1 UNK         0.3040 
     91 H91        25.1765  -25.0051  -38.5261 H         1 UNK         0.1015 
     92 H92        24.0972  -23.6553  -41.0630 H         1 UNK         0.0786 
     93 H93        25.5947  -23.2413  -40.2386 H         1 UNK         0.0786 
     94 H94        24.0551  -22.9919  -39.4320 H         1 UNK         0.0786 
     95 H95        24.0969  -25.9783  -41.8139 H         1 UNK         0.3172 
     96 H96        26.7065  -27.2716  -42.4209 H         1 UNK         0.0595 
     97 H97        24.2212  -26.6903  -44.1310 H         1 UNK         0.0839 
     98 H98        25.6943  -27.4629  -44.7016 H         1 UNK         0.0839 
     99 H99        25.7359  -25.7914  -44.1610 H         1 UNK         0.0839 
    100 H100       26.4225  -28.8566  -40.7684 H         1 UNK         0.2998 
    101 H101       24.2365  -30.4438  -40.2395 H         1 UNK         0.0822 
    102 H102       26.2091  -30.2871  -38.7645 H         1 UNK         0.0787 
    103 H103       25.8859  -31.9729  -39.1351 H         1 UNK         0.0787 
    104 H104       27.2058  -31.1400  -39.9449 H         1 UNK         0.0787 
    105 H105       23.1462  -31.9851  -41.2756 H         1 UNK         0.3055 
    106 H106       24.3018  -34.0260  -42.9271 H         1 UNK         0.1106 
    107 H107       23.0295  -33.3422  -45.0072 H         1 UNK         0.0828 
    108 H108       22.5518  -31.8403  -44.2276 H         1 UNK         0.0828 
    109 H109       24.2442  -32.1412  -44.6096 H         1 UNK         0.0828 
    110 H110       22.4411  -35.3904  -43.7848 H         1 UNK         0.2931 
    111 H111       20.6430  -36.6164  -43.5325 H         1 UNK         0.0412 
    112 H112       22.6000  -36.4083  -41.1091 H         1 UNK         0.3472 
    113 H113       21.7002  -37.2553  -39.8753 H         1 UNK         0.3472 
    114 H114       19.2376  -34.1802  -42.3358 H         1 UNK         0.0970 
    115 H115       18.4492  -35.6309  -42.8953 H         1 UNK         0.0970 
    116 H116       17.1452  -34.1413  -45.9005 H         1 UNK         0.0612 
    117 H117       16.8727  -34.5656  -44.2357 H         1 UNK         0.0612 
@<TRIPOS>BOND
     1    1    2 1    
     2    1   62 1    
     3    1   63 1    
     4    1   64 1    
     5    2    3 2    
     6    2    4 am   BACKBONE|DICT|INTERRES
     7    4    5 1    
     8    4   65 1    
     9    5    6 1    
    10    5   25 1    
    11    5   66 1    
    12    6    7 1    
    13    6   67 1    
    14    6   68 1    
    15    7    8 1    
    16    8    9 1    
    17    8   69 1    
    18    8   70 1    
    19    9   10 ar   
    20    9   14 ar   
    21   10   11 ar   
    22   10   71 1    
    23   11   12 ar   
    24   11   61 1    
    25   12   13 ar   
    26   12   72 1    
    27   13   14 ar   
    28   13   15 1    
    29   14   73 1    
    30   15   16 1    
    31   15   74 1    
    32   15   75 1    
    33   16   17 1    
    34   17   18 1    
    35   17   76 1    
    36   17   77 1    
    37   18   19 1    
    38   18   27 1    
    39   18   78 1    
    40   19   20 am   BACKBONE|DICT|INTERRES
    41   19   79 1    
    42   20   21 2    
    43   20   22 1    
    44   22   23 1    
    45   22   24 1    
    46   22   80 1    
    47   23   81 1    
    48   23   82 1    
    49   23   83 1    
    50   24   25 am   BACKBONE|DICT|INTERRES
    51   24   84 1    
    52   25   26 2    
    53   27   28 2    
    54   27   29 am   BACKBONE|DICT|INTERRES
    55   29   30 1    
    56   29   85 1    
    57   30   31 1    
    58   30   32 1    
    59   30   86 1    
    60   31   87 1    
    61   31   88 1    
    62   31   89 1    
    63   32   33 2    
    64   32   34 am   BACKBONE|DICT|INTERRES
    65   34   35 1    
    66   34   90 1    
    67   35   36 1    
    68   35   37 1    
    69   35   91 1    
    70   36   92 1    
    71   36   93 1    
    72   36   94 1    
    73   37   38 2    
    74   37   39 am   BACKBONE|DICT|INTERRES
    75   39   40 1    
    76   39   95 1    
    77   40   41 1    
    78   40   42 1    
    79   40   96 1    
    80   41   97 1    
    81   41   98 1    
    82   41   99 1    
    83   42   43 2    
    84   42   44 am   BACKBONE|DICT|INTERRES
    85   44   45 1    
    86   44  100 1    
    87   45   46 1    
    88   45   47 1    
    89   45  101 1    
    90   46  102 1    
    91   46  103 1    
    92   46  104 1    
    93   47   48 2    
    94   47   49 am   BACKBONE|DICT|INTERRES
    95   49   50 1    
    96   49  105 1    
    97   50   51 1    
    98   50   52 1    
    99   50  106 1    
   100   51  107 1    
   101   51  108 1    
   102   51  109 1    
   103   52   53 2    
   104   52   54 am   BACKBONE|DICT|INTERRES
   105   54   55 1    
   106   54  110 1    
   107   55   56 1    
   108   55   59 1    
   109   55  111 1    
   110   56   57 am   BACKBONE|DICT|INTERRES
   111   56   58 2    
   112   57  112 1    
   113   57  113 1    
   114   59   60 1    
   115   59  114 1    
   116   59  115 1    
   117   60   61 1    
   118   61  116 1    
   119   61  117 1    
@<TRIPOS>SUBSTRUCTURE
     1 UNK         1 GROUP             0       ****    0 ROOT    
