@<TRIPOS>MOLECULE
3R8
117   119    1
SMALL
USER_CHARGES


@<TRIPOS>ATOM
      1 CA         15.7623  -25.2375  -44.8609 C.3       0 UNK        -0.2013 
      2 C          16.8822  -25.4858  -45.8604 C.2       0 UNK         0.4866 
      3 O          17.1505  -24.6264  -46.6997 O.2       0 UNK        -0.5176 
      4 N          17.5302  -26.6559  -45.7819 N.am      1 UNK        -0.4884 
      5 CA         18.6541  -27.0539  -46.6362 C.3       1 UNK         0.0853 
      6 C6         18.9335  -28.5759  -46.5476 C.3       10 UNK        -0.0849 
      7 S7         17.6595  -29.6106  -47.3540 S.3       10 UNK        -0.2776 
      8 C8         16.3567  -29.8426  -46.0910 C.3       10 UNK         0.0316 
      9 C9         16.8989  -30.1872  -44.7097 C.ar      10 UNK        -0.0863 
     10 C10        17.5452  -31.4040  -44.4773 C.ar      10 UNK        -0.1009 
     11 C11        18.0649  -31.7123  -43.2152 C.ar      10 UNK        -0.0712 
     12 C12        17.9452  -30.7669  -42.1843 C.ar      10 UNK        -0.0894 
     13 C13        17.2996  -29.5447  -42.4006 C.ar      10 UNK        -0.0745 
     14 C14        16.7518  -29.2803  -43.6592 C.ar      10 UNK        -0.0972 
     15 C15        17.1838  -28.5307  -41.2634 C.3       10 UNK         0.0209 
     16 S16        17.4064  -26.8048  -41.8235 S.3       10 UNK        -0.2568 
     17 C17        18.5109  -26.1180  -40.5454 C.3       10 UNK        -0.0983 
     18 CA         20.0045  -26.3013  -40.9063 C.3       3 UNK         0.0876 
     19 N          20.3177  -25.8018  -42.2526 N.am      3 UNK        -0.4424 
     20 C          21.4738  -25.9895  -42.9030 C.2       2 UNK         0.4918 
     21 O          22.4785  -26.4736  -42.3781 O.2       2 UNK        -0.4875 
     22 CA         21.4656  -25.6333  -44.3967 C.3       2 UNK         0.0481 
     23 CB         22.8058  -25.9668  -45.0903 C.3       2 UNK        -0.1831 
     24 N          20.3365  -26.3341  -45.0151 N.am      2 UNK        -0.4498 
     25 C          19.9143  -26.2366  -46.2829 C.2       1 UNK         0.5027 
     26 O          20.4490  -25.5344  -47.1420 O.2       1 UNK        -0.4969 
     27 C          20.9119  -25.7262  -39.8003 C.2       3 UNK         0.5005 
     28 O          21.1501  -26.4115  -38.8058 O.2       3 UNK        -0.5279 
     29 N          21.4610  -24.5207  -40.0139 N.am      4 UNK        -0.4463 
     30 CA         22.4648  -23.8879  -39.1491 C.3       4 UNK         0.0283 
     31 CB         22.7227  -22.4536  -39.6374 C.3       4 UNK        -0.1875 
     32 C          23.7912  -24.6705  -39.0615 C.2       4 UNK         0.4949 
     33 O          24.4883  -24.5594  -38.0534 O.2       4 UNK        -0.5039 
     34 N          24.1005  -25.4590  -40.0996 N.am      5 UNK        -0.4663 
     35 CA         25.2406  -26.3762  -40.1631 C.3       5 UNK         0.0242 
     36 CB         25.9513  -26.1677  -41.5131 C.3       5 UNK        -0.1982 
     37 C          24.8033  -27.8453  -39.9913 C.2       5 UNK         0.5017 
     38 O          25.6191  -28.7385  -40.2189 O.2       5 UNK        -0.5012 
     39 N          23.5300  -28.0726  -39.6260 N.am      6 UNK        -0.4439 
     40 CA         22.8314  -29.3621  -39.5254 C.3       6 UNK         0.0297 
     41 CB         23.4742  -30.2690  -38.4547 C.3       6 UNK        -0.2006 
     42 C          22.6425  -30.0870  -40.8750 C.2       6 UNK         0.4892 
     43 O          22.3493  -31.2831  -40.8755 O.2       6 UNK        -0.5089 
     44 N          22.7826  -29.3571  -41.9930 N.am      7 UNK        -0.4243 
     45 CA         22.6539  -29.8204  -43.3780 C.3       7 UNK         0.0196 
     46 CB         21.1610  -30.0076  -43.7230 C.3       7 UNK        -0.2007 
     47 C          23.5320  -31.0549  -43.6774 C.2       7 UNK         0.5020 
     48 O          24.6883  -31.0947  -43.2532 O.2       7 UNK        -0.5147 
     49 N          22.9803  -32.0331  -44.4053 N.am      8 UNK        -0.4734 
     50 CA         23.6221  -33.3214  -44.6777 C.3       8 UNK         0.0238 
     51 CB         23.1644  -33.8196  -46.0591 C.3       8 UNK        -0.1912 
     52 C          23.3118  -34.3793  -43.6026 C.2       8 UNK         0.5038 
     53 O          24.0304  -35.3772  -43.5285 O.2       8 UNK        -0.5046 
     54 N          22.2404  -34.1741  -42.8247 N.am      9 UNK        -0.4200 
     55 CA         21.7451  -35.1180  -41.8121 C.3       9 UNK         0.0839 
     56 C          22.4746  -35.0422  -40.4424 C.2       9 UNK         0.5513 
     57 N          23.0823  -33.9240  -40.0706 N.am      9 UNK        -0.7519 
     58 O          22.5069  -36.0300  -39.7126 O.2       9 UNK        -0.4960 
     59 C59        20.2004  -35.0585  -41.6670 C.3       10 UNK        -0.0876 
     60 S60        19.5278  -33.3774  -41.4124 S.3       10 UNK        -0.2414 
     61 C61        18.7415  -33.0745  -43.0343 C.3       10 UNK         0.0169 
     62 H62        16.0575  -24.4637  -44.1527 H         1 UNK         0.0903 
     63 H63        14.8643  -24.9011  -45.3785 H         1 UNK         0.0903 
     64 H64        15.5072  -26.1335  -44.2969 H         1 UNK         0.0903 
     65 H65        17.2701  -27.3203  -45.0695 H         1 UNK         0.3096 
     66 H66        18.3976  -26.8140  -47.6711 H         1 UNK         0.1121 
     67 H67        19.8739  -28.8117  -47.0504 H         1 UNK         0.0849 
     68 H68        19.0719  -28.8923  -45.5143 H         1 UNK         0.0849 
     69 H69        15.6905  -30.6414  -46.4199 H         1 UNK         0.0865 
     70 H70        15.7424  -28.9418  -46.0538 H         1 UNK         0.0865 
     71 H71        17.6466  -32.1129  -45.2881 H         1 UNK         0.1346 
     72 H72        18.3490  -30.9729  -41.2038 H         1 UNK         0.1412 
     73 H73        16.2137  -28.3585  -43.8203 H         1 UNK         0.1426 
     74 H74        17.9197  -28.7585  -40.4910 H         1 UNK         0.0716 
     75 H75        16.2030  -28.6284  -40.7966 H         1 UNK         0.0716 
     76 H76        18.2796  -26.5804  -39.5836 H         1 UNK         0.0695 
     77 H77        18.2733  -25.0580  -40.4366 H         1 UNK         0.0695 
     78 H78        20.2042  -27.3755  -40.9267 H         1 UNK         0.0983 
     79 H79        19.5462  -25.3741  -42.7447 H         1 UNK         0.3095 
     80 H80        21.2910  -24.5587  -44.4726 H         1 UNK         0.0454 
     81 H81        22.8482  -25.5647  -46.1017 H         1 UNK         0.0851 
     82 H82        22.9721  -27.0408  -45.1538 H         1 UNK         0.0851 
     83 H83        23.6488  -25.5352  -44.5488 H         1 UNK         0.0851 
     84 H84        19.8156  -26.9329  -44.3897 H         1 UNK         0.2976 
     85 H85        21.2115  -24.0284  -40.8599 H         1 UNK         0.3116 
     86 H86        22.0490  -23.8370  -38.1406 H         1 UNK         0.0646 
     87 H87        23.4448  -21.9472  -38.9951 H         1 UNK         0.0847 
     88 H88        21.8097  -21.8581  -39.6251 H         1 UNK         0.0847 
     89 H89        23.1232  -22.4371  -40.6519 H         1 UNK         0.0847 
     90 H90        23.4598  -25.5089  -40.8853 H         1 UNK         0.3040 
     91 H91        25.9515  -26.1584  -39.3630 H         1 UNK         0.1015 
     92 H92        26.2659  -25.1316  -41.6389 H         1 UNK         0.0786 
     93 H93        25.3048  -26.4262  -42.3529 H         1 UNK         0.0786 
     94 H94        26.8466  -26.7865  -41.5875 H         1 UNK         0.0786 
     95 H95        22.9507  -27.2652  -39.4224 H         1 UNK         0.3172 
     96 H96        21.8246  -29.1222  -39.1815 H         1 UNK         0.0595 
     97 H97        24.4536  -30.6332  -38.7660 H         1 UNK         0.0839 
     98 H98        22.8528  -31.1443  -38.2611 H         1 UNK         0.0839 
     99 H99        23.5944  -29.7436  -37.5075 H         1 UNK         0.0839 
    100 H100       23.0076  -28.3738  -41.8912 H         1 UNK         0.2998 
    101 H101       23.0459  -29.0186  -44.0021 H         1 UNK         0.0822 
    102 H102       20.7278  -30.8362  -43.1639 H         1 UNK         0.0787 
    103 H103       20.5853  -29.1158  -43.4761 H         1 UNK         0.0787 
    104 H104       21.0122  -30.2004  -44.7857 H         1 UNK         0.0787 
    105 H105       22.0363  -31.9105  -44.7421 H         1 UNK         0.3055 
    106 H106       24.7070  -33.1944  -44.7050 H         1 UNK         0.1106 
    107 H107       23.6443  -34.7664  -46.3113 H         1 UNK         0.0828 
    108 H108       22.0864  -33.9817  -46.0959 H         1 UNK         0.0828 
    109 H109       23.4248  -33.1087  -46.8434 H         1 UNK         0.0828 
    110 H110       21.7495  -33.2947  -42.8819 H         1 UNK         0.2931 
    111 H111       21.9604  -36.1218  -42.1850 H         1 UNK         0.0412 
    112 H112       22.9462  -33.0629  -40.5938 H         1 UNK         0.3472 
    113 H113       23.5613  -33.8985  -39.1855 H         1 UNK         0.3472 
    114 H114       19.7439  -35.4912  -42.5584 H         1 UNK         0.0970 
    115 H115       19.8651  -35.6929  -40.8442 H         1 UNK         0.0970 
    116 H116       19.4991  -33.1942  -43.8101 H         1 UNK         0.0612 
    117 H117       17.9948  -33.8516  -43.2036 H         1 UNK         0.0612 
@<TRIPOS>BOND
     1    1    2 1    
     2    1   62 1    
     3    1   63 1    
     4    1   64 1    
     5    2    3 2    
     6    2    4 am   BACKBONE|DICT|INTERRES
     7    4    5 1    
     8    4   65 1    
     9    5    6 1    
    10    5   25 1    
    11    5   66 1    
    12    6    7 1    
    13    6   67 1    
    14    6   68 1    
    15    7    8 1    
    16    8    9 1    
    17    8   69 1    
    18    8   70 1    
    19    9   10 ar   
    20    9   14 ar   
    21   10   11 ar   
    22   10   71 1    
    23   11   12 ar   
    24   11   61 1    
    25   12   13 ar   
    26   12   72 1    
    27   13   14 ar   
    28   13   15 1    
    29   14   73 1    
    30   15   16 1    
    31   15   74 1    
    32   15   75 1    
    33   16   17 1    
    34   17   18 1    
    35   17   76 1    
    36   17   77 1    
    37   18   19 1    
    38   18   27 1    
    39   18   78 1    
    40   19   20 am   BACKBONE|DICT|INTERRES
    41   19   79 1    
    42   20   21 2    
    43   20   22 1    
    44   22   23 1    
    45   22   24 1    
    46   22   80 1    
    47   23   81 1    
    48   23   82 1    
    49   23   83 1    
    50   24   25 am   BACKBONE|DICT|INTERRES
    51   24   84 1    
    52   25   26 2    
    53   27   28 2    
    54   27   29 am   BACKBONE|DICT|INTERRES
    55   29   30 1    
    56   29   85 1    
    57   30   31 1    
    58   30   32 1    
    59   30   86 1    
    60   31   87 1    
    61   31   88 1    
    62   31   89 1    
    63   32   33 2    
    64   32   34 am   BACKBONE|DICT|INTERRES
    65   34   35 1    
    66   34   90 1    
    67   35   36 1    
    68   35   37 1    
    69   35   91 1    
    70   36   92 1    
    71   36   93 1    
    72   36   94 1    
    73   37   38 2    
    74   37   39 am   BACKBONE|DICT|INTERRES
    75   39   40 1    
    76   39   95 1    
    77   40   41 1    
    78   40   42 1    
    79   40   96 1    
    80   41   97 1    
    81   41   98 1    
    82   41   99 1    
    83   42   43 2    
    84   42   44 am   BACKBONE|DICT|INTERRES
    85   44   45 1    
    86   44  100 1    
    87   45   46 1    
    88   45   47 1    
    89   45  101 1    
    90   46  102 1    
    91   46  103 1    
    92   46  104 1    
    93   47   48 2    
    94   47   49 am   BACKBONE|DICT|INTERRES
    95   49   50 1    
    96   49  105 1    
    97   50   51 1    
    98   50   52 1    
    99   50  106 1    
   100   51  107 1    
   101   51  108 1    
   102   51  109 1    
   103   52   53 2    
   104   52   54 am   BACKBONE|DICT|INTERRES
   105   54   55 1    
   106   54  110 1    
   107   55   56 1    
   108   55   59 1    
   109   55  111 1    
   110   56   57 am   BACKBONE|DICT|INTERRES
   111   56   58 2    
   112   57  112 1    
   113   57  113 1    
   114   59   60 1    
   115   59  114 1    
   116   59  115 1    
   117   60   61 1    
   118   61  116 1    
   119   61  117 1    
@<TRIPOS>SUBSTRUCTURE
     1 UNK         1 GROUP             0       ****    0 ROOT    
