@<TRIPOS>MOLECULE
3R8
117   119    1
SMALL
USER_CHARGES


@<TRIPOS>ATOM
      1 CA         18.2217  -28.6264  -49.4180 C.3       0 UNK        -0.2013 
      2 C          18.3770  -28.6304  -47.9050 C.2       0 UNK         0.4866 
      3 O          19.2984  -29.2601  -47.3857 O.2       0 UNK        -0.5176 
      4 N          17.4887  -27.9264  -47.1920 N.am      1 UNK        -0.4884 
      5 CA         17.4618  -27.8115  -45.7282 C.3       1 UNK         0.0853 
      6 C6         16.0408  -27.4594  -45.2129 C.3       10 UNK        -0.0849 
      7 S7         14.8835  -28.8491  -45.4675 S.3       10 UNK        -0.2776 
      8 C8         14.5012  -29.3689  -43.7562 C.3       10 UNK         0.0316 
      9 C9         15.7389  -29.5958  -42.8916 C.ar      10 UNK        -0.0863 
     10 C10        16.7711  -30.4320  -43.3249 C.ar      10 UNK        -0.1009 
     11 C11        17.9206  -30.6023  -42.5491 C.ar      10 UNK        -0.0712 
     12 C12        18.0166  -29.9710  -41.3057 C.ar      10 UNK        -0.0894 
     13 C13        16.9850  -29.1411  -40.8517 C.ar      10 UNK        -0.0745 
     14 C14        15.8522  -28.9580  -41.6522 C.ar      10 UNK        -0.0972 
     15 C15        17.0676  -28.4403  -39.4975 C.3       10 UNK         0.0209 
     16 S16        18.6675  -27.6266  -39.1634 S.3       10 UNK        -0.2568 
     17 C17        18.8577  -26.4997  -40.5871 C.3       10 UNK        -0.0983 
     18 CA         20.2749  -26.6249  -41.2043 C.3       3 UNK         0.0876 
     19 N          20.2533  -26.4363  -42.6546 N.am      3 UNK        -0.4424 
     20 C          21.2737  -26.6829  -43.4856 C.2       2 UNK         0.4918 
     21 O          22.3760  -27.0870  -43.1112 O.2       2 UNK        -0.4875 
     22 CA         21.0038  -26.4531  -44.9879 C.3       2 UNK         0.0481 
     23 CB         22.1973  -26.8697  -45.8673 C.3       2 UNK        -0.1831 
     24 N          19.8110  -27.1687  -45.4494 N.am      2 UNK        -0.4498 
     25 C          18.5368  -26.8259  -45.2239 C.2       1 UNK         0.5027 
     26 O          18.2110  -25.7919  -44.6359 O.2       1 UNK        -0.4969 
     27 C          21.2744  -25.6665  -40.5241 C.2       3 UNK         0.5005 
     28 O          21.5268  -24.5729  -41.0386 O.2       3 UNK        -0.5279 
     29 N          21.8351  -26.1005  -39.3872 N.am      4 UNK        -0.4463 
     30 CA         22.8632  -25.4480  -38.5601 C.3       4 UNK         0.0283 
     31 CB         22.4225  -24.0536  -38.0732 C.3       4 UNK        -0.1875 
     32 C          24.2555  -25.4023  -39.2164 C.2       4 UNK         0.4949 
     33 O          25.2476  -25.6304  -38.5243 O.2       4 UNK        -0.5039 
     34 N          24.3132  -25.1605  -40.5331 N.am      5 UNK        -0.4663 
     35 CA         25.5064  -25.3308  -41.3678 C.3       5 UNK         0.0242 
     36 CB         25.2487  -24.7288  -42.7585 C.3       5 UNK        -0.1982 
     37 C          25.9192  -26.8099  -41.4793 C.2       5 UNK         0.5017 
     38 O          27.1135  -27.1098  -41.4901 O.2       5 UNK        -0.5012 
     39 N          24.9210  -27.6985  -41.5154 N.am      6 UNK        -0.4439 
     40 CA         25.0424  -29.1440  -41.3949 C.3       6 UNK         0.0297 
     41 CB         25.0225  -29.7715  -42.7973 C.3       6 UNK        -0.2006 
     42 C          23.8652  -29.6420  -40.5467 C.2       6 UNK         0.4892 
     43 O          22.8093  -29.0050  -40.5337 O.2       6 UNK        -0.5089 
     44 N          24.0623  -30.7698  -39.8546 N.am      7 UNK        -0.4243 
     45 CA         23.0248  -31.4139  -39.0445 C.3       7 UNK         0.0196 
     46 CB         23.6757  -32.1790  -37.8795 C.3       7 UNK        -0.2007 
     47 C          22.1500  -32.3491  -39.8922 C.2       7 UNK         0.5020 
     48 O          20.9244  -32.2800  -39.8093 O.2       7 UNK        -0.5147 
     49 N          22.8013  -33.2092  -40.6871 N.am      8 UNK        -0.4734 
     50 CA         22.1511  -34.2208  -41.5281 C.3       8 UNK         0.0238 
     51 CB         23.0127  -35.4957  -41.5169 C.3       8 UNK        -0.1912 
     52 C          21.9132  -33.7503  -42.9735 C.2       8 UNK         0.5038 
     53 O          21.2290  -34.4523  -43.7187 O.2       8 UNK        -0.5046 
     54 N          22.4870  -32.5976  -43.3475 N.am      9 UNK        -0.4200 
     55 CA         22.4423  -31.9978  -44.6950 C.3       9 UNK         0.0839 
     56 C          23.1990  -32.8097  -45.7916 C.2       9 UNK         0.5513 
     57 N          24.1009  -33.7172  -45.4361 N.am      9 UNK        -0.7519 
     58 O          22.9951  -32.5950  -46.9837 O.2       9 UNK        -0.4960 
     59 C59        21.0091  -31.5847  -45.1341 C.3       10 UNK        -0.0876 
     60 S60        20.2370  -30.3878  -43.9946 S.3       10 UNK        -0.2414 
     61 C61        19.0700  -31.4398  -43.0786 C.3       10 UNK         0.0169 
     62 H62        18.0856  -29.6440  -49.7827 H         1 UNK         0.0903 
     63 H63        17.3657  -28.0335  -49.7394 H         1 UNK         0.0903 
     64 H64        19.1155  -28.2138  -49.8850 H         1 UNK         0.0903 
     65 H65        16.7606  -27.4205  -47.6764 H         1 UNK         0.3096 
     66 H66        17.7355  -28.7809  -45.3068 H         1 UNK         0.1121 
     67 H67        16.0585  -27.2035  -44.1520 H         1 UNK         0.0849 
     68 H68        15.6521  -26.5763  -45.7231 H         1 UNK         0.0849 
     69 H69        13.8510  -28.6163  -43.3073 H         1 UNK         0.0865 
     70 H70        13.9208  -30.2918  -43.7895 H         1 UNK         0.0865 
     71 H71        16.6954  -30.9218  -44.2864 H         1 UNK         0.1346 
     72 H72        18.9045  -30.1104  -40.7032 H         1 UNK         0.1412 
     73 H73        15.0540  -28.3142  -41.3079 H         1 UNK         0.1426 
     74 H74        16.8814  -29.1761  -38.7143 H         1 UNK         0.0716 
     75 H75        16.2816  -27.6890  -39.4054 H         1 UNK         0.0716 
     76 H76        18.6329  -25.4777  -40.2745 H         1 UNK         0.0695 
     77 H77        18.0991  -26.7463  -41.3310 H         1 UNK         0.0695 
     78 H78        20.6349  -27.6458  -41.0576 H         1 UNK         0.0983 
     79 H79        19.3979  -26.0729  -43.0593 H         1 UNK         0.3095 
     80 H80        20.8432  -25.3823  -45.1274 H         1 UNK         0.0454 
     81 H81        22.4169  -27.9337  -45.7668 H         1 UNK         0.0851 
     82 H82        23.0990  -26.3224  -45.5893 H         1 UNK         0.0851 
     83 H83        22.0066  -26.6641  -46.9205 H         1 UNK         0.0851 
     84 H84        19.9672  -28.0384  -45.9513 H         1 UNK         0.2976 
     85 H85        21.5813  -27.0324  -39.0841 H         1 UNK         0.3116 
     86 H86        22.9603  -26.0808  -37.6764 H         1 UNK         0.0646 
     87 H87        22.3525  -23.3347  -38.8897 H         1 UNK         0.0847 
     88 H88        23.1381  -23.6523  -37.3546 H         1 UNK         0.0847 
     89 H89        21.4530  -24.0943  -37.5769 H         1 UNK         0.0847 
     90 H90        23.4390  -24.9416  -41.0031 H         1 UNK         0.3040 
     91 H91        26.3313  -24.7883  -40.9007 H         1 UNK         0.1015 
     92 H92        24.4211  -25.2248  -43.2672 H         1 UNK         0.0786 
     93 H93        26.1292  -24.8277  -43.3949 H         1 UNK         0.0786 
     94 H94        25.0135  -23.6664  -42.6932 H         1 UNK         0.0786 
     95 H95        23.9615  -27.3666  -41.5278 H         1 UNK         0.3172 
     96 H96        25.9744  -29.4008  -40.8867 H         1 UNK         0.0595 
     97 H97        25.0734  -30.8594  -42.7486 H         1 UNK         0.0839 
     98 H98        25.8715  -29.4336  -43.3917 H         1 UNK         0.0839 
     99 H99        24.1133  -29.4995  -43.3349 H         1 UNK         0.0839 
    100 H100       24.9650  -31.2213  -39.8954 H         1 UNK         0.2998 
    101 H101       22.3735  -30.6489  -38.6145 H         1 UNK         0.0822 
    102 H102       22.9186  -32.6652  -37.2625 H         1 UNK         0.0787 
    103 H103       24.3593  -32.9543  -38.2273 H         1 UNK         0.0787 
    104 H104       24.2362  -31.5059  -37.2303 H         1 UNK         0.0787 
    105 H105       23.8109  -33.2088  -40.6770 H         1 UNK         0.3055 
    106 H106       21.1724  -34.4713  -41.1115 H         1 UNK         0.1106 
    107 H107       22.5474  -36.2888  -42.1041 H         1 UNK         0.0828 
    108 H108       24.0044  -35.3205  -41.9354 H         1 UNK         0.0828 
    109 H109       23.1385  -35.8796  -40.5043 H         1 UNK         0.0828 
    110 H110       23.0078  -32.0854  -42.6534 H         1 UNK         0.2931 
    111 H111       23.0164  -31.0759  -44.6146 H         1 UNK         0.0412 
    112 H112       24.2914  -33.8991  -44.4645 H         1 UNK         0.3472 
    113 H113       24.5930  -34.2290  -46.1518 H         1 UNK         0.3472 
    114 H114       21.0388  -31.1007  -46.1121 H         1 UNK         0.0970 
    115 H115       20.3717  -32.4600  -45.2626 H         1 UNK         0.0970 
    116 H116       19.5922  -31.9331  -42.2582 H         1 UNK         0.0612 
    117 H117       18.6827  -32.2297  -43.7235 H         1 UNK         0.0612 
@<TRIPOS>BOND
     1    1    2 1    
     2    1   62 1    
     3    1   63 1    
     4    1   64 1    
     5    2    3 2    
     6    2    4 am   BACKBONE|DICT|INTERRES
     7    4    5 1    
     8    4   65 1    
     9    5    6 1    
    10    5   25 1    
    11    5   66 1    
    12    6    7 1    
    13    6   67 1    
    14    6   68 1    
    15    7    8 1    
    16    8    9 1    
    17    8   69 1    
    18    8   70 1    
    19    9   10 ar   
    20    9   14 ar   
    21   10   11 ar   
    22   10   71 1    
    23   11   12 ar   
    24   11   61 1    
    25   12   13 ar   
    26   12   72 1    
    27   13   14 ar   
    28   13   15 1    
    29   14   73 1    
    30   15   16 1    
    31   15   74 1    
    32   15   75 1    
    33   16   17 1    
    34   17   18 1    
    35   17   76 1    
    36   17   77 1    
    37   18   19 1    
    38   18   27 1    
    39   18   78 1    
    40   19   20 am   BACKBONE|DICT|INTERRES
    41   19   79 1    
    42   20   21 2    
    43   20   22 1    
    44   22   23 1    
    45   22   24 1    
    46   22   80 1    
    47   23   81 1    
    48   23   82 1    
    49   23   83 1    
    50   24   25 am   BACKBONE|DICT|INTERRES
    51   24   84 1    
    52   25   26 2    
    53   27   28 2    
    54   27   29 am   BACKBONE|DICT|INTERRES
    55   29   30 1    
    56   29   85 1    
    57   30   31 1    
    58   30   32 1    
    59   30   86 1    
    60   31   87 1    
    61   31   88 1    
    62   31   89 1    
    63   32   33 2    
    64   32   34 am   BACKBONE|DICT|INTERRES
    65   34   35 1    
    66   34   90 1    
    67   35   36 1    
    68   35   37 1    
    69   35   91 1    
    70   36   92 1    
    71   36   93 1    
    72   36   94 1    
    73   37   38 2    
    74   37   39 am   BACKBONE|DICT|INTERRES
    75   39   40 1    
    76   39   95 1    
    77   40   41 1    
    78   40   42 1    
    79   40   96 1    
    80   41   97 1    
    81   41   98 1    
    82   41   99 1    
    83   42   43 2    
    84   42   44 am   BACKBONE|DICT|INTERRES
    85   44   45 1    
    86   44  100 1    
    87   45   46 1    
    88   45   47 1    
    89   45  101 1    
    90   46  102 1    
    91   46  103 1    
    92   46  104 1    
    93   47   48 2    
    94   47   49 am   BACKBONE|DICT|INTERRES
    95   49   50 1    
    96   49  105 1    
    97   50   51 1    
    98   50   52 1    
    99   50  106 1    
   100   51  107 1    
   101   51  108 1    
   102   51  109 1    
   103   52   53 2    
   104   52   54 am   BACKBONE|DICT|INTERRES
   105   54   55 1    
   106   54  110 1    
   107   55   56 1    
   108   55   59 1    
   109   55  111 1    
   110   56   57 am   BACKBONE|DICT|INTERRES
   111   56   58 2    
   112   57  112 1    
   113   57  113 1    
   114   59   60 1    
   115   59  114 1    
   116   59  115 1    
   117   60   61 1    
   118   61  116 1    
   119   61  117 1    
@<TRIPOS>SUBSTRUCTURE
     1 UNK         1 GROUP             0       ****    0 ROOT    
