@<TRIPOS>MOLECULE
3R8
117   119    1
SMALL
USER_CHARGES


@<TRIPOS>ATOM
      1 CA         13.9881  -23.9374  -42.6860 C.3       0 UNK        -0.2013 
      2 C          14.9881  -24.3312  -43.7630 C.2       0 UNK         0.4866 
      3 O          15.1603  -23.5970  -44.7367 O.2       0 UNK        -0.5176 
      4 N          15.6407  -25.4887  -43.6015 N.am      1 UNK        -0.4884 
      5 CA         16.6706  -26.0037  -44.5102 C.3       1 UNK         0.0853 
      6 C6         16.9909  -27.4894  -44.2289 C.3       10 UNK        -0.0849 
      7 S7         15.5648  -28.5837  -44.5503 S.3       10 UNK        -0.2776 
      8 C8         16.1242  -29.5310  -46.0099 C.3       10 UNK         0.0316 
      9 C9         17.4459  -30.2545  -45.7730 C.ar      10 UNK        -0.0863 
     10 C10        17.6039  -31.0944  -44.6655 C.ar      10 UNK        -0.1009 
     11 C11        18.8307  -31.7111  -44.4108 C.ar      10 UNK        -0.0712 
     12 C12        19.8936  -31.5157  -45.2946 C.ar      10 UNK        -0.0894 
     13 C13        19.7545  -30.6733  -46.4011 C.ar      10 UNK        -0.0745 
     14 C14        18.5247  -30.0530  -46.6420 C.ar      10 UNK        -0.0972 
     15 C15        20.9490  -30.4095  -47.3096 C.3       10 UNK         0.0209 
     16 S16        21.6282  -28.7262  -47.1079 S.3       10 UNK        -0.2568 
     17 C17        22.0199  -28.6657  -45.3237 C.3       10 UNK        -0.0983 
     18 CA         22.1503  -27.2235  -44.7656 C.3       3 UNK         0.0876 
     19 N          21.0611  -26.3361  -45.1867 N.am      3 UNK        -0.4424 
     20 C          21.1000  -24.9969  -45.1216 C.2       2 UNK         0.4918 
     21 O          22.0523  -24.3569  -44.6756 O.2       2 UNK        -0.4875 
     22 CA         19.8848  -24.2302  -45.6737 C.3       2 UNK         0.0481 
     23 CB         20.1219  -23.8467  -47.1434 C.3       2 UNK        -0.1831 
     24 N          18.6255  -24.9712  -45.5648 N.am      2 UNK        -0.4498 
     25 C          17.9617  -25.1669  -44.4172 C.2       1 UNK         0.5027 
     26 O          18.3474  -24.7547  -43.3201 O.2       1 UNK        -0.4969 
     27 C          22.2712  -27.2342  -43.2302 C.2       3 UNK         0.5005 
     28 O          23.2982  -26.8142  -42.6936 O.2       3 UNK        -0.5279 
     29 N          21.2006  -27.6975  -42.5629 N.am      4 UNK        -0.4463 
     30 CA         21.0153  -27.7761  -41.1104 C.3       4 UNK         0.0283 
     31 CB         20.6549  -26.3800  -40.5562 C.3       4 UNK        -0.1875 
     32 C          22.2111  -28.4430  -40.4040 C.2       4 UNK         0.4949 
     33 O          22.4176  -29.6461  -40.5691 O.2       4 UNK        -0.5039 
     34 N          22.9969  -27.6536  -39.6600 N.am      5 UNK        -0.4663 
     35 CA         24.2010  -28.0790  -38.9439 C.3       5 UNK         0.0242 
     36 CB         24.7347  -26.9024  -38.1119 C.3       5 UNK        -0.1982 
     37 C          25.3117  -28.6451  -39.8466 C.2       5 UNK         0.5017 
     38 O          26.0775  -29.4858  -39.3762 O.2       5 UNK        -0.5012 
     39 N          25.3661  -28.2260  -41.1215 N.am      6 UNK        -0.4439 
     40 CA         26.3205  -28.7420  -42.1113 C.3       6 UNK         0.0297 
     41 CB         26.3495  -27.8215  -43.3419 C.3       6 UNK        -0.2006 
     42 C          26.0271  -30.1933  -42.5341 C.2       6 UNK         0.4892 
     43 O          26.9525  -30.8977  -42.9381 O.2       6 UNK        -0.5089 
     44 N          24.7603  -30.6138  -42.4188 N.am      7 UNK        -0.4243 
     45 CA         24.3008  -31.9834  -42.6588 C.3       7 UNK         0.0196 
     46 CB         23.0388  -31.9225  -43.5317 C.3       7 UNK        -0.2007 
     47 C          24.0261  -32.7414  -41.3461 C.2       7 UNK         0.5020 
     48 O          23.6119  -33.8995  -41.4007 O.2       7 UNK        -0.5147 
     49 N          24.2487  -32.0811  -40.1988 N.am      8 UNK        -0.4734 
     50 CA         23.9839  -32.5380  -38.8297 C.3       8 UNK         0.0238 
     51 CB         24.9223  -33.7044  -38.4521 C.3       8 UNK        -0.1912 
     52 C          22.4961  -32.8500  -38.5616 C.2       8 UNK         0.5038 
     53 O          22.1997  -33.7503  -37.7733 O.2       8 UNK        -0.5046 
     54 N          21.5931  -32.0998  -39.2078 N.am      9 UNK        -0.4200 
     55 CA         20.1321  -32.2293  -39.0792 C.3       9 UNK         0.0839 
     56 C          19.4431  -30.9803  -38.4573 C.2       9 UNK         0.5513 
     57 N          20.1799  -29.9772  -37.9940 N.am      9 UNK        -0.7519 
     58 O          18.2194  -30.9333  -38.3608 O.2       9 UNK        -0.4960 
     59 C59        19.4776  -32.7033  -40.4050 C.3       10 UNK        -0.0876 
     60 S60        19.6175  -31.5193  -41.7853 S.3       10 UNK        -0.2414 
     61 C61        19.0186  -32.5506  -43.1586 C.3       10 UNK         0.0169 
     62 H62        12.9952  -23.8217  -43.1199 H         1 UNK         0.0903 
     63 H63        13.9267  -24.6832  -41.8936 H         1 UNK         0.0903 
     64 H64        14.2764  -22.9878  -42.2361 H         1 UNK         0.0903 
     65 H65        15.4650  -26.0504  -42.7808 H         1 UNK         0.3096 
     66 H66        16.2841  -25.9201  -45.5289 H         1 UNK         0.1121 
     67 H67        17.2988  -27.6273  -43.1903 H         1 UNK         0.0849 
     68 H68        17.8396  -27.8142  -44.8320 H         1 UNK         0.0849 
     69 H69        15.3607  -30.2654  -46.2697 H         1 UNK         0.0865 
     70 H70        16.1992  -28.8514  -46.8603 H         1 UNK         0.0865 
     71 H71        16.7806  -31.2371  -43.9787 H         1 UNK         0.1346 
     72 H72        20.8417  -31.9936  -45.1010 H         1 UNK         0.1412 
     73 H73        18.4206  -29.3940  -47.4935 H         1 UNK         0.1426 
     74 H74        21.7434  -31.1342  -47.1240 H         1 UNK         0.0716 
     75 H75        20.6480  -30.5468  -48.3491 H         1 UNK         0.0716 
     76 H76        21.2493  -29.2112  -44.7809 H         1 UNK         0.0695 
     77 H77        22.9498  -29.2129  -45.1613 H         1 UNK         0.0695 
     78 H78        23.0797  -26.8057  -45.1600 H         1 UNK         0.0983 
     79 H79        20.2588  -26.7790  -45.6068 H         1 UNK         0.3095 
     80 H80        19.7879  -23.3074  -45.0975 H         1 UNK         0.0454 
     81 H81        20.2177  -24.7257  -47.7822 H         1 UNK         0.0851 
     82 H82        19.3073  -23.2350  -47.5314 H         1 UNK         0.0851 
     83 H83        21.0390  -23.2657  -47.2513 H         1 UNK         0.0851 
     84 H84        18.2409  -25.3357  -46.4251 H         1 UNK         0.2976 
     85 H85        20.4271  -28.0472  -43.1092 H         1 UNK         0.3116 
     86 H86        20.1605  -28.4321  -40.9380 H         1 UNK         0.0646 
     87 H87        21.4314  -25.6412  -40.7585 H         1 UNK         0.0847 
     88 H88        19.7335  -26.0107  -41.0075 H         1 UNK         0.0847 
     89 H89        20.4893  -26.4108  -39.4784 H         1 UNK         0.0847 
     90 H90        22.7682  -26.6712  -39.6129 H         1 UNK         0.3040 
     91 H91        23.9086  -28.8772  -38.2582 H         1 UNK         0.1015 
     92 H92        25.0179  -26.0582  -38.7420 H         1 UNK         0.0786 
     93 H93        25.6184  -27.1952  -37.5427 H         1 UNK         0.0786 
     94 H94        23.9918  -26.5533  -37.3944 H         1 UNK         0.0786 
     95 H95        24.6683  -27.5659  -41.4578 H         1 UNK         0.3172 
     96 H96        27.3137  -28.7254  -41.6573 H         1 UNK         0.0595 
     97 H97        27.1406  -28.1214  -44.0305 H         1 UNK         0.0839 
     98 H98        26.5391  -26.7851  -43.0624 H         1 UNK         0.0839 
     99 H99        25.4117  -27.8548  -43.8967 H         1 UNK         0.0839 
    100 H100       24.0674  -29.9742  -42.0483 H         1 UNK         0.2998 
    101 H101       25.0598  -32.5533  -43.1988 H         1 UNK         0.0822 
    102 H102       22.6121  -32.9151  -43.6819 H         1 UNK         0.0787 
    103 H103       22.2688  -31.2979  -43.0780 H         1 UNK         0.0787 
    104 H104       23.2645  -31.5173  -44.5177 H         1 UNK         0.0787 
    105 H105       24.6034  -31.1376  -40.2739 H         1 UNK         0.3055 
    106 H106       24.2307  -31.6982  -38.1783 H         1 UNK         0.1106 
    107 H107       25.9658  -33.4489  -38.6358 H         1 UNK         0.0828 
    108 H108       24.8337  -33.9524  -37.3936 H         1 UNK         0.0828 
    109 H109       24.6930  -34.6083  -39.0170 H         1 UNK         0.0828 
    110 H110       21.9136  -31.3592  -39.8267 H         1 UNK         0.2931 
    111 H111       19.9190  -33.0149  -38.3527 H         1 UNK         0.0412 
    112 H112       19.7223  -29.1845  -37.5726 H         1 UNK         0.3472 
    113 H113       21.1842  -30.0173  -38.0445 H         1 UNK         0.3472 
    114 H114       19.9327  -33.6463  -40.7122 H         1 UNK         0.0970 
    115 H115       18.4205  -32.9237  -40.2457 H         1 UNK         0.0970 
    116 H116       19.7297  -33.3572  -43.3441 H         1 UNK         0.0612 
    117 H117       18.0750  -33.0215  -42.8783 H         1 UNK         0.0612 
@<TRIPOS>BOND
     1    1    2 1    
     2    1   62 1    
     3    1   63 1    
     4    1   64 1    
     5    2    3 2    
     6    2    4 am   BACKBONE|DICT|INTERRES
     7    4    5 1    
     8    4   65 1    
     9    5    6 1    
    10    5   25 1    
    11    5   66 1    
    12    6    7 1    
    13    6   67 1    
    14    6   68 1    
    15    7    8 1    
    16    8    9 1    
    17    8   69 1    
    18    8   70 1    
    19    9   10 ar   
    20    9   14 ar   
    21   10   11 ar   
    22   10   71 1    
    23   11   12 ar   
    24   11   61 1    
    25   12   13 ar   
    26   12   72 1    
    27   13   14 ar   
    28   13   15 1    
    29   14   73 1    
    30   15   16 1    
    31   15   74 1    
    32   15   75 1    
    33   16   17 1    
    34   17   18 1    
    35   17   76 1    
    36   17   77 1    
    37   18   19 1    
    38   18   27 1    
    39   18   78 1    
    40   19   20 am   BACKBONE|DICT|INTERRES
    41   19   79 1    
    42   20   21 2    
    43   20   22 1    
    44   22   23 1    
    45   22   24 1    
    46   22   80 1    
    47   23   81 1    
    48   23   82 1    
    49   23   83 1    
    50   24   25 am   BACKBONE|DICT|INTERRES
    51   24   84 1    
    52   25   26 2    
    53   27   28 2    
    54   27   29 am   BACKBONE|DICT|INTERRES
    55   29   30 1    
    56   29   85 1    
    57   30   31 1    
    58   30   32 1    
    59   30   86 1    
    60   31   87 1    
    61   31   88 1    
    62   31   89 1    
    63   32   33 2    
    64   32   34 am   BACKBONE|DICT|INTERRES
    65   34   35 1    
    66   34   90 1    
    67   35   36 1    
    68   35   37 1    
    69   35   91 1    
    70   36   92 1    
    71   36   93 1    
    72   36   94 1    
    73   37   38 2    
    74   37   39 am   BACKBONE|DICT|INTERRES
    75   39   40 1    
    76   39   95 1    
    77   40   41 1    
    78   40   42 1    
    79   40   96 1    
    80   41   97 1    
    81   41   98 1    
    82   41   99 1    
    83   42   43 2    
    84   42   44 am   BACKBONE|DICT|INTERRES
    85   44   45 1    
    86   44  100 1    
    87   45   46 1    
    88   45   47 1    
    89   45  101 1    
    90   46  102 1    
    91   46  103 1    
    92   46  104 1    
    93   47   48 2    
    94   47   49 am   BACKBONE|DICT|INTERRES
    95   49   50 1    
    96   49  105 1    
    97   50   51 1    
    98   50   52 1    
    99   50  106 1    
   100   51  107 1    
   101   51  108 1    
   102   51  109 1    
   103   52   53 2    
   104   52   54 am   BACKBONE|DICT|INTERRES
   105   54   55 1    
   106   54  110 1    
   107   55   56 1    
   108   55   59 1    
   109   55  111 1    
   110   56   57 am   BACKBONE|DICT|INTERRES
   111   56   58 2    
   112   57  112 1    
   113   57  113 1    
   114   59   60 1    
   115   59  114 1    
   116   59  115 1    
   117   60   61 1    
   118   61  116 1    
   119   61  117 1    
@<TRIPOS>SUBSTRUCTURE
     1 UNK         1 GROUP             0       ****    0 ROOT    
