@<TRIPOS>MOLECULE
3R8
117   119    1
SMALL
USER_CHARGES


@<TRIPOS>ATOM
      1 CA         14.2338  -23.9857  -46.7192 C.3       0 UNK        -0.2013 
      2 C          14.9816  -25.1347  -46.0607 C.2       0 UNK         0.4866 
      3 O          15.9912  -25.5953  -46.5935 O.2       0 UNK        -0.5176 
      4 N          14.5047  -25.5982  -44.8978 N.am      1 UNK        -0.4884 
      5 CA         15.0865  -26.6894  -44.1060 C.3       1 UNK         0.0853 
      6 C6         13.9871  -27.3606  -43.2361 C.3       10 UNK        -0.0849 
      7 S7         14.4774  -28.8211  -42.2489 S.3       10 UNK        -0.2776 
      8 C8         14.9937  -30.0422  -43.5025 C.3       10 UNK         0.0316 
      9 C9         16.4265  -29.8317  -43.9824 C.ar      10 UNK        -0.0863 
     10 C10        17.4713  -29.6757  -43.0644 C.ar      10 UNK        -0.1009 
     11 C11        18.7825  -29.4742  -43.5029 C.ar      10 UNK        -0.0712 
     12 C12        19.0527  -29.4661  -44.8735 C.ar      10 UNK        -0.0894 
     13 C13        18.0195  -29.6183  -45.8043 C.ar      10 UNK        -0.0745 
     14 C14        16.7098  -29.8023  -45.3511 C.ar      10 UNK        -0.0972 
     15 C15        18.3081  -29.6015  -47.2993 C.3       10 UNK         0.0209 
     16 S16        18.5602  -27.9101  -47.9320 S.3       10 UNK        -0.2568 
     17 C17        20.3320  -27.6541  -47.5778 C.3       10 UNK        -0.0983 
     18 CA         20.6496  -26.4370  -46.6676 C.3       3 UNK         0.0876 
     19 N          19.7536  -26.3228  -45.5044 N.am      3 UNK        -0.4424 
     20 C          19.6599  -25.2298  -44.7323 C.2       2 UNK         0.4918 
     21 O          20.3270  -24.2116  -44.9220 O.2       2 UNK        -0.4875 
     22 CA         18.6412  -25.2746  -43.5811 C.3       2 UNK         0.0481 
     23 CB         18.4550  -23.8962  -42.9071 C.3       2 UNK        -0.1831 
     24 N          17.3655  -25.7942  -44.0718 N.am      2 UNK        -0.4498 
     25 C          16.3283  -26.1932  -43.3254 C.2       1 UNK         0.5027 
     26 O          16.3149  -26.1378  -42.0943 O.2       1 UNK        -0.4969 
     27 C          22.1441  -26.4859  -46.2758 C.2       3 UNK         0.5005 
     28 O          22.9998  -26.1693  -47.1041 O.2       3 UNK        -0.5279 
     29 N          22.4299  -26.9176  -45.0425 N.am      4 UNK        -0.4463 
     30 CA         23.7576  -27.1301  -44.4803 C.3       4 UNK         0.0283 
     31 CB         24.2795  -28.5159  -44.9129 C.3       4 UNK        -0.1875 
     32 C          23.6675  -27.0101  -42.9528 C.2       4 UNK         0.4949 
     33 O          22.5817  -26.7768  -42.4153 O.2       4 UNK        -0.5039 
     34 N          24.8080  -27.1924  -42.2843 N.am      5 UNK        -0.4663 
     35 CA         24.9406  -27.2858  -40.8338 C.3       5 UNK         0.0242 
     36 CB         25.4617  -25.9485  -40.2805 C.3       5 UNK        -0.1982 
     37 C          25.9098  -28.4324  -40.5169 C.2       5 UNK         0.5017 
     38 O          26.7304  -28.7812  -41.3711 O.2       5 UNK        -0.5012 
     39 N          25.8010  -28.9706  -39.2942 N.am      6 UNK        -0.4439 
     40 CA         26.5211  -30.1325  -38.7509 C.3       6 UNK         0.0297 
     41 CB         28.0517  -29.9348  -38.8148 C.3       6 UNK        -0.2006 
     42 C          26.0823  -31.4697  -39.3823 C.2       6 UNK         0.4892 
     43 O          25.3088  -31.4899  -40.3439 O.2       6 UNK        -0.5089 
     44 N          26.5517  -32.5748  -38.7824 N.am      7 UNK        -0.4243 
     45 CA         26.1778  -33.9634  -39.0819 C.3       7 UNK         0.0196 
     46 CB         26.7167  -34.3928  -40.4668 C.3       7 UNK        -0.2007 
     47 C          24.6620  -34.1687  -38.8920 C.2       7 UNK         0.5020 
     48 O          24.1623  -33.9307  -37.7909 O.2       7 UNK        -0.5147 
     49 N          23.9460  -34.5518  -39.9578 N.am      8 UNK        -0.4734 
     50 CA         22.4827  -34.6752  -39.9836 C.3       8 UNK         0.0238 
     51 CB         22.0555  -35.3285  -41.3081 C.3       8 UNK        -0.1912 
     52 C          21.7396  -33.3392  -39.7794 C.2       8 UNK         0.5038 
     53 O          20.5872  -33.3573  -39.3454 O.2       8 UNK        -0.5046 
     54 N          22.4127  -32.2216  -40.0767 N.am      9 UNK        -0.4200 
     55 CA         21.9475  -30.8476  -39.8493 C.3       9 UNK         0.0839 
     56 C          22.5466  -30.2222  -38.5540 C.2       9 UNK         0.5513 
     57 N          23.1219  -30.9936  -37.6377 N.am      9 UNK        -0.7519 
     58 O          22.4936  -29.0095  -38.3679 O.2       9 UNK        -0.4960 
     59 C59        22.1916  -29.9669  -41.1036 C.3       10 UNK        -0.0876 
     60 S60        21.1811  -30.5013  -42.5269 S.3       10 UNK        -0.2414 
     61 C61        19.8939  -29.2166  -42.4960 C.3       10 UNK         0.0169 
     62 H62        13.3606  -23.6821  -46.1420 H         1 UNK         0.0903 
     63 H63        14.8900  -23.1219  -46.8222 H         1 UNK         0.0903 
     64 H64        13.8979  -24.2789  -47.7134 H         1 UNK         0.0903 
     65 H65        13.6921  -25.1544  -44.4924 H         1 UNK         0.3096 
     66 H66        15.4431  -27.4395  -44.8114 H         1 UNK         0.1121 
     67 H67        13.5690  -26.6283  -42.5430 H         1 UNK         0.0849 
     68 H68        13.1565  -27.6665  -43.8744 H         1 UNK         0.0849 
     69 H69        14.9236  -31.0390  -43.0652 H         1 UNK         0.0865 
     70 H70        14.2885  -30.0235  -44.3350 H         1 UNK         0.0865 
     71 H71        17.2565  -29.6883  -42.0045 H         1 UNK         0.1346 
     72 H72        20.0723  -29.3383  -45.2056 H         1 UNK         0.1412 
     73 H73        15.9090  -29.9241  -46.0682 H         1 UNK         0.1426 
     74 H74        17.4749  -30.0468  -47.8451 H         1 UNK         0.0716 
     75 H75        19.1738  -30.2263  -47.5235 H         1 UNK         0.0716 
     76 H76        20.8332  -27.5253  -48.5392 H         1 UNK         0.0695 
     77 H77        20.7527  -28.5713  -47.1647 H         1 UNK         0.0695 
     78 H78        20.5093  -25.5340  -47.2662 H         1 UNK         0.0983 
     79 H79        19.1505  -27.1134  -45.3237 H         1 UNK         0.3095 
     80 H80        19.0330  -25.9734  -42.8396 H         1 UNK         0.0454 
     81 H81        18.0376  -23.1654  -43.6005 H         1 UNK         0.0851 
     82 H82        19.4074  -23.5024  -42.5498 H         1 UNK         0.0851 
     83 H83        17.7956  -23.9505  -42.0417 H         1 UNK         0.0851 
     84 H84        17.2408  -25.8041  -45.0822 H         1 UNK         0.2976 
     85 H85        21.6775  -27.0636  -44.3820 H         1 UNK         0.3116 
     86 H86        24.4329  -26.3509  -44.8396 H         1 UNK         0.0646 
     87 H87        25.2931  -28.6941  -44.5528 H         1 UNK         0.0847 
     88 H88        24.3089  -28.6090  -45.9986 H         1 UNK         0.0847 
     89 H89        23.6498  -29.3189  -44.5268 H         1 UNK         0.0847 
     90 H90        25.6458  -27.4531  -42.7899 H         1 UNK         0.3040 
     91 H91        23.9732  -27.5144  -40.3805 H         1 UNK         0.1015 
     92 H92        24.7768  -25.1325  -40.5119 H         1 UNK         0.0786 
     93 H93        26.4382  -25.6940  -40.6949 H         1 UNK         0.0786 
     94 H94        25.5658  -25.9858  -39.1954 H         1 UNK         0.0786 
     95 H95        25.0708  -28.6114  -38.6933 H         1 UNK         0.3172 
     96 H96        26.2367  -30.1797  -37.6985 H         1 UNK         0.0595 
     97 H97        28.4323  -30.0161  -39.8333 H         1 UNK         0.0839 
     98 H98        28.5730  -30.6845  -38.2191 H         1 UNK         0.0839 
     99 H99        28.3430  -28.9593  -38.4253 H         1 UNK         0.0839 
    100 H100       27.1465  -32.4560  -37.9742 H         1 UNK         0.2998 
    101 H101       26.6640  -34.5874  -38.3304 H         1 UNK         0.0822 
    102 H102       26.2869  -33.8096  -41.2819 H         1 UNK         0.0787 
    103 H103       27.7988  -34.2704  -40.5159 H         1 UNK         0.0787 
    104 H104       26.5088  -35.4456  -40.6625 H         1 UNK         0.0787 
    105 H105       24.4329  -34.7056  -40.8295 H         1 UNK         0.3055 
    106 H106       22.1884  -35.3337  -39.1632 H         1 UNK         0.1106 
    107 H107       22.3358  -34.7186  -42.1679 H         1 UNK         0.0828 
    108 H108       22.5066  -36.3133  -41.4306 H         1 UNK         0.0828 
    109 H109       20.9734  -35.4636  -41.3449 H         1 UNK         0.0828 
    110 H110       23.3785  -32.2977  -40.3764 H         1 UNK         0.2931 
    111 H111       20.8704  -30.8596  -39.6740 H         1 UNK         0.0412 
    112 H112       23.4786  -30.5712  -36.7957 H         1 UNK         0.3472 
    113 H113       23.2027  -31.9937  -37.7698 H         1 UNK         0.3472 
    114 H114       21.9670  -28.9201  -40.8940 H         1 UNK         0.0970 
    115 H115       23.2433  -29.9948  -41.3931 H         1 UNK         0.0970 
    116 H116       20.3465  -28.2484  -42.7099 H         1 UNK         0.0612 
    117 H117       19.4863  -29.1505  -41.4859 H         1 UNK         0.0612 
@<TRIPOS>BOND
     1    1    2 1    
     2    1   62 1    
     3    1   63 1    
     4    1   64 1    
     5    2    3 2    
     6    2    4 am   BACKBONE|DICT|INTERRES
     7    4    5 1    
     8    4   65 1    
     9    5    6 1    
    10    5   25 1    
    11    5   66 1    
    12    6    7 1    
    13    6   67 1    
    14    6   68 1    
    15    7    8 1    
    16    8    9 1    
    17    8   69 1    
    18    8   70 1    
    19    9   10 ar   
    20    9   14 ar   
    21   10   11 ar   
    22   10   71 1    
    23   11   12 ar   
    24   11   61 1    
    25   12   13 ar   
    26   12   72 1    
    27   13   14 ar   
    28   13   15 1    
    29   14   73 1    
    30   15   16 1    
    31   15   74 1    
    32   15   75 1    
    33   16   17 1    
    34   17   18 1    
    35   17   76 1    
    36   17   77 1    
    37   18   19 1    
    38   18   27 1    
    39   18   78 1    
    40   19   20 am   BACKBONE|DICT|INTERRES
    41   19   79 1    
    42   20   21 2    
    43   20   22 1    
    44   22   23 1    
    45   22   24 1    
    46   22   80 1    
    47   23   81 1    
    48   23   82 1    
    49   23   83 1    
    50   24   25 am   BACKBONE|DICT|INTERRES
    51   24   84 1    
    52   25   26 2    
    53   27   28 2    
    54   27   29 am   BACKBONE|DICT|INTERRES
    55   29   30 1    
    56   29   85 1    
    57   30   31 1    
    58   30   32 1    
    59   30   86 1    
    60   31   87 1    
    61   31   88 1    
    62   31   89 1    
    63   32   33 2    
    64   32   34 am   BACKBONE|DICT|INTERRES
    65   34   35 1    
    66   34   90 1    
    67   35   36 1    
    68   35   37 1    
    69   35   91 1    
    70   36   92 1    
    71   36   93 1    
    72   36   94 1    
    73   37   38 2    
    74   37   39 am   BACKBONE|DICT|INTERRES
    75   39   40 1    
    76   39   95 1    
    77   40   41 1    
    78   40   42 1    
    79   40   96 1    
    80   41   97 1    
    81   41   98 1    
    82   41   99 1    
    83   42   43 2    
    84   42   44 am   BACKBONE|DICT|INTERRES
    85   44   45 1    
    86   44  100 1    
    87   45   46 1    
    88   45   47 1    
    89   45  101 1    
    90   46  102 1    
    91   46  103 1    
    92   46  104 1    
    93   47   48 2    
    94   47   49 am   BACKBONE|DICT|INTERRES
    95   49   50 1    
    96   49  105 1    
    97   50   51 1    
    98   50   52 1    
    99   50  106 1    
   100   51  107 1    
   101   51  108 1    
   102   51  109 1    
   103   52   53 2    
   104   52   54 am   BACKBONE|DICT|INTERRES
   105   54   55 1    
   106   54  110 1    
   107   55   56 1    
   108   55   59 1    
   109   55  111 1    
   110   56   57 am   BACKBONE|DICT|INTERRES
   111   56   58 2    
   112   57  112 1    
   113   57  113 1    
   114   59   60 1    
   115   59  114 1    
   116   59  115 1    
   117   60   61 1    
   118   61  116 1    
   119   61  117 1    
@<TRIPOS>SUBSTRUCTURE
     1 UNK         1 GROUP             0       ****    0 ROOT    
