@<TRIPOS>MOLECULE
3R8
117   119    1
SMALL
USER_CHARGES


@<TRIPOS>ATOM
      1 CA         17.6710  -27.0193  -40.8428 C.3       0 UNK        -0.2013 
      2 C          17.1158  -25.9863  -41.8111 C.2       0 UNK         0.4866 
      3 O          16.1547  -25.2916  -41.4796 O.2       0 UNK        -0.5176 
      4 N          17.7128  -25.8781  -43.0017 N.am      1 UNK        -0.4884 
      5 CA         17.3496  -24.9127  -44.0391 C.3       1 UNK         0.0853 
      6 C6         16.0869  -25.3323  -44.8470 C.3       10 UNK        -0.0849 
      7 S7         16.2834  -26.7961  -45.9263 S.3       10 UNK        -0.2776 
      8 C8         15.7059  -28.1790  -44.8798 C.3       10 UNK         0.0316 
      9 C9         16.8353  -29.1162  -44.4594 C.ar      10 UNK        -0.0863 
     10 C10        16.9302  -29.5608  -43.1365 C.ar      10 UNK        -0.1009 
     11 C11        17.9451  -30.4445  -42.7531 C.ar      10 UNK        -0.0712 
     12 C12        18.8774  -30.8786  -43.7017 C.ar      10 UNK        -0.0894 
     13 C13        18.7964  -30.4402  -45.0254 C.ar      10 UNK        -0.0745 
     14 C14        17.7623  -29.5779  -45.3998 C.ar      10 UNK        -0.0972 
     15 C15        19.8292  -30.8816  -46.0551 C.3       10 UNK         0.0209 
     16 S16        21.3931  -29.9522  -45.9133 S.3       10 UNK        -0.2568 
     17 C17        20.7956  -28.2300  -45.8411 C.3       10 UNK        -0.0983 
     18 CA         21.8222  -27.1513  -46.2771 C.3       3 UNK         0.0876 
     19 N          21.1630  -25.8582  -46.4165 N.am      3 UNK        -0.4424 
     20 C          20.3202  -25.4837  -47.3794 C.2       2 UNK         0.4918 
     21 O          20.0822  -26.1538  -48.3856 O.2       2 UNK        -0.4875 
     22 CA         19.5716  -24.1603  -47.1275 C.3       2 UNK         0.0481 
     23 CB         19.0029  -23.5540  -48.4231 C.3       2 UNK        -0.1831 
     24 N          18.4751  -24.3675  -46.1761 N.am      2 UNK        -0.4498 
     25 C          18.6123  -24.5663  -44.8567 C.2       1 UNK         0.5027 
     26 O          19.6964  -24.4833  -44.2731 O.2       1 UNK        -0.4969 
     27 C          22.9497  -26.9617  -45.2436 C.2       3 UNK         0.5005 
     28 O          22.9803  -25.9404  -44.5475 O.2       3 UNK        -0.5279 
     29 N          23.8390  -27.9549  -45.1179 N.am      4 UNK        -0.4463 
     30 CA         24.9123  -28.0149  -44.1179 C.3       4 UNK         0.0283 
     31 CB         26.0148  -28.9676  -44.6161 C.3       4 UNK        -0.1875 
     32 C          24.3839  -28.3976  -42.7185 C.2       4 UNK         0.4949 
     33 O          24.8878  -29.3310  -42.0925 O.2       4 UNK        -0.5039 
     34 N          23.3537  -27.6836  -42.2563 N.am      5 UNK        -0.4663 
     35 CA         22.7470  -27.8385  -40.9376 C.3       5 UNK         0.0242 
     36 CB         21.3794  -27.1373  -40.9503 C.3       5 UNK        -0.1982 
     37 C          23.6616  -27.2447  -39.8444 C.2       5 UNK         0.5017 
     38 O          24.3700  -26.2761  -40.1213 O.2       5 UNK        -0.5012 
     39 N          23.6551  -27.7635  -38.6087 N.am      6 UNK        -0.4439 
     40 CA         22.8800  -28.9059  -38.1139 C.3       6 UNK         0.0297 
     41 CB         22.6427  -28.7191  -36.6060 C.3       6 UNK        -0.2006 
     42 C          23.5455  -30.2691  -38.3827 C.2       6 UNK         0.4892 
     43 O          22.9265  -31.2885  -38.0842 O.2       6 UNK        -0.5089 
     44 N          24.7710  -30.2849  -38.9304 N.am      7 UNK        -0.4243 
     45 CA         25.5586  -31.4958  -39.1996 C.3       7 UNK         0.0196 
     46 CB         26.9424  -31.1049  -39.7432 C.3       7 UNK        -0.2007 
     47 C          24.8598  -32.4900  -40.1433 C.2       7 UNK         0.5020 
     48 O          24.8362  -33.6871  -39.8564 O.2       7 UNK        -0.5147 
     49 N          24.2547  -31.9720  -41.2200 N.am      8 UNK        -0.4734 
     50 CA         23.4357  -32.7373  -42.1669 C.3       8 UNK         0.0238 
     51 CB         23.1783  -31.8783  -43.4147 C.3       8 UNK        -0.1912 
     52 C          22.0971  -33.2300  -41.5852 C.2       8 UNK         0.5038 
     53 O          21.4845  -34.1204  -42.1760 O.2       8 UNK        -0.5046 
     54 N          21.6621  -32.6426  -40.4644 N.am      9 UNK        -0.4200 
     55 CA         20.4075  -32.9614  -39.7695 C.3       9 UNK         0.0839 
     56 C          20.5647  -34.0542  -38.6739 C.2       9 UNK         0.5513 
     57 N          21.7577  -34.5780  -38.4150 N.am      9 UNK        -0.7519 
     58 O          19.5784  -34.4499  -38.0579 O.2       9 UNK        -0.4960 
     59 C59        19.7133  -31.6859  -39.2139 C.3       10 UNK        -0.0876 
     60 S60        19.5167  -30.3771  -40.4724 S.3       10 UNK        -0.2414 
     61 C61        18.0207  -30.9637  -41.3256 C.3       10 UNK         0.0169 
     62 H62        16.8643  -27.6242  -40.4301 H         1 UNK         0.0903 
     63 H63        18.3751  -27.6907  -41.3317 H         1 UNK         0.0903 
     64 H64        18.1843  -26.5261  -40.0180 H         1 UNK         0.0903 
     65 H65        18.5258  -26.4390  -43.2171 H         1 UNK         0.3096 
     66 H66        17.1021  -23.9760  -43.5340 H         1 UNK         0.1121 
     67 H67        15.2520  -25.4989  -44.1651 H         1 UNK         0.0849 
     68 H68        15.7614  -24.5009  -45.4744 H         1 UNK         0.0849 
     69 H69        15.1794  -27.7936  -44.0057 H         1 UNK         0.0865 
     70 H70        14.9733  -28.7573  -45.4441 H         1 UNK         0.0865 
     71 H71        16.2047  -29.2299  -42.4062 H         1 UNK         0.1346 
     72 H72        19.6707  -31.5522  -43.4058 H         1 UNK         0.1412 
     73 H73        17.6896  -29.2481  -46.4272 H         1 UNK         0.1426 
     74 H74        19.4362  -30.7599  -47.0657 H         1 UNK         0.0716 
     75 H75        20.0370  -31.9457  -45.9346 H         1 UNK         0.0716 
     76 H76        20.4264  -28.0283  -44.8331 H         1 UNK         0.0695 
     77 H77        19.9243  -28.1731  -46.4941 H         1 UNK         0.0695 
     78 H78        22.2690  -27.4213  -47.2362 H         1 UNK         0.0983 
     79 H79        21.2995  -25.2510  -45.6132 H         1 UNK         0.3095 
     80 H80        20.2785  -23.4432  -46.7044 H         1 UNK         0.0454 
     81 H81        19.7937  -23.3931  -49.1569 H         1 UNK         0.0851 
     82 H82        18.5343  -22.5878  -48.2362 H         1 UNK         0.0851 
     83 H83        18.2582  -24.2040  -48.8843 H         1 UNK         0.0851 
     84 H84        17.5615  -24.5204  -46.5797 H         1 UNK         0.2976 
     85 H85        23.6949  -28.7889  -45.6718 H         1 UNK         0.3116 
     86 H86        25.3566  -27.0216  -44.0245 H         1 UNK         0.0646 
     87 H87        25.6456  -29.9849  -44.7443 H         1 UNK         0.0847 
     88 H88        26.8446  -29.0094  -43.9092 H         1 UNK         0.0847 
     89 H89        26.4234  -28.6365  -45.5709 H         1 UNK         0.0847 
     90 H90        23.0362  -26.9049  -42.8253 H         1 UNK         0.3040 
     91 H91        22.5959  -28.9062  -40.7744 H         1 UNK         0.1015 
     92 H92        20.8590  -27.2663  -40.0009 H         1 UNK         0.0786 
     93 H93        20.7386  -27.5490  -41.7301 H         1 UNK         0.0786 
     94 H94        21.4757  -26.0652  -41.1282 H         1 UNK         0.0786 
     95 H95        24.2612  -27.3302  -37.9263 H         1 UNK         0.3172 
     96 H96        21.8997  -28.9215  -38.5923 H         1 UNK         0.0595 
     97 H97        23.5782  -28.7156  -36.0451 H         1 UNK         0.0839 
     98 H98        22.0259  -29.5240  -36.2032 H         1 UNK         0.0839 
     99 H99        22.1220  -27.7840  -36.3982 H         1 UNK         0.0839 
    100 H100       25.2012  -29.4036  -39.1711 H         1 UNK         0.2998 
    101 H101       25.7027  -32.0049  -38.2442 H         1 UNK         0.0822 
    102 H102       27.4879  -30.4848  -39.0318 H         1 UNK         0.0787 
    103 H103       27.5510  -31.9903  -39.9325 H         1 UNK         0.0787 
    104 H104       26.8690  -30.5540  -40.6816 H         1 UNK         0.0787 
    105 H105       24.3861  -30.9813  -41.4198 H         1 UNK         0.3055 
    106 H106       24.0011  -33.6223  -42.4671 H         1 UNK         0.1106 
    107 H107       24.1115  -31.5890  -43.8956 H         1 UNK         0.0828 
    108 H108       22.5912  -32.4241  -44.1547 H         1 UNK         0.0828 
    109 H109       22.6274  -30.9688  -43.1705 H         1 UNK         0.0828 
    110 H110       22.2574  -31.9718  -39.9969 H         1 UNK         0.2931 
    111 H111       19.7228  -33.3964  -40.4989 H         1 UNK         0.0412 
    112 H112       22.5783  -34.2480  -38.9022 H         1 UNK         0.3472 
    113 H113       21.8430  -35.2890  -37.7060 H         1 UNK         0.3472 
    114 H114       18.7311  -31.9290  -38.8042 H         1 UNK         0.0970 
    115 H115       20.2875  -31.2709  -38.3843 H         1 UNK         0.0970 
    116 H116       18.0102  -32.0535  -41.3566 H         1 UNK         0.0612 
    117 H117       17.1444  -30.6625  -40.7496 H         1 UNK         0.0612 
@<TRIPOS>BOND
     1    1    2 1    
     2    1   62 1    
     3    1   63 1    
     4    1   64 1    
     5    2    3 2    
     6    2    4 am   BACKBONE|DICT|INTERRES
     7    4    5 1    
     8    4   65 1    
     9    5    6 1    
    10    5   25 1    
    11    5   66 1    
    12    6    7 1    
    13    6   67 1    
    14    6   68 1    
    15    7    8 1    
    16    8    9 1    
    17    8   69 1    
    18    8   70 1    
    19    9   10 ar   
    20    9   14 ar   
    21   10   11 ar   
    22   10   71 1    
    23   11   12 ar   
    24   11   61 1    
    25   12   13 ar   
    26   12   72 1    
    27   13   14 ar   
    28   13   15 1    
    29   14   73 1    
    30   15   16 1    
    31   15   74 1    
    32   15   75 1    
    33   16   17 1    
    34   17   18 1    
    35   17   76 1    
    36   17   77 1    
    37   18   19 1    
    38   18   27 1    
    39   18   78 1    
    40   19   20 am   BACKBONE|DICT|INTERRES
    41   19   79 1    
    42   20   21 2    
    43   20   22 1    
    44   22   23 1    
    45   22   24 1    
    46   22   80 1    
    47   23   81 1    
    48   23   82 1    
    49   23   83 1    
    50   24   25 am   BACKBONE|DICT|INTERRES
    51   24   84 1    
    52   25   26 2    
    53   27   28 2    
    54   27   29 am   BACKBONE|DICT|INTERRES
    55   29   30 1    
    56   29   85 1    
    57   30   31 1    
    58   30   32 1    
    59   30   86 1    
    60   31   87 1    
    61   31   88 1    
    62   31   89 1    
    63   32   33 2    
    64   32   34 am   BACKBONE|DICT|INTERRES
    65   34   35 1    
    66   34   90 1    
    67   35   36 1    
    68   35   37 1    
    69   35   91 1    
    70   36   92 1    
    71   36   93 1    
    72   36   94 1    
    73   37   38 2    
    74   37   39 am   BACKBONE|DICT|INTERRES
    75   39   40 1    
    76   39   95 1    
    77   40   41 1    
    78   40   42 1    
    79   40   96 1    
    80   41   97 1    
    81   41   98 1    
    82   41   99 1    
    83   42   43 2    
    84   42   44 am   BACKBONE|DICT|INTERRES
    85   44   45 1    
    86   44  100 1    
    87   45   46 1    
    88   45   47 1    
    89   45  101 1    
    90   46  102 1    
    91   46  103 1    
    92   46  104 1    
    93   47   48 2    
    94   47   49 am   BACKBONE|DICT|INTERRES
    95   49   50 1    
    96   49  105 1    
    97   50   51 1    
    98   50   52 1    
    99   50  106 1    
   100   51  107 1    
   101   51  108 1    
   102   51  109 1    
   103   52   53 2    
   104   52   54 am   BACKBONE|DICT|INTERRES
   105   54   55 1    
   106   54  110 1    
   107   55   56 1    
   108   55   59 1    
   109   55  111 1    
   110   56   57 am   BACKBONE|DICT|INTERRES
   111   56   58 2    
   112   57  112 1    
   113   57  113 1    
   114   59   60 1    
   115   59  114 1    
   116   59  115 1    
   117   60   61 1    
   118   61  116 1    
   119   61  117 1    
@<TRIPOS>SUBSTRUCTURE
     1 UNK         1 GROUP             0       ****    0 ROOT    
