@<TRIPOS>MOLECULE
3R8
117   119    1
SMALL
USER_CHARGES


@<TRIPOS>ATOM
      1 CA         13.1090  -23.5029  -42.6726 C.3       0 UNK        -0.2013 
      2 C          14.2763  -23.5223  -43.6483 C.2       0 UNK         0.4866 
      3 O          14.9567  -22.5085  -43.8103 O.2       0 UNK        -0.5176 
      4 N          14.5075  -24.6643  -44.3064 N.am      1 UNK        -0.4884 
      5 CA         15.6320  -24.8948  -45.2185 C.3       1 UNK         0.0853 
      6 C6         15.3460  -26.0837  -46.1761 C.3       10 UNK        -0.0849 
      7 S7         14.9784  -27.6687  -45.3357 S.3       10 UNK        -0.2776 
      8 C8         16.5187  -28.5846  -45.6592 C.3       10 UNK         0.0316 
      9 C9         16.8182  -29.6189  -44.5843 C.ar      10 UNK        -0.0863 
     10 C10        16.9481  -30.9715  -44.9123 C.ar      10 UNK        -0.1009 
     11 C11        17.3119  -31.9063  -43.9374 C.ar      10 UNK        -0.0712 
     12 C12        17.5558  -31.4783  -42.6290 C.ar      10 UNK        -0.0894 
     13 C13        17.4366  -30.1278  -42.2894 C.ar      10 UNK        -0.0745 
     14 C14        17.0398  -29.2093  -43.2669 C.ar      10 UNK        -0.0972 
     15 C15        17.7494  -29.6692  -40.8696 C.3       10 UNK         0.0209 
     16 S16        18.8260  -28.1966  -40.8110 S.3       10 UNK        -0.2568 
     17 C17        20.3355  -28.7661  -41.6660 C.3       10 UNK        -0.0983 
     18 CA         20.4029  -28.3608  -43.1643 C.3       3 UNK         0.0876 
     19 N          20.1209  -26.9376  -43.3748 N.am      3 UNK        -0.4424 
     20 C          19.8253  -26.3834  -44.5560 C.2       2 UNK         0.4918 
     21 O          19.8284  -26.9885  -45.6293 O.2       2 UNK        -0.4875 
     22 CA         19.4310  -24.8983  -44.5377 C.3       2 UNK         0.0481 
     23 CB         20.4306  -24.0554  -45.3465 C.3       2 UNK        -0.1831 
     24 N          18.0834  -24.7221  -45.0852 N.am      2 UNK        -0.4498 
     25 C          16.9581  -25.0626  -44.4403 C.2       1 UNK         0.5027 
     26 O          16.9446  -25.5024  -43.2871 O.2       1 UNK        -0.4969 
     27 C          21.7429  -28.7771  -43.7994 C.2       3 UNK         0.5005 
     28 O          21.7642  -29.6564  -44.6604 O.2       3 UNK        -0.5279 
     29 N          22.8214  -28.1172  -43.3619 N.am      4 UNK        -0.4463 
     30 CA         24.2223  -28.2847  -43.7496 C.3       4 UNK         0.0283 
     31 CB         24.6880  -29.7509  -43.6106 C.3       4 UNK        -0.1875 
     32 C          25.0506  -27.3966  -42.8132 C.2       4 UNK         0.4949 
     33 O          24.5345  -26.9552  -41.7828 O.2       4 UNK        -0.5039 
     34 N          26.3345  -27.1976  -43.1389 N.am      5 UNK        -0.4663 
     35 CA         27.2958  -26.4771  -42.2906 C.3       5 UNK         0.0242 
     36 CB         28.6083  -26.2725  -43.0642 C.3       5 UNK        -0.1982 
     37 C          27.5645  -27.1763  -40.9429 C.2       5 UNK         0.5017 
     38 O          27.7949  -26.4975  -39.9422 O.2       5 UNK        -0.5012 
     39 N          27.4965  -28.5146  -40.9435 N.am      6 UNK        -0.4439 
     40 CA         27.5898  -29.3726  -39.7582 C.3       6 UNK         0.0297 
     41 CB         28.3203  -30.6687  -40.1521 C.3       6 UNK        -0.2006 
     42 C          26.2135  -29.6950  -39.1379 C.2       6 UNK         0.4892 
     43 O          26.1702  -30.4169  -38.1404 O.2       6 UNK        -0.5089 
     44 N          25.1278  -29.1773  -39.7360 N.am      7 UNK        -0.4243 
     45 CA         23.7165  -29.4496  -39.4375 C.3       7 UNK         0.0196 
     46 CB         23.3452  -28.9474  -38.0243 C.3       7 UNK        -0.2007 
     47 C          23.3208  -30.9217  -39.6870 C.2       7 UNK         0.5020 
     48 O          24.0354  -31.6427  -40.3864 O.2       7 UNK        -0.5147 
     49 N          22.1604  -31.3302  -39.1494 N.am      8 UNK        -0.4734 
     50 CA         21.6192  -32.7013  -39.1327 C.3       8 UNK         0.0238 
     51 CB         22.4472  -33.5778  -38.1684 C.3       8 UNK        -0.1912 
     52 C          21.4583  -33.3540  -40.5236 C.2       8 UNK         0.5038 
     53 O          21.6146  -34.5697  -40.6516 O.2       8 UNK        -0.5046 
     54 N          21.1521  -32.5324  -41.5368 N.am      9 UNK        -0.4200 
     55 CA         21.0704  -32.9020  -42.9612 C.3       9 UNK         0.0839 
     56 C          22.4504  -33.2151  -43.6248 C.2       9 UNK         0.5513 
     57 N          23.5818  -32.9471  -42.9821 N.am      9 UNK        -0.7519 
     58 O          22.5060  -33.6984  -44.7525 O.2       9 UNK        -0.4960 
     59 C59        19.9991  -34.0039  -43.2298 C.3       10 UNK        -0.0876 
     60 S60        19.1313  -33.8036  -44.8257 S.3       10 UNK        -0.2414 
     61 C61        17.4399  -33.3776  -44.3027 C.3       10 UNK         0.0169 
     62 H62        12.3909  -22.7357  -42.9612 H         1 UNK         0.0903 
     63 H63        12.5882  -24.4598  -42.6408 H         1 UNK         0.0903 
     64 H64        13.4644  -23.2770  -41.6676 H         1 UNK         0.0903 
     65 H65        13.9464  -25.4814  -44.1086 H         1 UNK         0.3096 
     66 H66        15.7369  -23.9989  -45.8353 H         1 UNK         0.1121 
     67 H67        16.1682  -26.2146  -46.8821 H         1 UNK         0.0849 
     68 H68        14.4815  -25.8390  -46.7954 H         1 UNK         0.0849 
     69 H69        16.4563  -29.0470  -46.6455 H         1 UNK         0.0865 
     70 H70        17.3586  -27.8921  -45.6993 H         1 UNK         0.0865 
     71 H71        16.7832  -31.2981  -45.9302 H         1 UNK         0.1346 
     72 H72        17.8458  -32.1973  -41.8759 H         1 UNK         0.1412 
     73 H73        16.9493  -28.1613  -43.0136 H         1 UNK         0.1426 
     74 H74        16.8117  -29.4381  -40.3628 H         1 UNK         0.0716 
     75 H75        18.2222  -30.4688  -40.2971 H         1 UNK         0.0716 
     76 H76        20.4176  -29.8469  -41.5586 H         1 UNK         0.0695 
     77 H77        21.1744  -28.3374  -41.1184 H         1 UNK         0.0695 
     78 H78        19.6362  -28.9233  -43.6977 H         1 UNK         0.0983 
     79 H79        20.0496  -26.3736  -42.5402 H         1 UNK         0.3095 
     80 H80        19.4396  -24.5340  -43.5079 H         1 UNK         0.0454 
     81 H81        20.1787  -22.9955  -45.3086 H         1 UNK         0.0851 
     82 H82        20.4615  -24.3562  -46.3946 H         1 UNK         0.0851 
     83 H83        21.4406  -24.1617  -44.9484 H         1 UNK         0.0851 
     84 H84        18.0265  -24.3974  -46.0399 H         1 UNK         0.2976 
     85 H85        22.7056  -27.4050  -42.6492 H         1 UNK         0.3116 
     86 H86        24.3501  -27.9407  -44.7774 H         1 UNK         0.0646 
     87 H87        24.1866  -30.4054  -44.3224 H         1 UNK         0.0847 
     88 H88        25.7560  -29.8538  -43.8040 H         1 UNK         0.0847 
     89 H89        24.4993  -30.1405  -42.6105 H         1 UNK         0.0847 
     90 H90        26.6871  -27.5797  -44.0057 H         1 UNK         0.3040 
     91 H91        26.8737  -25.4946  -42.0663 H         1 UNK         0.1015 
     92 H92        29.0701  -27.2219  -43.3382 H         1 UNK         0.0786 
     93 H93        29.3324  -25.7196  -42.4638 H         1 UNK         0.0786 
     94 H94        28.4456  -25.7009  -43.9781 H         1 UNK         0.0786 
     95 H95        27.3175  -28.9774  -41.8229 H         1 UNK         0.3172 
     96 H96        28.1820  -28.8709  -38.9900 H         1 UNK         0.0595 
     97 H97        27.7566  -31.2418  -40.8896 H         1 UNK         0.0839 
     98 H98        28.4689  -31.3140  -39.2851 H         1 UNK         0.0839 
     99 H99        29.3059  -30.4596  -40.5683 H         1 UNK         0.0839 
    100 H100       25.2791  -28.5561  -40.5199 H         1 UNK         0.2998 
    101 H101       23.1562  -28.8565  -40.1585 H         1 UNK         0.0822 
    102 H102       22.2649  -28.9098  -37.8822 H         1 UNK         0.0787 
    103 H103       23.7581  -29.5885  -37.2443 H         1 UNK         0.0787 
    104 H104       23.7189  -27.9373  -37.8552 H         1 UNK         0.0787 
    105 H105       21.6292  -30.6526  -38.6192 H         1 UNK         0.3055 
    106 H106       20.6095  -32.6301  -38.7245 H         1 UNK         0.1106 
    107 H107       21.9910  -34.5596  -38.0353 H         1 UNK         0.0828 
    108 H108       23.4604  -33.7365  -38.5397 H         1 UNK         0.0828 
    109 H109       22.5204  -33.1223  -37.1809 H         1 UNK         0.0828 
    110 H110       21.0760  -31.5490  -41.3329 H         1 UNK         0.2931 
    111 H111       20.7292  -31.9863  -43.4453 H         1 UNK         0.0412 
    112 H112       24.4570  -33.1592  -43.4324 H         1 UNK         0.3472 
    113 H113       23.5838  -32.5476  -42.0486 H         1 UNK         0.3472 
    114 H114       19.2547  -34.0119  -42.4339 H         1 UNK         0.0970 
    115 H115       20.4497  -34.9977  -43.1988 H         1 UNK         0.0970 
    116 H116       16.7574  -33.6116  -45.1212 H         1 UNK         0.0612 
    117 H117       17.1329  -34.0101  -43.4684 H         1 UNK         0.0612 
@<TRIPOS>BOND
     1    1    2 1    
     2    1   62 1    
     3    1   63 1    
     4    1   64 1    
     5    2    3 2    
     6    2    4 am   BACKBONE|DICT|INTERRES
     7    4    5 1    
     8    4   65 1    
     9    5    6 1    
    10    5   25 1    
    11    5   66 1    
    12    6    7 1    
    13    6   67 1    
    14    6   68 1    
    15    7    8 1    
    16    8    9 1    
    17    8   69 1    
    18    8   70 1    
    19    9   10 ar   
    20    9   14 ar   
    21   10   11 ar   
    22   10   71 1    
    23   11   12 ar   
    24   11   61 1    
    25   12   13 ar   
    26   12   72 1    
    27   13   14 ar   
    28   13   15 1    
    29   14   73 1    
    30   15   16 1    
    31   15   74 1    
    32   15   75 1    
    33   16   17 1    
    34   17   18 1    
    35   17   76 1    
    36   17   77 1    
    37   18   19 1    
    38   18   27 1    
    39   18   78 1    
    40   19   20 am   BACKBONE|DICT|INTERRES
    41   19   79 1    
    42   20   21 2    
    43   20   22 1    
    44   22   23 1    
    45   22   24 1    
    46   22   80 1    
    47   23   81 1    
    48   23   82 1    
    49   23   83 1    
    50   24   25 am   BACKBONE|DICT|INTERRES
    51   24   84 1    
    52   25   26 2    
    53   27   28 2    
    54   27   29 am   BACKBONE|DICT|INTERRES
    55   29   30 1    
    56   29   85 1    
    57   30   31 1    
    58   30   32 1    
    59   30   86 1    
    60   31   87 1    
    61   31   88 1    
    62   31   89 1    
    63   32   33 2    
    64   32   34 am   BACKBONE|DICT|INTERRES
    65   34   35 1    
    66   34   90 1    
    67   35   36 1    
    68   35   37 1    
    69   35   91 1    
    70   36   92 1    
    71   36   93 1    
    72   36   94 1    
    73   37   38 2    
    74   37   39 am   BACKBONE|DICT|INTERRES
    75   39   40 1    
    76   39   95 1    
    77   40   41 1    
    78   40   42 1    
    79   40   96 1    
    80   41   97 1    
    81   41   98 1    
    82   41   99 1    
    83   42   43 2    
    84   42   44 am   BACKBONE|DICT|INTERRES
    85   44   45 1    
    86   44  100 1    
    87   45   46 1    
    88   45   47 1    
    89   45  101 1    
    90   46  102 1    
    91   46  103 1    
    92   46  104 1    
    93   47   48 2    
    94   47   49 am   BACKBONE|DICT|INTERRES
    95   49   50 1    
    96   49  105 1    
    97   50   51 1    
    98   50   52 1    
    99   50  106 1    
   100   51  107 1    
   101   51  108 1    
   102   51  109 1    
   103   52   53 2    
   104   52   54 am   BACKBONE|DICT|INTERRES
   105   54   55 1    
   106   54  110 1    
   107   55   56 1    
   108   55   59 1    
   109   55  111 1    
   110   56   57 am   BACKBONE|DICT|INTERRES
   111   56   58 2    
   112   57  112 1    
   113   57  113 1    
   114   59   60 1    
   115   59  114 1    
   116   59  115 1    
   117   60   61 1    
   118   61  116 1    
   119   61  117 1    
@<TRIPOS>SUBSTRUCTURE
     1 UNK         1 GROUP             0       ****    0 ROOT    
