@<TRIPOS>MOLECULE
3R8
117   119    1
SMALL
USER_CHARGES


@<TRIPOS>ATOM
      1 CA         15.6846  -21.9627  -44.7739 C.3       0 UNK        -0.2013 
      2 C          16.8011  -22.8785  -44.2948 C.2       0 UNK         0.4866 
      3 O          17.7088  -22.4179  -43.6024 O.2       0 UNK        -0.5176 
      4 N          16.7349  -24.1661  -44.6637 N.am      1 UNK        -0.4884 
      5 CA         17.6893  -25.2303  -44.3146 C.3       1 UNK         0.0853 
      6 C6         17.6957  -25.5978  -42.8048 C.3       10 UNK        -0.0849 
      7 S7         16.0743  -26.2092  -42.2315 S.3       10 UNK        -0.2776 
      8 C8         16.5444  -27.7218  -41.3126 C.3       10 UNK         0.0316 
      9 C9         17.0910  -28.8863  -42.1458 C.ar      10 UNK        -0.0863 
     10 C10        17.7165  -29.9443  -41.4773 C.ar      10 UNK        -0.1009 
     11 C11        18.2104  -31.0482  -42.1793 C.ar      10 UNK        -0.0712 
     12 C12        18.0984  -31.0832  -43.5721 C.ar      10 UNK        -0.0894 
     13 C13        17.4704  -30.0410  -44.2585 C.ar      10 UNK        -0.0745 
     14 C14        16.9562  -28.9567  -43.5389 C.ar      10 UNK        -0.0972 
     15 C15        17.2816  -30.1184  -45.7682 C.3       10 UNK         0.0209 
     16 S16        17.9632  -28.6695  -46.6374 S.3       10 UNK        -0.2568 
     17 C17        19.5849  -29.2579  -47.2641 C.3       10 UNK        -0.0983 
     18 CA         20.7916  -28.3188  -46.9540 C.3       3 UNK         0.0876 
     19 N          20.3886  -26.9133  -47.0170 N.am      3 UNK        -0.4424 
     20 C          21.1483  -25.8166  -47.1112 C.2       2 UNK         0.4918 
     21 O          22.3666  -25.8385  -47.2893 O.2       2 UNK        -0.4875 
     22 CA         20.4173  -24.4693  -46.9345 C.3       2 UNK         0.0481 
     23 CB         20.1162  -23.8374  -48.3022 C.3       2 UNK        -0.1831 
     24 N          19.1679  -24.5933  -46.1680 N.am      2 UNK        -0.4498 
     25 C          19.1019  -24.9507  -44.8747 C.2       1 UNK         0.5027 
     26 O          20.0963  -25.0864  -44.1610 O.2       1 UNK        -0.4969 
     27 C          21.5348  -28.6586  -45.6381 C.2       3 UNK         0.5005 
     28 O          21.0938  -29.5206  -44.8779 O.2       3 UNK        -0.5279 
     29 N          22.6645  -27.9747  -45.4042 N.am      4 UNK        -0.4463 
     30 CA         23.6468  -28.1125  -44.3191 C.3       4 UNK         0.0283 
     31 CB         24.2915  -29.5123  -44.3198 C.3       4 UNK        -0.1875 
     32 C          23.1459  -27.7312  -42.9134 C.2       4 UNK         0.4949 
     33 O          23.8397  -26.9815  -42.2250 O.2       4 UNK        -0.5039 
     34 N          21.9737  -28.2462  -42.5199 N.am      5 UNK        -0.4663 
     35 CA         21.3297  -28.1261  -41.2040 C.3       5 UNK         0.0242 
     36 CB         20.9605  -26.6529  -40.9178 C.3       5 UNK        -0.1982 
     37 C          22.1584  -28.7484  -40.0568 C.2       5 UNK         0.5017 
     38 O          23.1292  -29.4687  -40.3061 O.2       5 UNK        -0.5012 
     39 N          21.7409  -28.4654  -38.8118 N.am      6 UNK        -0.4439 
     40 CA         22.3608  -28.8838  -37.5477 C.3       6 UNK         0.0297 
     41 CB         23.6687  -28.0905  -37.3166 C.3       6 UNK        -0.2006 
     42 C          22.5219  -30.4161  -37.4585 C.2       6 UNK         0.4892 
     43 O          21.5519  -31.1342  -37.7032 O.2       6 UNK        -0.5089 
     44 N          23.7280  -30.8869  -37.1181 N.am      7 UNK        -0.4243 
     45 CA         24.1188  -32.2966  -37.1917 C.3       7 UNK         0.0196 
     46 CB         25.0924  -32.6038  -36.0417 C.3       7 UNK        -0.2007 
     47 C          24.7646  -32.6470  -38.5453 C.2       7 UNK         0.5020 
     48 O          24.8757  -33.8303  -38.8668 O.2       7 UNK        -0.5147 
     49 N          25.1911  -31.6320  -39.3132 N.am      8 UNK        -0.4734 
     50 CA         25.8977  -31.7777  -40.5903 C.3       8 UNK         0.0238 
     51 CB         26.4601  -30.4134  -41.0218 C.3       8 UNK        -0.1912 
     52 C          25.0361  -32.3920  -41.7053 C.2       8 UNK         0.5038 
     53 O          25.5813  -33.0635  -42.5820 O.2       8 UNK        -0.5046 
     54 N          23.7171  -32.1763  -41.6388 N.am      9 UNK        -0.4200 
     55 CA         22.7191  -32.8203  -42.5032 C.3       9 UNK         0.0839 
     56 C          22.4800  -34.3357  -42.2265 C.2       9 UNK         0.5513 
     57 N          23.0409  -34.9275  -41.1771 N.am      9 UNK        -0.7519 
     58 O          21.7795  -34.9920  -42.9928 O.2       9 UNK        -0.4960 
     59 C59        21.4016  -32.0083  -42.5445 C.3       10 UNK        -0.0876 
     60 S60        20.5412  -31.9010  -40.9389 S.3       10 UNK        -0.2414 
     61 C61        18.8211  -32.2217  -41.4252 C.3       10 UNK         0.0169 
     62 H62        16.0953  -21.1556  -45.3799 H         1 UNK         0.0903 
     63 H63        14.9468  -22.4953  -45.3737 H         1 UNK         0.0903 
     64 H64        15.1711  -21.5205  -43.9205 H         1 UNK         0.0903 
     65 H65        15.9491  -24.4673  -45.2241 H         1 UNK         0.3096 
     66 H66        17.3531  -26.1173  -44.8531 H         1 UNK         0.1121 
     67 H67        17.9925  -24.7442  -42.1933 H         1 UNK         0.0849 
     68 H68        18.4332  -26.3792  -42.6173 H         1 UNK         0.0849 
     69 H69        17.2763  -27.4455  -40.5517 H         1 UNK         0.0865 
     70 H70        15.6642  -28.0755  -40.7741 H         1 UNK         0.0865 
     71 H71        17.8068  -29.9201  -40.3995 H         1 UNK         0.1346 
     72 H72        18.4757  -31.9355  -44.1197 H         1 UNK         0.1412 
     73 H73        16.4414  -28.1760  -44.0786 H         1 UNK         0.1426 
     74 H74        16.2118  -30.1681  -45.9748 H         1 UNK         0.0716 
     75 H75        17.7087  -31.0352  -46.1768 H         1 UNK         0.0716 
     76 H76        19.4780  -29.3329  -48.3473 H         1 UNK         0.0695 
     77 H77        19.7749  -30.2806  -46.9340 H         1 UNK         0.0695 
     78 H78        21.5272  -28.4780  -47.7457 H         1 UNK         0.0983 
     79 H79        19.3985  -26.7765  -46.8756 H         1 UNK         0.3095 
     80 H80        21.0849  -23.8007  -46.3873 H         1 UNK         0.0454 
     81 H81        21.0316  -23.7088  -48.8816 H         1 UNK         0.0851 
     82 H82        19.6636  -22.8517  -48.1937 H         1 UNK         0.0851 
     83 H83        19.4405  -24.4554  -48.8949 H         1 UNK         0.0851 
     84 H84        18.3045  -24.4605  -46.6757 H         1 UNK         0.2976 
     85 H85        22.8706  -27.2323  -46.0685 H         1 UNK         0.3116 
     86 H86        24.4364  -27.4000  -44.5637 H         1 UNK         0.0646 
     87 H87        23.5682  -30.2967  -44.1013 H         1 UNK         0.0847 
     88 H88        24.7491  -29.7386  -45.2826 H         1 UNK         0.0847 
     89 H89        25.0759  -29.5786  -43.5661 H         1 UNK         0.0847 
     90 H90        21.4992  -28.8417  -43.1961 H         1 UNK         0.3040 
     91 H91        20.4075  -28.7047  -41.2754 H         1 UNK         0.1015 
     92 H92        20.1976  -26.5734  -40.1431 H         1 UNK         0.0786 
     93 H93        20.5661  -26.1623  -41.8051 H         1 UNK         0.0786 
     94 H94        21.8267  -26.0763  -40.5903 H         1 UNK         0.0786 
     95 H95        20.9046  -27.9078  -38.7153 H         1 UNK         0.3172 
     96 H96        21.6630  -28.6077  -36.7560 H         1 UNK         0.0595 
     97 H97        24.4275  -28.3198  -38.0660 H         1 UNK         0.0839 
     98 H98        24.0919  -28.2923  -36.3318 H         1 UNK         0.0839 
     99 H99        23.4840  -27.0171  -37.3619 H         1 UNK         0.0839 
    100 H100       24.4566  -30.2246  -36.8935 H         1 UNK         0.2998 
    101 H101       23.2398  -32.9341  -37.0728 H         1 UNK         0.0822 
    102 H102       25.3858  -33.6546  -36.0491 H         1 UNK         0.0787 
    103 H103       26.0048  -32.0102  -36.1131 H         1 UNK         0.0787 
    104 H104       24.6359  -32.4036  -35.0721 H         1 UNK         0.0787 
    105 H105       24.9787  -30.6878  -39.0254 H         1 UNK         0.3055 
    106 H106       26.7381  -32.4565  -40.4278 H         1 UNK         0.1106 
    107 H107       27.1591  -30.0209  -40.2832 H         1 UNK         0.0828 
    108 H108       27.0010  -30.4945  -41.9657 H         1 UNK         0.0828 
    109 H109       25.6700  -29.6745  -41.1606 H         1 UNK         0.0828 
    110 H110       23.3594  -31.5680  -40.9114 H         1 UNK         0.2931 
    111 H111       23.1249  -32.7827  -43.5161 H         1 UNK         0.0412 
    112 H112       22.8762  -35.9094  -41.0218 H         1 UNK         0.3472 
    113 H113       23.6283  -34.4097  -40.5360 H         1 UNK         0.3472 
    114 H114       21.6130  -30.9910  -42.8656 H         1 UNK         0.0970 
    115 H115       20.7350  -32.4201  -43.3032 H         1 UNK         0.0970 
    116 H116       18.2366  -32.4156  -40.5246 H         1 UNK         0.0612 
    117 H117       18.7731  -33.1357  -42.0193 H         1 UNK         0.0612 
@<TRIPOS>BOND
     1    1    2 1    
     2    1   62 1    
     3    1   63 1    
     4    1   64 1    
     5    2    3 2    
     6    2    4 am   BACKBONE|DICT|INTERRES
     7    4    5 1    
     8    4   65 1    
     9    5    6 1    
    10    5   25 1    
    11    5   66 1    
    12    6    7 1    
    13    6   67 1    
    14    6   68 1    
    15    7    8 1    
    16    8    9 1    
    17    8   69 1    
    18    8   70 1    
    19    9   10 ar   
    20    9   14 ar   
    21   10   11 ar   
    22   10   71 1    
    23   11   12 ar   
    24   11   61 1    
    25   12   13 ar   
    26   12   72 1    
    27   13   14 ar   
    28   13   15 1    
    29   14   73 1    
    30   15   16 1    
    31   15   74 1    
    32   15   75 1    
    33   16   17 1    
    34   17   18 1    
    35   17   76 1    
    36   17   77 1    
    37   18   19 1    
    38   18   27 1    
    39   18   78 1    
    40   19   20 am   BACKBONE|DICT|INTERRES
    41   19   79 1    
    42   20   21 2    
    43   20   22 1    
    44   22   23 1    
    45   22   24 1    
    46   22   80 1    
    47   23   81 1    
    48   23   82 1    
    49   23   83 1    
    50   24   25 am   BACKBONE|DICT|INTERRES
    51   24   84 1    
    52   25   26 2    
    53   27   28 2    
    54   27   29 am   BACKBONE|DICT|INTERRES
    55   29   30 1    
    56   29   85 1    
    57   30   31 1    
    58   30   32 1    
    59   30   86 1    
    60   31   87 1    
    61   31   88 1    
    62   31   89 1    
    63   32   33 2    
    64   32   34 am   BACKBONE|DICT|INTERRES
    65   34   35 1    
    66   34   90 1    
    67   35   36 1    
    68   35   37 1    
    69   35   91 1    
    70   36   92 1    
    71   36   93 1    
    72   36   94 1    
    73   37   38 2    
    74   37   39 am   BACKBONE|DICT|INTERRES
    75   39   40 1    
    76   39   95 1    
    77   40   41 1    
    78   40   42 1    
    79   40   96 1    
    80   41   97 1    
    81   41   98 1    
    82   41   99 1    
    83   42   43 2    
    84   42   44 am   BACKBONE|DICT|INTERRES
    85   44   45 1    
    86   44  100 1    
    87   45   46 1    
    88   45   47 1    
    89   45  101 1    
    90   46  102 1    
    91   46  103 1    
    92   46  104 1    
    93   47   48 2    
    94   47   49 am   BACKBONE|DICT|INTERRES
    95   49   50 1    
    96   49  105 1    
    97   50   51 1    
    98   50   52 1    
    99   50  106 1    
   100   51  107 1    
   101   51  108 1    
   102   51  109 1    
   103   52   53 2    
   104   52   54 am   BACKBONE|DICT|INTERRES
   105   54   55 1    
   106   54  110 1    
   107   55   56 1    
   108   55   59 1    
   109   55  111 1    
   110   56   57 am   BACKBONE|DICT|INTERRES
   111   56   58 2    
   112   57  112 1    
   113   57  113 1    
   114   59   60 1    
   115   59  114 1    
   116   59  115 1    
   117   60   61 1    
   118   61  116 1    
   119   61  117 1    
@<TRIPOS>SUBSTRUCTURE
     1 UNK         1 GROUP             0       ****    0 ROOT    
