@<TRIPOS>MOLECULE
3R8
117   119    1
SMALL
USER_CHARGES


@<TRIPOS>ATOM
      1 CA         16.9036  -24.5001  -45.8635 C.3       0 UNK        -0.2013 
      2 C          18.1378  -25.2571  -46.3308 C.2       0 UNK         0.4866 
      3 O          18.8744  -24.7587  -47.1820 O.2       0 UNK        -0.5176 
      4 N          18.3629  -26.4568  -45.7810 N.am      1 UNK        -0.4884 
      5 CA         19.5101  -27.3188  -46.0904 C.3       1 UNK         0.0853 
      6 C6         19.3238  -28.7905  -45.6411 C.3       10 UNK        -0.0849 
      7 S7         17.8236  -29.5827  -46.3140 S.3       10 UNK        -0.2776 
      8 C8         16.6858  -29.5470  -44.8918 C.3       10 UNK         0.0316 
      9 C9         17.0644  -30.5483  -43.8083 C.ar      10 UNK        -0.0863 
     10 C10        16.6486  -31.8787  -43.9015 C.ar      10 UNK        -0.1009 
     11 C11        16.9363  -32.7877  -42.8780 C.ar      10 UNK        -0.0712 
     12 C12        17.6471  -32.3572  -41.7519 C.ar      10 UNK        -0.0894 
     13 C13        18.0750  -31.0294  -41.6501 C.ar      10 UNK        -0.0745 
     14 C14        17.7847  -30.1351  -42.6853 C.ar      10 UNK        -0.0972 
     15 C15        18.8632  -30.5530  -40.4367 C.3       10 UNK         0.0209 
     16 S16        18.0525  -29.1363  -39.6294 S.3       10 UNK        -0.2568 
     17 C17        19.4412  -28.3119  -38.7761 C.3       10 UNK        -0.0983 
     18 CA         20.5844  -27.7941  -39.6955 C.3       3 UNK         0.0876 
     19 N          20.0991  -27.2212  -40.9593 N.am      3 UNK        -0.4424 
     20 C          20.8726  -26.8318  -41.9824 C.2       2 UNK         0.4918 
     21 O          22.1073  -26.8467  -41.9564 O.2       2 UNK        -0.4875 
     22 CA         20.1326  -26.2767  -43.2077 C.3       2 UNK         0.0481 
     23 CB         19.6805  -24.8336  -42.9211 C.3       2 UNK        -0.1831 
     24 N          21.0354  -26.2692  -44.3590 N.am      2 UNK        -0.4498 
     25 C          20.8672  -26.7460  -45.6054 C.2       1 UNK         0.5027 
     26 O          21.7968  -26.7189  -46.4111 O.2       1 UNK        -0.4969 
     27 C          21.4946  -26.8247  -38.9141 C.2       3 UNK         0.5005 
     28 O          22.4757  -27.2632  -38.3141 O.2       3 UNK        -0.5279 
     29 N          21.1867  -25.5199  -38.9802 N.am      4 UNK        -0.4463 
     30 CA         21.9639  -24.4334  -38.3722 C.3       4 UNK         0.0283 
     31 CB         21.1822  -23.1167  -38.5067 C.3       4 UNK        -0.1875 
     32 C          23.3807  -24.2756  -38.9567 C.2       4 UNK         0.4949 
     33 O          24.2665  -23.7808  -38.2602 O.2       4 UNK        -0.5039 
     34 N          23.5745  -24.7150  -40.2075 N.am      5 UNK        -0.4663 
     35 CA         24.8697  -24.7632  -40.8896 C.3       5 UNK         0.0242 
     36 CB         24.6500  -24.4240  -42.3752 C.3       5 UNK        -0.1982 
     37 C          25.5580  -26.1343  -40.7407 C.2       5 UNK         0.5017 
     38 O          26.6272  -26.3254  -41.3207 O.2       5 UNK        -0.5012 
     39 N          24.9284  -27.0692  -40.0078 N.am      6 UNK        -0.4439 
     40 CA         25.2944  -28.4828  -39.8473 C.3       6 UNK         0.0297 
     41 CB         26.6490  -28.6316  -39.1225 C.3       6 UNK        -0.2006 
     42 C          25.2285  -29.2852  -41.1637 C.2       6 UNK         0.4892 
     43 O          25.8891  -30.3186  -41.2816 O.2       6 UNK        -0.5089 
     44 N          24.4230  -28.8115  -42.1229 N.am      7 UNK        -0.4243 
     45 CA         24.2322  -29.4103  -43.4390 C.3       7 UNK         0.0196 
     46 CB         24.3593  -28.3060  -44.5039 C.3       7 UNK        -0.2007 
     47 C          22.8678  -30.1079  -43.4618 C.2       7 UNK         0.5020 
     48 O          21.9411  -29.6395  -44.1198 O.2       7 UNK        -0.5147 
     49 N          22.7537  -31.1989  -42.6977 N.am      8 UNK        -0.4734 
     50 CA         21.5517  -32.0314  -42.6334 C.3       8 UNK         0.0238 
     51 CB         21.5770  -32.8352  -41.3213 C.3       8 UNK        -0.1912 
     52 C          21.4233  -32.9661  -43.8483 C.2       8 UNK         0.5038 
     53 O          22.3931  -33.1664  -44.5850 O.2       8 UNK        -0.5046 
     54 N          20.2250  -33.5397  -44.0077 N.am      9 UNK        -0.4200 
     55 CA         19.8909  -34.5787  -44.9920 C.3       9 UNK         0.0839 
     56 C          20.7731  -35.8579  -44.8899 C.2       9 UNK         0.5513 
     57 N          20.9674  -36.5613  -45.9975 N.am      9 UNK        -0.7519 
     58 O          21.2493  -36.2365  -43.8212 O.2       9 UNK        -0.4960 
     59 C59        18.3775  -34.9266  -44.9459 C.3       10 UNK        -0.0876 
     60 S60        17.7833  -35.4142  -43.2832 S.3       10 UNK        -0.2414 
     61 C61        16.4406  -34.2242  -42.9740 C.3       10 UNK         0.0169 
     62 H62        16.2249  -24.3371  -46.7002 H         1 UNK         0.0903 
     63 H63        16.3616  -25.0399  -45.0872 H         1 UNK         0.0903 
     64 H64        17.1892  -23.5279  -45.4625 H         1 UNK         0.0903 
     65 H65        17.7128  -26.8178  -45.1008 H         1 UNK         0.3096 
     66 H66        19.5763  -27.3436  -47.1809 H         1 UNK         0.1121 
     67 H67        20.1671  -29.3857  -45.9958 H         1 UNK         0.0849 
     68 H68        19.3445  -28.8803  -44.5572 H         1 UNK         0.0849 
     69 H69        15.6789  -29.7685  -45.2493 H         1 UNK         0.0865 
     70 H70        16.6373  -28.5383  -44.4806 H         1 UNK         0.0865 
     71 H71        16.0844  -32.2008  -44.7663 H         1 UNK         0.1346 
     72 H72        17.8605  -33.0577  -40.9556 H         1 UNK         0.1412 
     73 H73        18.1021  -29.1059  -42.5999 H         1 UNK         0.1426 
     74 H74        19.8602  -30.2712  -40.7692 H         1 UNK         0.0716 
     75 H75        18.9911  -31.3536  -39.7066 H         1 UNK         0.0716 
     76 H76        19.0003  -27.4862  -38.2133 H         1 UNK         0.0695 
     77 H77        19.8439  -28.9990  -38.0294 H         1 UNK         0.0695 
     78 H78        21.2155  -28.6439  -39.9632 H         1 UNK         0.0983 
     79 H79        19.0945  -27.1652  -41.0478 H         1 UNK         0.3095 
     80 H80        19.2643  -26.9083  -43.3853 H         1 UNK         0.0454 
     81 H81        20.5197  -24.1973  -42.6359 H         1 UNK         0.0851 
     82 H82        19.2097  -24.3773  -43.7899 H         1 UNK         0.0851 
     83 H83        18.9536  -24.7984  -42.1088 H         1 UNK         0.0851 
     84 H84        21.9696  -25.9755  -44.1128 H         1 UNK         0.2976 
     85 H85        20.3602  -25.2530  -39.4953 H         1 UNK         0.3116 
     86 H86        22.0739  -24.6593  -37.3094 H         1 UNK         0.0646 
     87 H87        21.7226  -22.2928  -38.0382 H         1 UNK         0.0847 
     88 H88        20.2089  -23.1793  -38.0197 H         1 UNK         0.0847 
     89 H89        21.0206  -22.8464  -39.5511 H         1 UNK         0.0847 
     90 H90        22.7991  -25.1395  -40.7006 H         1 UNK         0.3040 
     91 H91        25.5431  -24.0155  -40.4645 H         1 UNK         0.1015 
     92 H92        24.1637  -23.4556  -42.4938 H         1 UNK         0.0786 
     93 H93        24.0352  -25.1727  -42.8754 H         1 UNK         0.0786 
     94 H94        25.5993  -24.3745  -42.9105 H         1 UNK         0.0786 
     95 H95        24.0650  -26.8054  -39.5448 H         1 UNK         0.3172 
     96 H96        24.5307  -28.9155  -39.1999 H         1 UNK         0.0595 
     97 H97        26.6686  -28.0582  -38.1958 H         1 UNK         0.0839 
     98 H98        27.4812  -28.2977  -39.7428 H         1 UNK         0.0839 
     99 H99        26.8399  -29.6731  -38.8607 H         1 UNK         0.0839 
    100 H100       23.8467  -28.0006  -41.9239 H         1 UNK         0.2998 
    101 H101       24.9958  -30.1637  -43.6440 H         1 UNK         0.0822 
    102 H102       25.3603  -27.8745  -44.5064 H         1 UNK         0.0787 
    103 H103       24.1698  -28.6999  -45.5033 H         1 UNK         0.0787 
    104 H104       23.6502  -27.4970  -44.3313 H         1 UNK         0.0787 
    105 H105       23.5705  -31.5310  -42.2041 H         1 UNK         0.3055 
    106 H106       20.6803  -31.3754  -42.6377 H         1 UNK         0.1106 
    107 H107       20.6655  -33.4214  -41.1976 H         1 UNK         0.0828 
    108 H108       22.4158  -33.5320  -41.2933 H         1 UNK         0.0828 
    109 H109       21.6570  -32.1800  -40.4538 H         1 UNK         0.0828 
    110 H110       19.4908  -33.3334  -43.3459 H         1 UNK         0.2931 
    111 H111       20.0922  -34.1360  -45.9696 H         1 UNK         0.0412 
    112 H112       20.5775  -36.2664  -46.8796 H         1 UNK         0.3472 
    113 H113       21.5241  -37.4009  -45.9529 H         1 UNK         0.3472 
    114 H114       17.8033  -34.0713  -45.3024 H         1 UNK         0.0970 
    115 H115       18.1447  -35.7320  -45.6451 H         1 UNK         0.0970 
    116 H116       15.6882  -34.3254  -43.7579 H         1 UNK         0.0612 
    117 H117       15.9441  -34.4933  -42.0407 H         1 UNK         0.0612 
@<TRIPOS>BOND
     1    1    2 1    
     2    1   62 1    
     3    1   63 1    
     4    1   64 1    
     5    2    3 2    
     6    2    4 am   BACKBONE|DICT|INTERRES
     7    4    5 1    
     8    4   65 1    
     9    5    6 1    
    10    5   25 1    
    11    5   66 1    
    12    6    7 1    
    13    6   67 1    
    14    6   68 1    
    15    7    8 1    
    16    8    9 1    
    17    8   69 1    
    18    8   70 1    
    19    9   10 ar   
    20    9   14 ar   
    21   10   11 ar   
    22   10   71 1    
    23   11   12 ar   
    24   11   61 1    
    25   12   13 ar   
    26   12   72 1    
    27   13   14 ar   
    28   13   15 1    
    29   14   73 1    
    30   15   16 1    
    31   15   74 1    
    32   15   75 1    
    33   16   17 1    
    34   17   18 1    
    35   17   76 1    
    36   17   77 1    
    37   18   19 1    
    38   18   27 1    
    39   18   78 1    
    40   19   20 am   BACKBONE|DICT|INTERRES
    41   19   79 1    
    42   20   21 2    
    43   20   22 1    
    44   22   23 1    
    45   22   24 1    
    46   22   80 1    
    47   23   81 1    
    48   23   82 1    
    49   23   83 1    
    50   24   25 am   BACKBONE|DICT|INTERRES
    51   24   84 1    
    52   25   26 2    
    53   27   28 2    
    54   27   29 am   BACKBONE|DICT|INTERRES
    55   29   30 1    
    56   29   85 1    
    57   30   31 1    
    58   30   32 1    
    59   30   86 1    
    60   31   87 1    
    61   31   88 1    
    62   31   89 1    
    63   32   33 2    
    64   32   34 am   BACKBONE|DICT|INTERRES
    65   34   35 1    
    66   34   90 1    
    67   35   36 1    
    68   35   37 1    
    69   35   91 1    
    70   36   92 1    
    71   36   93 1    
    72   36   94 1    
    73   37   38 2    
    74   37   39 am   BACKBONE|DICT|INTERRES
    75   39   40 1    
    76   39   95 1    
    77   40   41 1    
    78   40   42 1    
    79   40   96 1    
    80   41   97 1    
    81   41   98 1    
    82   41   99 1    
    83   42   43 2    
    84   42   44 am   BACKBONE|DICT|INTERRES
    85   44   45 1    
    86   44  100 1    
    87   45   46 1    
    88   45   47 1    
    89   45  101 1    
    90   46  102 1    
    91   46  103 1    
    92   46  104 1    
    93   47   48 2    
    94   47   49 am   BACKBONE|DICT|INTERRES
    95   49   50 1    
    96   49  105 1    
    97   50   51 1    
    98   50   52 1    
    99   50  106 1    
   100   51  107 1    
   101   51  108 1    
   102   51  109 1    
   103   52   53 2    
   104   52   54 am   BACKBONE|DICT|INTERRES
   105   54   55 1    
   106   54  110 1    
   107   55   56 1    
   108   55   59 1    
   109   55  111 1    
   110   56   57 am   BACKBONE|DICT|INTERRES
   111   56   58 2    
   112   57  112 1    
   113   57  113 1    
   114   59   60 1    
   115   59  114 1    
   116   59  115 1    
   117   60   61 1    
   118   61  116 1    
   119   61  117 1    
@<TRIPOS>SUBSTRUCTURE
     1 UNK         1 GROUP             0       ****    0 ROOT    
