@<TRIPOS>MOLECULE
3R8
117   119    1
SMALL
USER_CHARGES


@<TRIPOS>ATOM
      1 CA         15.3945  -27.4452  -47.6736 C.3       0 UNK        -0.2013 
      2 C          16.5735  -27.2494  -46.7328 C.2       0 UNK         0.4866 
      3 O          17.6983  -27.6084  -47.0773 O.2       0 UNK        -0.5176 
      4 N          16.3304  -26.6625  -45.5539 N.am      1 UNK        -0.4884 
      5 CA         17.3228  -26.4403  -44.4913 C.3       1 UNK         0.0853 
      6 C6         16.6548  -26.3566  -43.0930 C.3       10 UNK        -0.0849 
      7 S7         15.9165  -27.9400  -42.5675 S.3       10 UNK        -0.2776 
      8 C8         17.1423  -28.5326  -41.3519 C.3       10 UNK         0.0316 
      9 C9         18.3144  -29.2348  -42.0242 C.ar      10 UNK        -0.0863 
     10 C10        18.2950  -30.6238  -42.1792 C.ar      10 UNK        -0.1009 
     11 C11        19.3651  -31.2947  -42.7855 C.ar      10 UNK        -0.0712 
     12 C12        20.4398  -30.5465  -43.2774 C.ar      10 UNK        -0.0894 
     13 C13        20.4646  -29.1552  -43.1446 C.ar      10 UNK        -0.0745 
     14 C14        19.4128  -28.5066  -42.4911 C.ar      10 UNK        -0.0972 
     15 C15        21.6138  -28.3514  -43.7318 C.3       10 UNK         0.0209 
     16 S16        21.2035  -27.8268  -45.4193 S.3       10 UNK        -0.2568 
     17 C17        22.6365  -26.7813  -45.8678 C.3       10 UNK        -0.0983 
     18 CA         22.4004  -25.2547  -45.6917 C.3       3 UNK         0.0876 
     19 N          21.0469  -24.8660  -46.0976 N.am      3 UNK        -0.4424 
     20 C          20.5607  -23.6234  -46.1986 C.2       2 UNK         0.4918 
     21 O          21.2523  -22.6082  -46.1209 O.2       2 UNK        -0.4875 
     22 CA         19.0337  -23.4888  -46.3832 C.3       2 UNK         0.0481 
     23 CB         18.7007  -23.1674  -47.8487 C.3       2 UNK        -0.1831 
     24 N          18.2431  -24.6558  -45.9576 N.am      2 UNK        -0.4498 
     25 C          18.2446  -25.2225  -44.7400 C.2       1 UNK         0.5027 
     26 O          18.9653  -24.8271  -43.8227 O.2       1 UNK        -0.4969 
     27 C          22.7787  -24.7853  -44.2676 C.2       3 UNK         0.5005 
     28 O          23.9618  -24.5466  -44.0214 O.2       3 UNK        -0.5279 
     29 N          21.7895  -24.6574  -43.3663 N.am      4 UNK        -0.4463 
     30 CA         21.8286  -24.1264  -41.9929 C.3       4 UNK         0.0283 
     31 CB         22.2020  -22.6322  -42.0020 C.3       4 UNK        -0.1875 
     32 C          22.6967  -24.8902  -40.9720 C.2       4 UNK         0.4949 
     33 O          22.2951  -25.0067  -39.8150 O.2       4 UNK        -0.5039 
     34 N          23.8625  -25.3882  -41.3946 N.am      5 UNK        -0.4663 
     35 CA         24.8911  -26.0181  -40.5581 C.3       5 UNK         0.0242 
     36 CB         26.2363  -25.9174  -41.2987 C.3       5 UNK        -0.1982 
     37 C          24.5994  -27.4781  -40.1556 C.2       5 UNK         0.5017 
     38 O          25.4307  -28.0793  -39.4732 O.2       5 UNK        -0.5012 
     39 N          23.4522  -28.0198  -40.5898 N.am      6 UNK        -0.4439 
     40 CA         23.0166  -29.4190  -40.4819 C.3       6 UNK         0.0297 
     41 CB         22.9454  -29.8816  -39.0090 C.3       6 UNK        -0.2006 
     42 C          23.8524  -30.3640  -41.3717 C.2       6 UNK         0.4892 
     43 O          24.6683  -29.9065  -42.1757 O.2       6 UNK        -0.5089 
     44 N          23.5984  -31.6694  -41.2434 N.am      7 UNK        -0.4243 
     45 CA         24.2652  -32.7452  -41.9736 C.3       7 UNK         0.0196 
     46 CB         23.7830  -32.7981  -43.4430 C.3       7 UNK        -0.2007 
     47 C          24.0330  -34.0366  -41.1782 C.2       7 UNK         0.5020 
     48 O          24.3858  -34.0812  -39.9995 O.2       7 UNK        -0.5147 
     49 N          23.4098  -35.0464  -41.8015 N.am      8 UNK        -0.4734 
     50 CA         22.9653  -36.2817  -41.1430 C.3       8 UNK         0.0238 
     51 CB         22.5879  -37.3180  -42.2143 C.3       8 UNK        -0.1912 
     52 C          21.7908  -36.0621  -40.1684 C.2       8 UNK         0.5038 
     53 O          21.6079  -36.8678  -39.2551 O.2       8 UNK        -0.5046 
     54 N          21.0246  -34.9845  -40.3851 N.am      9 UNK        -0.4200 
     55 CA         19.9412  -34.5065  -39.5175 C.3       9 UNK         0.0839 
     56 C          20.4582  -34.0996  -38.1115 C.2       9 UNK         0.5513 
     57 N          19.7808  -34.5185  -37.0517 N.am      9 UNK        -0.7519 
     58 O          21.4360  -33.3665  -37.9828 O.2       9 UNK        -0.4960 
     59 C59        19.1858  -33.3192  -40.1672 C.3       10 UNK        -0.0876 
     60 S60        18.3896  -33.7603  -41.7501 S.3       10 UNK        -0.2414 
     61 C61        19.3823  -32.8153  -42.9603 C.3       10 UNK         0.0169 
     62 H62        15.2627  -28.5045  -47.8921 H         1 UNK         0.0903 
     63 H63        14.4646  -27.0692  -47.2472 H         1 UNK         0.0903 
     64 H64        15.5726  -26.9232  -48.6134 H         1 UNK         0.0903 
     65 H65        15.3862  -26.3813  -45.3284 H         1 UNK         0.3096 
     66 H66        17.9922  -27.3028  -44.4890 H         1 UNK         0.1121 
     67 H67        17.3629  -26.0427  -42.3245 H         1 UNK         0.0849 
     68 H68        15.8735  -25.5946  -43.0929 H         1 UNK         0.0849 
     69 H69        17.4959  -27.7092  -40.7296 H         1 UNK         0.0865 
     70 H70        16.6436  -29.2223  -40.6690 H         1 UNK         0.0865 
     71 H71        17.4385  -31.1787  -41.8235 H         1 UNK         0.1346 
     72 H72        21.2556  -31.0450  -43.7820 H         1 UNK         0.1412 
     73 H73        19.4335  -27.4311  -42.3794 H         1 UNK         0.1426 
     74 H74        22.5291  -28.9445  -43.7509 H         1 UNK         0.0716 
     75 H75        21.8161  -27.4788  -43.1116 H         1 UNK         0.0716 
     76 H76        22.8423  -26.9797  -46.9207 H         1 UNK         0.0695 
     77 H77        23.5286  -27.1210  -45.3368 H         1 UNK         0.0695 
     78 H78        23.0875  -24.7353  -46.3634 H         1 UNK         0.0983 
     79 H79        20.3990  -25.6354  -46.1950 H         1 UNK         0.3095 
     80 H80        18.7135  -22.6453  -45.7687 H         1 UNK         0.0454 
     81 H81        18.9632  -23.9925  -48.5120 H         1 UNK         0.0851 
     82 H82        19.2479  -22.2878  -48.1909 H         1 UNK         0.0851 
     83 H83        17.6395  -22.9548  -47.9788 H         1 UNK         0.0851 
     84 H84        17.6411  -25.0709  -46.6544 H         1 UNK         0.2976 
     85 H85        20.8469  -24.8729  -43.6845 H         1 UNK         0.3116 
     86 H86        20.8012  -24.2003  -41.6324 H         1 UNK         0.0646 
     87 H87        22.1380  -22.2070  -40.9995 H         1 UNK         0.0847 
     88 H88        21.5283  -22.0602  -42.6401 H         1 UNK         0.0847 
     89 H89        23.2196  -22.4695  -42.3588 H         1 UNK         0.0847 
     90 H90        24.1069  -25.2060  -42.3676 H         1 UNK         0.3040 
     91 H91        24.9708  -25.4484  -39.6295 H         1 UNK         0.1015 
     92 H92        26.4832  -24.8821  -41.5353 H         1 UNK         0.0786 
     93 H93        26.2218  -26.4809  -42.2327 H         1 UNK         0.0786 
     94 H94        27.0529  -26.3113  -40.6921 H         1 UNK         0.0786 
     95 H95        22.8617  -27.4174  -41.1424 H         1 UNK         0.3172 
     96 H96        22.0001  -29.4424  -40.8727 H         1 UNK         0.0595 
     97 H97        23.9356  -30.0576  -38.5875 H         1 UNK         0.0839 
     98 H98        22.3823  -30.8100  -38.9091 H         1 UNK         0.0839 
     99 H99        22.4444  -29.1411  -38.3854 H         1 UNK         0.0839 
    100 H100       22.9672  -31.9731  -40.5140 H         1 UNK         0.2998 
    101 H101       25.3412  -32.5585  -41.9657 H         1 UNK         0.0822 
    102 H102       22.7107  -32.9740  -43.5188 H         1 UNK         0.0787 
    103 H103       23.9975  -31.8647  -43.9637 H         1 UNK         0.0787 
    104 H104       24.2939  -33.5863  -43.9977 H         1 UNK         0.0787 
    105 H105       23.1762  -34.9397  -42.7786 H         1 UNK         0.3055 
    106 H106       23.7996  -36.6774  -40.5589 H         1 UNK         0.1106 
    107 H107       21.7608  -36.9747  -42.8371 H         1 UNK         0.0828 
    108 H108       23.4321  -37.5405  -42.8672 H         1 UNK         0.0828 
    109 H109       22.2803  -38.2587  -41.7552 H         1 UNK         0.0828 
    110 H110       21.2558  -34.3943  -41.1671 H         1 UNK         0.2931 
    111 H111       19.2374  -35.3333  -39.4001 H         1 UNK         0.0412 
    112 H112       20.0930  -34.2477  -36.1320 H         1 UNK         0.3472 
    113 H113       18.9717  -35.1124  -37.1512 H         1 UNK         0.3472 
    114 H114       18.3967  -32.9655  -39.5007 H         1 UNK         0.0970 
    115 H115       19.8563  -32.4693  -40.3083 H         1 UNK         0.0970 
    116 H116       20.4076  -33.1823  -42.9135 H         1 UNK         0.0612 
    117 H117       19.0160  -33.0491  -43.9606 H         1 UNK         0.0612 
@<TRIPOS>BOND
     1    1    2 1    
     2    1   62 1    
     3    1   63 1    
     4    1   64 1    
     5    2    3 2    
     6    2    4 am   BACKBONE|DICT|INTERRES
     7    4    5 1    
     8    4   65 1    
     9    5    6 1    
    10    5   25 1    
    11    5   66 1    
    12    6    7 1    
    13    6   67 1    
    14    6   68 1    
    15    7    8 1    
    16    8    9 1    
    17    8   69 1    
    18    8   70 1    
    19    9   10 ar   
    20    9   14 ar   
    21   10   11 ar   
    22   10   71 1    
    23   11   12 ar   
    24   11   61 1    
    25   12   13 ar   
    26   12   72 1    
    27   13   14 ar   
    28   13   15 1    
    29   14   73 1    
    30   15   16 1    
    31   15   74 1    
    32   15   75 1    
    33   16   17 1    
    34   17   18 1    
    35   17   76 1    
    36   17   77 1    
    37   18   19 1    
    38   18   27 1    
    39   18   78 1    
    40   19   20 am   BACKBONE|DICT|INTERRES
    41   19   79 1    
    42   20   21 2    
    43   20   22 1    
    44   22   23 1    
    45   22   24 1    
    46   22   80 1    
    47   23   81 1    
    48   23   82 1    
    49   23   83 1    
    50   24   25 am   BACKBONE|DICT|INTERRES
    51   24   84 1    
    52   25   26 2    
    53   27   28 2    
    54   27   29 am   BACKBONE|DICT|INTERRES
    55   29   30 1    
    56   29   85 1    
    57   30   31 1    
    58   30   32 1    
    59   30   86 1    
    60   31   87 1    
    61   31   88 1    
    62   31   89 1    
    63   32   33 2    
    64   32   34 am   BACKBONE|DICT|INTERRES
    65   34   35 1    
    66   34   90 1    
    67   35   36 1    
    68   35   37 1    
    69   35   91 1    
    70   36   92 1    
    71   36   93 1    
    72   36   94 1    
    73   37   38 2    
    74   37   39 am   BACKBONE|DICT|INTERRES
    75   39   40 1    
    76   39   95 1    
    77   40   41 1    
    78   40   42 1    
    79   40   96 1    
    80   41   97 1    
    81   41   98 1    
    82   41   99 1    
    83   42   43 2    
    84   42   44 am   BACKBONE|DICT|INTERRES
    85   44   45 1    
    86   44  100 1    
    87   45   46 1    
    88   45   47 1    
    89   45  101 1    
    90   46  102 1    
    91   46  103 1    
    92   46  104 1    
    93   47   48 2    
    94   47   49 am   BACKBONE|DICT|INTERRES
    95   49   50 1    
    96   49  105 1    
    97   50   51 1    
    98   50   52 1    
    99   50  106 1    
   100   51  107 1    
   101   51  108 1    
   102   51  109 1    
   103   52   53 2    
   104   52   54 am   BACKBONE|DICT|INTERRES
   105   54   55 1    
   106   54  110 1    
   107   55   56 1    
   108   55   59 1    
   109   55  111 1    
   110   56   57 am   BACKBONE|DICT|INTERRES
   111   56   58 2    
   112   57  112 1    
   113   57  113 1    
   114   59   60 1    
   115   59  114 1    
   116   59  115 1    
   117   60   61 1    
   118   61  116 1    
   119   61  117 1    
@<TRIPOS>SUBSTRUCTURE
     1 UNK         1 GROUP             0       ****    0 ROOT    
