@<TRIPOS>MOLECULE
3R8
117   119    1
SMALL
USER_CHARGES


@<TRIPOS>ATOM
      1 CA         14.8729  -23.6368  -42.9227 C.3       0 UNK        -0.2013 
      2 C          15.5562  -24.0145  -44.2283 C.2       0 UNK         0.4866 
      3 O          15.6289  -23.1930  -45.1422 O.2       0 UNK        -0.5176 
      4 N          16.0611  -25.2518  -44.3234 N.am      1 UNK        -0.4884 
      5 CA         16.7213  -25.7964  -45.5193 C.3       1 UNK         0.0853 
      6 C6         16.7837  -27.3429  -45.4933 C.3       10 UNK        -0.0849 
      7 S7         15.1735  -28.1677  -45.2418 S.3       10 UNK        -0.2776 
      8 C8         15.3940  -29.7151  -46.1868 C.3       10 UNK         0.0316 
      9 C9         16.6275  -30.4886  -45.7372 C.ar      10 UNK        -0.0863 
     10 C10        16.5769  -31.3312  -44.6224 C.ar      10 UNK        -0.1009 
     11 C11        17.7193  -32.0122  -44.1844 C.ar      10 UNK        -0.0712 
     12 C12        18.9260  -31.8265  -44.8756 C.ar      10 UNK        -0.0894 
     13 C13        18.9892  -30.9796  -45.9858 C.ar      10 UNK        -0.0745 
     14 C14        17.8312  -30.3415  -46.4298 C.ar      10 UNK        -0.0972 
     15 C15        20.3134  -30.7138  -46.6873 C.3       10 UNK         0.0209 
     16 S16        20.8719  -28.9967  -46.4255 S.3       10 UNK        -0.2568 
     17 C17        21.0525  -28.9743  -44.6134 C.3       10 UNK        -0.0983 
     18 CA         21.6572  -27.6532  -44.0811 C.3       3 UNK         0.0876 
     19 N          20.7886  -26.5015  -44.3611 N.am      3 UNK        -0.4424 
     20 C          21.1984  -25.2288  -44.4526 C.2       2 UNK         0.4918 
     21 O          22.3809  -24.8944  -44.3794 O.2       2 UNK        -0.4875 
     22 CA         20.1157  -24.1349  -44.5787 C.3       2 UNK         0.0481 
     23 CB         20.4445  -23.1134  -45.6876 C.3       2 UNK        -0.1831 
     24 N          18.7389  -24.6460  -44.6851 N.am      2 UNK        -0.4498 
     25 C          18.1485  -25.2409  -45.7351 C.2       1 UNK         0.5027 
     26 O          18.6955  -25.4091  -46.8247 O.2       1 UNK        -0.4969 
     27 C          21.9670  -27.7991  -42.5742 C.2       3 UNK         0.5005 
     28 O          22.8228  -28.6135  -42.2228 O.2       3 UNK        -0.5279 
     29 N          21.2596  -27.0425  -41.7185 N.am      4 UNK        -0.4463 
     30 CA         21.3303  -27.0581  -40.2551 C.3       4 UNK         0.0283 
     31 CB         20.4337  -25.9415  -39.6940 C.3       4 UNK        -0.1875 
     32 C          22.7674  -26.9301  -39.7222 C.2       4 UNK         0.4949 
     33 O          23.3779  -25.8709  -39.8719 O.2       4 UNK        -0.5039 
     34 N          23.2774  -28.0306  -39.1541 N.am      5 UNK        -0.4663 
     35 CA         24.6307  -28.2354  -38.6186 C.3       5 UNK         0.0242 
     36 CB         24.9318  -27.2526  -37.4672 C.3       5 UNK        -0.1982 
     37 C          25.7596  -28.2562  -39.6719 C.2       5 UNK         0.5017 
     38 O          26.9187  -28.4279  -39.2903 O.2       5 UNK        -0.5012 
     39 N          25.4252  -28.1197  -40.9624 N.am      6 UNK        -0.4439 
     40 CA         26.3308  -28.3702  -42.0859 C.3       6 UNK         0.0297 
     41 CB         25.9564  -27.4693  -43.2745 C.3       6 UNK        -0.2006 
     42 C          26.2681  -29.8557  -42.4717 C.2       6 UNK         0.4892 
     43 O          27.3103  -30.4819  -42.6679 O.2       6 UNK        -0.5089 
     44 N          25.0428  -30.3927  -42.5221 N.am      7 UNK        -0.4243 
     45 CA         24.7401  -31.8202  -42.5568 C.3       7 UNK         0.0196 
     46 CB         23.4810  -32.0203  -43.4236 C.3       7 UNK        -0.2007 
     47 C          24.5181  -32.3307  -41.1200 C.2       7 UNK         0.5020 
     48 O          24.6939  -31.5839  -40.1543 O.2       7 UNK        -0.5147 
     49 N          24.0915  -33.5948  -40.9955 N.am      8 UNK        -0.4734 
     50 CA         23.6348  -34.1838  -39.7282 C.3       8 UNK         0.0238 
     51 CB         23.5082  -35.7071  -39.8950 C.3       8 UNK        -0.1912 
     52 C          22.3056  -33.5831  -39.2235 C.2       8 UNK         0.5038 
     53 O          22.0151  -33.6750  -38.0300 O.2       8 UNK        -0.5046 
     54 N          21.5304  -32.9936  -40.1425 N.am      9 UNK        -0.4200 
     55 CA         20.2861  -32.2554  -39.8930 C.3       9 UNK         0.0839 
     56 C          20.5064  -30.9744  -39.0418 C.2       9 UNK         0.5513 
     57 N          19.4907  -30.5408  -38.3085 N.am      9 UNK        -0.7519 
     58 O          21.5647  -30.3495  -39.0692 O.2       9 UNK        -0.4960 
     59 C59        19.5690  -31.9170  -41.2275 C.3       10 UNK        -0.0876 
     60 S60        19.1560  -33.4257  -42.1706 S.3       10 UNK        -0.2414 
     61 C61        17.5898  -32.9556  -42.9854 C.3       10 UNK         0.0169 
     62 H62        15.3754  -22.7829  -42.4691 H         1 UNK         0.0903 
     63 H63        13.8351  -23.3618  -43.1090 H         1 UNK         0.0903 
     64 H64        14.8820  -24.4567  -42.2047 H         1 UNK         0.0903 
     65 H65        15.9412  -25.9008  -43.5576 H         1 UNK         0.3096 
     66 H66        16.1342  -25.4982  -46.3913 H         1 UNK         0.1121 
     67 H67        17.4625  -27.6967  -44.7144 H         1 UNK         0.0849 
     68 H68        17.1982  -27.6873  -46.4411 H         1 UNK         0.0849 
     69 H69        14.5048  -30.3357  -46.0659 H         1 UNK         0.0865 
     70 H70        15.4567  -29.4814  -47.2509 H         1 UNK         0.0865 
     71 H71        15.6423  -31.4538  -44.0916 H         1 UNK         0.1346 
     72 H72        19.8255  -32.3311  -44.5544 H         1 UNK         0.1412 
     73 H73        17.8846  -29.6933  -47.2938 H         1 UNK         0.1426 
     74 H74        21.0866  -31.4009  -46.3394 H         1 UNK         0.0716 
     75 H75        20.1992  -30.8927  -47.7573 H         1 UNK         0.0716 
     76 H76        21.6823  -29.8232  -44.3437 H         1 UNK         0.0695 
     77 H77        20.0775  -29.1568  -44.1572 H         1 UNK         0.0695 
     78 H78        22.6149  -27.4952  -44.5817 H         1 UNK         0.0983 
     79 H79        19.8068  -26.6985  -44.4750 H         1 UNK         0.3095 
     80 H80        20.1425  -23.5927  -43.6324 H         1 UNK         0.0454 
     81 H81        19.6739  -22.3466  -45.7640 H         1 UNK         0.0851 
     82 H82        21.3864  -22.6042  -45.4801 H         1 UNK         0.0851 
     83 H83        20.5474  -23.5872  -46.6639 H         1 UNK         0.0851 
     84 H84        18.1803  -24.5592  -43.8468 H         1 UNK         0.2976 
     85 H85        20.6000  -26.3940  -42.1188 H         1 UNK         0.3116 
     86 H86        20.9125  -28.0095  -39.9263 H         1 UNK         0.0646 
     87 H87        19.3925  -26.0802  -39.9856 H         1 UNK         0.0847 
     88 H88        20.4634  -25.9305  -38.6036 H         1 UNK         0.0847 
     89 H89        20.7520  -24.9561  -40.0371 H         1 UNK         0.0847 
     90 H90        22.6888  -28.8642  -39.1400 H         1 UNK         0.3040 
     91 H91        24.6188  -29.2415  -38.1953 H         1 UNK         0.1015 
     92 H92        25.0304  -26.2267  -37.8226 H         1 UNK         0.0786 
     93 H93        25.8663  -27.5109  -36.9675 H         1 UNK         0.0786 
     94 H94        24.1465  -27.2737  -36.7116 H         1 UNK         0.0786 
     95 H95        24.4386  -28.0351  -41.1855 H         1 UNK         0.3172 
     96 H96        27.3559  -28.1326  -41.7937 H         1 UNK         0.0595 
     97 H97        24.9573  -27.6825  -43.6534 H         1 UNK         0.0839 
     98 H98        26.6532  -27.6113  -44.1014 H         1 UNK         0.0839 
     99 H99        25.9907  -26.4152  -42.9985 H         1 UNK         0.0839 
    100 H100       24.2500  -29.7864  -42.3233 H         1 UNK         0.2998 
    101 H101       25.5730  -32.3722  -42.9973 H         1 UNK         0.0822 
    102 H102       23.2673  -33.0768  -43.5872 H         1 UNK         0.0787 
    103 H103       23.6045  -31.5674  -44.4078 H         1 UNK         0.0787 
    104 H104       22.6002  -31.5731  -42.9609 H         1 UNK         0.0787 
    105 H105       23.9964  -34.1655  -41.8239 H         1 UNK         0.3055 
    106 H106       24.3898  -33.9818  -38.9647 H         1 UNK         0.1106 
    107 H107       23.1988  -36.1769  -38.9603 H         1 UNK         0.0828 
    108 H108       22.7687  -35.9716  -40.6520 H         1 UNK         0.0828 
    109 H109       24.4595  -36.1564  -40.1807 H         1 UNK         0.0828 
    110 H110       21.8623  -32.9799  -41.0934 H         1 UNK         0.2931 
    111 H111       19.6377  -32.9194  -39.3175 H         1 UNK         0.0412 
    112 H112       18.6160  -31.0415  -38.2797 H         1 UNK         0.3472 
    113 H113       19.6075  -29.7082  -37.7530 H         1 UNK         0.3472 
    114 H114       20.1889  -31.2694  -41.8508 H         1 UNK         0.0970 
    115 H115       18.6500  -31.3609  -41.0327 H         1 UNK         0.0970 
    116 H116       16.9219  -32.5219  -42.2395 H         1 UNK         0.0612 
    117 H117       17.1071  -33.8703  -43.3316 H         1 UNK         0.0612 
@<TRIPOS>BOND
     1    1    2 1    
     2    1   62 1    
     3    1   63 1    
     4    1   64 1    
     5    2    3 2    
     6    2    4 am   BACKBONE|DICT|INTERRES
     7    4    5 1    
     8    4   65 1    
     9    5    6 1    
    10    5   25 1    
    11    5   66 1    
    12    6    7 1    
    13    6   67 1    
    14    6   68 1    
    15    7    8 1    
    16    8    9 1    
    17    8   69 1    
    18    8   70 1    
    19    9   10 ar   
    20    9   14 ar   
    21   10   11 ar   
    22   10   71 1    
    23   11   12 ar   
    24   11   61 1    
    25   12   13 ar   
    26   12   72 1    
    27   13   14 ar   
    28   13   15 1    
    29   14   73 1    
    30   15   16 1    
    31   15   74 1    
    32   15   75 1    
    33   16   17 1    
    34   17   18 1    
    35   17   76 1    
    36   17   77 1    
    37   18   19 1    
    38   18   27 1    
    39   18   78 1    
    40   19   20 am   BACKBONE|DICT|INTERRES
    41   19   79 1    
    42   20   21 2    
    43   20   22 1    
    44   22   23 1    
    45   22   24 1    
    46   22   80 1    
    47   23   81 1    
    48   23   82 1    
    49   23   83 1    
    50   24   25 am   BACKBONE|DICT|INTERRES
    51   24   84 1    
    52   25   26 2    
    53   27   28 2    
    54   27   29 am   BACKBONE|DICT|INTERRES
    55   29   30 1    
    56   29   85 1    
    57   30   31 1    
    58   30   32 1    
    59   30   86 1    
    60   31   87 1    
    61   31   88 1    
    62   31   89 1    
    63   32   33 2    
    64   32   34 am   BACKBONE|DICT|INTERRES
    65   34   35 1    
    66   34   90 1    
    67   35   36 1    
    68   35   37 1    
    69   35   91 1    
    70   36   92 1    
    71   36   93 1    
    72   36   94 1    
    73   37   38 2    
    74   37   39 am   BACKBONE|DICT|INTERRES
    75   39   40 1    
    76   39   95 1    
    77   40   41 1    
    78   40   42 1    
    79   40   96 1    
    80   41   97 1    
    81   41   98 1    
    82   41   99 1    
    83   42   43 2    
    84   42   44 am   BACKBONE|DICT|INTERRES
    85   44   45 1    
    86   44  100 1    
    87   45   46 1    
    88   45   47 1    
    89   45  101 1    
    90   46  102 1    
    91   46  103 1    
    92   46  104 1    
    93   47   48 2    
    94   47   49 am   BACKBONE|DICT|INTERRES
    95   49   50 1    
    96   49  105 1    
    97   50   51 1    
    98   50   52 1    
    99   50  106 1    
   100   51  107 1    
   101   51  108 1    
   102   51  109 1    
   103   52   53 2    
   104   52   54 am   BACKBONE|DICT|INTERRES
   105   54   55 1    
   106   54  110 1    
   107   55   56 1    
   108   55   59 1    
   109   55  111 1    
   110   56   57 am   BACKBONE|DICT|INTERRES
   111   56   58 2    
   112   57  112 1    
   113   57  113 1    
   114   59   60 1    
   115   59  114 1    
   116   59  115 1    
   117   60   61 1    
   118   61  116 1    
   119   61  117 1    
@<TRIPOS>SUBSTRUCTURE
     1 UNK         1 GROUP             0       ****    0 ROOT    
