@<TRIPOS>MOLECULE
3R8
117   119    1
SMALL
USER_CHARGES


@<TRIPOS>ATOM
      1 CA         16.6516  -26.3504  -42.0906 C.3       0 UNK        -0.2013 
      2 C          16.1178  -26.2993  -43.5116 C.2       0 UNK         0.4866 
      3 O          15.4089  -25.3552  -43.8616 O.2       0 UNK        -0.5176 
      4 N          16.4355  -27.3131  -44.3290 N.am      1 UNK        -0.4884 
      5 CA         15.9438  -27.4433  -45.7081 C.3       1 UNK         0.0853 
      6 C6         16.1039  -28.8738  -46.2867 C.3       10 UNK        -0.0849 
      7 S7         15.5412  -30.1857  -45.1473 S.3       10 UNK        -0.2776 
      8 C8         17.0865  -31.1075  -44.8490 C.3       10 UNK         0.0316 
      9 C9         18.1442  -30.2666  -44.1445 C.ar      10 UNK        -0.0863 
     10 C10        18.0510  -30.0291  -42.7711 C.ar      10 UNK        -0.1009 
     11 C11        19.0422  -29.2988  -42.1107 C.ar      10 UNK        -0.0712 
     12 C12        20.1199  -28.7866  -42.8400 C.ar      10 UNK        -0.0894 
     13 C13        20.2271  -29.0054  -44.2214 C.ar      10 UNK        -0.0745 
     14 C14        19.2320  -29.7530  -44.8591 C.ar      10 UNK        -0.0972 
     15 C15        21.3978  -28.4917  -45.0693 C.3       10 UNK         0.0209 
     16 S16        22.7134  -27.6088  -44.1587 S.3       10 UNK        -0.2568 
     17 C17        22.5771  -25.8918  -44.7786 C.3       10 UNK        -0.0983 
     18 CA         21.3176  -25.0586  -44.3760 C.3       3 UNK         0.0876 
     19 N          20.1658  -25.2994  -45.2406 N.am      3 UNK        -0.4424 
     20 C          20.0578  -24.9493  -46.5275 C.2       2 UNK         0.4918 
     21 O          20.9393  -24.3420  -47.1366 O.2       2 UNK        -0.4875 
     22 CA         18.7699  -25.3449  -47.2744 C.3       2 UNK         0.0481 
     23 CB         19.0832  -25.9700  -48.6492 C.3       2 UNK        -0.1831 
     24 N          17.9308  -26.2577  -46.4940 N.am      2 UNK        -0.4498 
     25 C          16.6088  -26.4155  -46.6433 C.2       1 UNK         0.5027 
     26 O          15.9258  -25.8003  -47.4636 O.2       1 UNK        -0.4969 
     27 C          20.8446  -25.2368  -42.9203 C.2       3 UNK         0.5005 
     28 O          19.6427  -25.3989  -42.6890 O.2       3 UNK        -0.5279 
     29 N          21.7832  -25.2307  -41.9703 N.am      4 UNK        -0.4463 
     30 CA         21.5575  -25.5927  -40.5765 C.3       4 UNK         0.0283 
     31 CB         21.2422  -24.3367  -39.7468 C.3       4 UNK        -0.1875 
     32 C          22.8159  -26.2984  -40.0647 C.2       4 UNK         0.4949 
     33 O          23.9217  -25.9105  -40.4506 O.2       4 UNK        -0.5039 
     34 N          22.6173  -27.2969  -39.1943 N.am      5 UNK        -0.4663 
     35 CA         23.6406  -28.1430  -38.5709 C.3       5 UNK         0.0242 
     36 CB         24.4693  -27.3259  -37.5517 C.3       5 UNK        -0.1982 
     37 C          24.4803  -28.9063  -39.6170 C.2       5 UNK         0.5017 
     38 O          23.9022  -29.5545  -40.4921 O.2       5 UNK        -0.5012 
     39 N          25.8161  -28.8638  -39.4809 N.am      6 UNK        -0.4439 
     40 CA         26.8337  -29.4576  -40.3652 C.3       6 UNK         0.0297 
     41 CB         26.8237  -28.7408  -41.7329 C.3       6 UNK        -0.2006 
     42 C          26.7432  -30.9915  -40.5260 C.2       6 UNK         0.4892 
     43 O          27.3200  -31.5333  -41.4700 O.2       6 UNK        -0.5089 
     44 N          25.9999  -31.6542  -39.6247 N.am      7 UNK        -0.4243 
     45 CA         25.5711  -33.0593  -39.6700 C.3       7 UNK         0.0196 
     46 CB         26.7780  -34.0106  -39.5226 C.3       7 UNK        -0.2007 
     47 C          24.6928  -33.4018  -40.8956 C.2       7 UNK         0.5020 
     48 O          24.5634  -34.5786  -41.2360 O.2       7 UNK        -0.5147 
     49 N          24.1030  -32.3838  -41.5394 N.am      8 UNK        -0.4734 
     50 CA         23.2828  -32.5311  -42.7431 C.3       8 UNK         0.0238 
     51 CB         23.4059  -31.2530  -43.5855 C.3       8 UNK        -0.1912 
     52 C          21.8082  -32.8113  -42.4209 C.2       8 UNK         0.5038 
     53 O          21.1245  -33.4288  -43.2388 O.2       8 UNK        -0.5046 
     54 N          21.3467  -32.3406  -41.2558 N.am      9 UNK        -0.4200 
     55 CA         19.9621  -32.4634  -40.7847 C.3       9 UNK         0.0839 
     56 C          19.5422  -33.9323  -40.5093 C.2       9 UNK         0.5513 
     57 N          18.2913  -34.2810  -40.7779 N.am      9 UNK        -0.7519 
     58 O          20.3224  -34.7403  -40.0093 O.2       9 UNK        -0.4960 
     59 C59        19.6866  -31.5759  -39.5414 C.3       10 UNK        -0.0876 
     60 S60        20.2865  -29.8564  -39.6872 S.3       10 UNK        -0.2414 
     61 C61        18.9451  -29.0450  -40.6116 C.3       10 UNK         0.0169 
     62 H62        17.5297  -26.9873  -42.0242 H         1 UNK         0.0903 
     63 H63        16.9424  -25.3537  -41.7589 H         1 UNK         0.0903 
     64 H64        15.8907  -26.7324  -41.4109 H         1 UNK         0.0903 
     65 H65        16.9896  -28.0870  -43.9848 H         1 UNK         0.3096 
     66 H66        14.8749  -27.2166  -45.6928 H         1 UNK         0.1121 
     67 H67        15.5233  -28.9643  -47.2068 H         1 UNK         0.0849 
     68 H68        17.1365  -29.0672  -46.5787 H         1 UNK         0.0849 
     69 H69        16.8608  -31.9846  -44.2405 H         1 UNK         0.0865 
     70 H70        17.4663  -31.4917  -45.7971 H         1 UNK         0.0865 
     71 H71        17.2129  -30.4274  -42.2152 H         1 UNK         0.1346 
     72 H72        20.8760  -28.2279  -42.3087 H         1 UNK         0.1412 
     73 H73        19.3141  -29.9480  -45.9200 H         1 UNK         0.1426 
     74 H74        21.0139  -27.8581  -45.8685 H         1 UNK         0.0716 
     75 H75        21.8613  -29.3451  -45.5650 H         1 UNK         0.0716 
     76 H76        22.7012  -25.9111  -45.8618 H         1 UNK         0.0695 
     77 H77        23.4632  -25.3706  -44.4133 H         1 UNK         0.0695 
     78 H78        21.5689  -24.0006  -44.4782 H         1 UNK         0.0983 
     79 H79        19.3719  -25.6659  -44.7313 H         1 UNK         0.3095 
     80 H80        18.2171  -24.4170  -47.4335 H         1 UNK         0.0454 
     81 H81        19.6810  -25.2959  -49.2639 H         1 UNK         0.0851 
     82 H82        18.1731  -26.1848  -49.2089 H         1 UNK         0.0851 
     83 H83        19.6415  -26.9011  -48.5471 H         1 UNK         0.0851 
     84 H84        18.4010  -26.8301  -45.8081 H         1 UNK         0.2976 
     85 H85        22.7607  -25.1568  -42.2260 H         1 UNK         0.3116 
     86 H86        20.7188  -26.2885  -40.5089 H         1 UNK         0.0646 
     87 H87        22.0568  -23.6126  -39.7876 H         1 UNK         0.0847 
     88 H88        20.3373  -23.8444  -40.1032 H         1 UNK         0.0847 
     89 H89        21.0821  -24.5912  -38.6984 H         1 UNK         0.0847 
     90 H90        21.6640  -27.5636  -38.9885 H         1 UNK         0.3040 
     91 H91        23.0996  -28.9101  -38.0142 H         1 UNK         0.1015 
     92 H92        25.1391  -27.9659  -36.9758 H         1 UNK         0.0786 
     93 H93        23.8184  -26.8284  -36.8324 H         1 UNK         0.0786 
     94 H94        25.0713  -26.5543  -38.0335 H         1 UNK         0.0786 
     95 H95        26.1804  -28.3205  -38.7100 H         1 UNK         0.3172 
     96 H96        27.7979  -29.2612  -39.8941 H         1 UNK         0.0595 
     97 H97        25.9098  -28.9495  -42.2910 H         1 UNK         0.0839 
     98 H98        27.6627  -29.0590  -42.3528 H         1 UNK         0.0839 
     99 H99        26.9022  -27.6599  -41.6157 H         1 UNK         0.0839 
    100 H100       25.5844  -31.1010  -38.8888 H         1 UNK         0.2998 
    101 H101       24.9307  -33.2058  -38.7989 H         1 UNK         0.0822 
    102 H102       26.4500  -35.0430  -39.3957 H         1 UNK         0.0787 
    103 H103       27.3808  -33.7553  -38.6511 H         1 UNK         0.0787 
    104 H104       27.4258  -33.9830  -40.3992 H         1 UNK         0.0787 
    105 H105       24.2296  -31.4378  -41.1905 H         1 UNK         0.3055 
    106 H106       23.6575  -33.3682  -43.3368 H         1 UNK         0.1106 
    107 H107       24.4420  -31.0509  -43.8573 H         1 UNK         0.0828 
    108 H108       22.8364  -31.3414  -44.5113 H         1 UNK         0.0828 
    109 H109       23.0244  -30.3835  -43.0485 H         1 UNK         0.0828 
    110 H110       21.9779  -31.8302  -40.6570 H         1 UNK         0.2931 
    111 H111       19.3350  -32.0998  -41.5982 H         1 UNK         0.0412 
    112 H112       17.9947  -35.2260  -40.5885 H         1 UNK         0.3472 
    113 H113       17.6402  -33.6236  -41.1779 H         1 UNK         0.3472 
    114 H114       18.6187  -31.5588  -39.3164 H         1 UNK         0.0970 
    115 H115       20.1678  -32.0069  -38.6612 H         1 UNK         0.0970 
    116 H116       19.0060  -27.9717  -40.4318 H         1 UNK         0.0612 
    117 H117       17.9797  -29.3648  -40.2168 H         1 UNK         0.0612 
@<TRIPOS>BOND
     1    1    2 1    
     2    1   62 1    
     3    1   63 1    
     4    1   64 1    
     5    2    3 2    
     6    2    4 am   BACKBONE|DICT|INTERRES
     7    4    5 1    
     8    4   65 1    
     9    5    6 1    
    10    5   25 1    
    11    5   66 1    
    12    6    7 1    
    13    6   67 1    
    14    6   68 1    
    15    7    8 1    
    16    8    9 1    
    17    8   69 1    
    18    8   70 1    
    19    9   10 ar   
    20    9   14 ar   
    21   10   11 ar   
    22   10   71 1    
    23   11   12 ar   
    24   11   61 1    
    25   12   13 ar   
    26   12   72 1    
    27   13   14 ar   
    28   13   15 1    
    29   14   73 1    
    30   15   16 1    
    31   15   74 1    
    32   15   75 1    
    33   16   17 1    
    34   17   18 1    
    35   17   76 1    
    36   17   77 1    
    37   18   19 1    
    38   18   27 1    
    39   18   78 1    
    40   19   20 am   BACKBONE|DICT|INTERRES
    41   19   79 1    
    42   20   21 2    
    43   20   22 1    
    44   22   23 1    
    45   22   24 1    
    46   22   80 1    
    47   23   81 1    
    48   23   82 1    
    49   23   83 1    
    50   24   25 am   BACKBONE|DICT|INTERRES
    51   24   84 1    
    52   25   26 2    
    53   27   28 2    
    54   27   29 am   BACKBONE|DICT|INTERRES
    55   29   30 1    
    56   29   85 1    
    57   30   31 1    
    58   30   32 1    
    59   30   86 1    
    60   31   87 1    
    61   31   88 1    
    62   31   89 1    
    63   32   33 2    
    64   32   34 am   BACKBONE|DICT|INTERRES
    65   34   35 1    
    66   34   90 1    
    67   35   36 1    
    68   35   37 1    
    69   35   91 1    
    70   36   92 1    
    71   36   93 1    
    72   36   94 1    
    73   37   38 2    
    74   37   39 am   BACKBONE|DICT|INTERRES
    75   39   40 1    
    76   39   95 1    
    77   40   41 1    
    78   40   42 1    
    79   40   96 1    
    80   41   97 1    
    81   41   98 1    
    82   41   99 1    
    83   42   43 2    
    84   42   44 am   BACKBONE|DICT|INTERRES
    85   44   45 1    
    86   44  100 1    
    87   45   46 1    
    88   45   47 1    
    89   45  101 1    
    90   46  102 1    
    91   46  103 1    
    92   46  104 1    
    93   47   48 2    
    94   47   49 am   BACKBONE|DICT|INTERRES
    95   49   50 1    
    96   49  105 1    
    97   50   51 1    
    98   50   52 1    
    99   50  106 1    
   100   51  107 1    
   101   51  108 1    
   102   51  109 1    
   103   52   53 2    
   104   52   54 am   BACKBONE|DICT|INTERRES
   105   54   55 1    
   106   54  110 1    
   107   55   56 1    
   108   55   59 1    
   109   55  111 1    
   110   56   57 am   BACKBONE|DICT|INTERRES
   111   56   58 2    
   112   57  112 1    
   113   57  113 1    
   114   59   60 1    
   115   59  114 1    
   116   59  115 1    
   117   60   61 1    
   118   61  116 1    
   119   61  117 1    
@<TRIPOS>SUBSTRUCTURE
     1 UNK         1 GROUP             0       ****    0 ROOT    
