@<TRIPOS>MOLECULE
3R8
117   119    1
SMALL
USER_CHARGES


@<TRIPOS>ATOM
      1 CA         13.6918  -23.5171  -42.4534 C.3       0 UNK        -0.2013 
      2 C          14.2740  -24.6863  -43.2325 C.2       0 UNK         0.4866 
      3 O          14.1332  -25.8333  -42.8076 O.2       0 UNK        -0.5176 
      4 N          14.9393  -24.4043  -44.3615 N.am      1 UNK        -0.4884 
      5 CA         15.5824  -25.3435  -45.2962 C.3       1 UNK         0.0853 
      6 C6         14.6111  -26.4187  -45.8564 C.3       10 UNK        -0.0849 
      7 S7         15.1163  -27.0350  -47.4982 S.3       10 UNK        -0.2776 
      8 C8         15.2772  -28.8310  -47.2152 C.3       10 UNK         0.0316 
      9 C9         16.6015  -29.2409  -46.5759 C.ar      10 UNK        -0.0863 
     10 C10        16.6141  -29.9989  -45.3995 C.ar      10 UNK        -0.1009 
     11 C11        17.8181  -30.4702  -44.8614 C.ar      10 UNK        -0.0712 
     12 C12        19.0172  -30.1745  -45.5193 C.ar      10 UNK        -0.0894 
     13 C13        19.0258  -29.3880  -46.6730 C.ar      10 UNK        -0.0745 
     14 C14        17.8143  -28.9311  -47.2007 C.ar      10 UNK        -0.0972 
     15 C15        20.3400  -29.0606  -47.3684 C.3       10 UNK         0.0209 
     16 S16        21.1098  -27.5446  -46.7111 S.3       10 UNK        -0.2568 
     17 C17        21.9562  -28.1410  -45.2055 C.3       10 UNK        -0.0983 
     18 CA         21.4717  -27.4275  -43.9151 C.3       3 UNK         0.0876 
     19 N          20.0402  -27.6346  -43.6814 N.am      3 UNK        -0.4424 
     20 C          19.2385  -26.8601  -42.9423 C.2       2 UNK         0.4918 
     21 O          19.6107  -25.8407  -42.3561 O.2       2 UNK        -0.4875 
     22 CA         17.7824  -27.3329  -42.8107 C.3       2 UNK         0.0481 
     23 CB         17.3778  -27.4480  -41.3321 C.3       2 UNK        -0.1831 
     24 N          16.7981  -26.5103  -43.5150 N.am      2 UNK        -0.4498 
     25 C          16.8744  -25.9811  -44.7449 C.2       1 UNK         0.5027 
     26 O          17.8841  -25.9764  -45.4481 O.2       1 UNK        -0.4969 
     27 C          22.2931  -27.8437  -42.6729 C.2       3 UNK         0.5005 
     28 O          23.1596  -28.7153  -42.7617 O.2       3 UNK        -0.5279 
     29 N          22.0034  -27.2153  -41.5238 N.am      4 UNK        -0.4463 
     30 CA         22.5828  -27.5110  -40.2088 C.3       4 UNK         0.0283 
     31 CB         21.9019  -26.6394  -39.1437 C.3       4 UNK        -0.1875 
     32 C          24.1114  -27.3602  -40.1349 C.2       4 UNK         0.4949 
     33 O          24.7446  -28.0496  -39.3342 O.2       4 UNK        -0.5039 
     34 N          24.6757  -26.5114  -41.0065 N.am      5 UNK        -0.4663 
     35 CA         26.1131  -26.2939  -41.2007 C.3       5 UNK         0.0242 
     36 CB         26.3108  -25.1510  -42.2095 C.3       5 UNK        -0.1982 
     37 C          26.8960  -27.5452  -41.6458 C.2       5 UNK         0.5017 
     38 O          28.1148  -27.5739  -41.4774 O.2       5 UNK        -0.5012 
     39 N          26.1967  -28.5687  -42.1597 N.am      6 UNK        -0.4439 
     40 CA         26.7436  -29.8949  -42.4644 C.3       6 UNK         0.0297 
     41 CB         25.8439  -30.5681  -43.5157 C.3       6 UNK        -0.2006 
     42 C          26.9102  -30.7960  -41.2185 C.2       6 UNK         0.4892 
     43 O          27.2242  -31.9750  -41.3849 O.2       6 UNK        -0.5089 
     44 N          26.6972  -30.2380  -40.0145 N.am      7 UNK        -0.4243 
     45 CA         26.6115  -30.8921  -38.7041 C.3       7 UNK         0.0196 
     46 CB         27.8802  -31.7045  -38.3626 C.3       7 UNK        -0.2007 
     47 C          25.3057  -31.6959  -38.6074 C.2       7 UNK         0.5020 
     48 O          25.3355  -32.9148  -38.4280 O.2       7 UNK        -0.5147 
     49 N          24.1887  -30.9662  -38.7566 N.am      8 UNK        -0.4734 
     50 CA         22.8032  -31.4382  -38.9020 C.3       8 UNK         0.0238 
     51 CB         22.3828  -32.3488  -37.7267 C.3       8 UNK        -0.1912 
     52 C          22.5452  -32.0954  -40.2735 C.2       8 UNK         0.5038 
     53 O          23.4692  -32.2676  -41.0715 O.2       8 UNK        -0.5046 
     54 N          21.2771  -32.4290  -40.5340 N.am      9 UNK        -0.4200 
     55 CA         20.8132  -33.0317  -41.7935 C.3       9 UNK         0.0839 
     56 C          19.7159  -34.1185  -41.6059 C.2       9 UNK         0.5513 
     57 N          19.4382  -34.5788  -40.3910 N.am      9 UNK        -0.7519 
     58 O          19.1223  -34.5754  -42.5791 O.2       9 UNK        -0.4960 
     59 C59        20.4657  -31.9550  -42.8582 C.3       10 UNK        -0.0876 
     60 S60        19.0850  -30.8559  -42.3744 S.3       10 UNK        -0.2414 
     61 C61        17.7971  -31.3149  -43.5873 C.3       10 UNK         0.0169 
     62 H62        14.1202  -23.4839  -41.4519 H         1 UNK         0.0903 
     63 H63        13.8900  -22.5618  -42.9394 H         1 UNK         0.0903 
     64 H64        12.6121  -23.6312  -42.3584 H         1 UNK         0.0903 
     65 H65        15.0377  -23.4321  -44.6230 H         1 UNK         0.3096 
     66 H66        15.8924  -24.7147  -46.1331 H         1 UNK         0.1121 
     67 H67        13.6160  -25.9884  -45.9788 H         1 UNK         0.0849 
     68 H68        14.4875  -27.2472  -45.1563 H         1 UNK         0.0849 
     69 H69        14.4285  -29.1823  -46.6262 H         1 UNK         0.0865 
     70 H70        15.1980  -29.3356  -48.1790 H         1 UNK         0.0865 
     71 H71        15.6799  -30.2449  -44.9131 H         1 UNK         0.1346 
     72 H72        19.9524  -30.5502  -45.1346 H         1 UNK         0.1412 
     73 H73        17.8126  -28.3417  -48.1076 H         1 UNK         0.1426 
     74 H74        20.1634  -28.9213  -48.4360 H         1 UNK         0.0716 
     75 H75        21.0359  -29.8972  -47.2885 H         1 UNK         0.0716 
     76 H76        23.0236  -27.9650  -45.3522 H         1 UNK         0.0695 
     77 H77        21.8451  -29.2220  -45.1146 H         1 UNK         0.0695 
     78 H78        21.6391  -26.3569  -44.0531 H         1 UNK         0.0983 
     79 H79        19.6326  -28.4341  -44.1453 H         1 UNK         0.3095 
     80 H80        17.7065  -28.3278  -43.2432 H         1 UNK         0.0454 
     81 H81        16.3940  -27.9048  -41.2236 H         1 UNK         0.0851 
     82 H82        17.3510  -26.4726  -40.8448 H         1 UNK         0.0851 
     83 H83        18.0845  -28.0703  -40.7811 H         1 UNK         0.0851 
     84 H84        15.8960  -26.4087  -43.0566 H         1 UNK         0.2976 
     85 H85        21.2572  -26.5256  -41.5535 H         1 UNK         0.3116 
     86 H86        22.3535  -28.5540  -39.9928 H         1 UNK         0.0646 
     87 H87        22.0636  -25.5769  -39.3282 H         1 UNK         0.0847 
     88 H88        22.2921  -26.8608  -38.1492 H         1 UNK         0.0847 
     89 H89        20.8264  -26.8151  -39.1141 H         1 UNK         0.0847 
     90 H90        24.0585  -25.9994  -41.6198 H         1 UNK         0.3040 
     91 H91        26.5304  -25.9834  -40.2404 H         1 UNK         0.1015 
     92 H92        25.8917  -25.3975  -43.1858 H         1 UNK         0.0786 
     93 H93        27.3706  -24.9366  -42.3548 H         1 UNK         0.0786 
     94 H94        25.8419  -24.2295  -41.8641 H         1 UNK         0.0786 
     95 H95        25.1912  -28.4689  -42.2651 H         1 UNK         0.3172 
     96 H96        27.7348  -29.7685  -42.9038 H         1 UNK         0.0595 
     97 H97        24.8568  -30.7950  -43.1107 H         1 UNK         0.0839 
     98 H98        26.2763  -31.5085  -43.8590 H         1 UNK         0.0839 
     99 H99        25.7090  -29.9351  -44.3927 H         1 UNK         0.0839 
    100 H100       26.4003  -29.2700  -40.0127 H         1 UNK         0.2998 
    101 H101       26.5379  -30.0891  -37.9687 H         1 UNK         0.0822 
    102 H102       28.7796  -31.0977  -38.4662 H         1 UNK         0.0787 
    103 H103       27.8430  -32.0581  -37.3317 H         1 UNK         0.0787 
    104 H104       27.9926  -32.5838  -38.9969 H         1 UNK         0.0787 
    105 H105       24.3198  -29.9723  -38.9203 H         1 UNK         0.3055 
    106 H106       22.1787  -30.5456  -38.8610 H         1 UNK         0.1106 
    107 H107       21.3033  -32.4995  -37.7088 H         1 UNK         0.0828 
    108 H108       22.8428  -33.3355  -37.7885 H         1 UNK         0.0828 
    109 H109       22.6580  -31.9110  -36.7672 H         1 UNK         0.0828 
    110 H110       20.5547  -32.2319  -39.8567 H         1 UNK         0.2931 
    111 H111       21.6456  -33.6067  -42.2035 H         1 UNK         0.0412 
    112 H112       18.7295  -35.2890  -40.2906 H         1 UNK         0.3472 
    113 H113       19.9559  -34.2733  -39.5835 H         1 UNK         0.3472 
    114 H114       20.2506  -32.4356  -43.8138 H         1 UNK         0.0970 
    115 H115       21.3414  -31.3293  -43.0401 H         1 UNK         0.0970 
    116 H116       16.8328  -31.2057  -43.0888 H         1 UNK         0.0612 
    117 H117       17.8832  -32.3698  -43.8497 H         1 UNK         0.0612 
@<TRIPOS>BOND
     1    1    2 1    
     2    1   62 1    
     3    1   63 1    
     4    1   64 1    
     5    2    3 2    
     6    2    4 am   BACKBONE|DICT|INTERRES
     7    4    5 1    
     8    4   65 1    
     9    5    6 1    
    10    5   25 1    
    11    5   66 1    
    12    6    7 1    
    13    6   67 1    
    14    6   68 1    
    15    7    8 1    
    16    8    9 1    
    17    8   69 1    
    18    8   70 1    
    19    9   10 ar   
    20    9   14 ar   
    21   10   11 ar   
    22   10   71 1    
    23   11   12 ar   
    24   11   61 1    
    25   12   13 ar   
    26   12   72 1    
    27   13   14 ar   
    28   13   15 1    
    29   14   73 1    
    30   15   16 1    
    31   15   74 1    
    32   15   75 1    
    33   16   17 1    
    34   17   18 1    
    35   17   76 1    
    36   17   77 1    
    37   18   19 1    
    38   18   27 1    
    39   18   78 1    
    40   19   20 am   BACKBONE|DICT|INTERRES
    41   19   79 1    
    42   20   21 2    
    43   20   22 1    
    44   22   23 1    
    45   22   24 1    
    46   22   80 1    
    47   23   81 1    
    48   23   82 1    
    49   23   83 1    
    50   24   25 am   BACKBONE|DICT|INTERRES
    51   24   84 1    
    52   25   26 2    
    53   27   28 2    
    54   27   29 am   BACKBONE|DICT|INTERRES
    55   29   30 1    
    56   29   85 1    
    57   30   31 1    
    58   30   32 1    
    59   30   86 1    
    60   31   87 1    
    61   31   88 1    
    62   31   89 1    
    63   32   33 2    
    64   32   34 am   BACKBONE|DICT|INTERRES
    65   34   35 1    
    66   34   90 1    
    67   35   36 1    
    68   35   37 1    
    69   35   91 1    
    70   36   92 1    
    71   36   93 1    
    72   36   94 1    
    73   37   38 2    
    74   37   39 am   BACKBONE|DICT|INTERRES
    75   39   40 1    
    76   39   95 1    
    77   40   41 1    
    78   40   42 1    
    79   40   96 1    
    80   41   97 1    
    81   41   98 1    
    82   41   99 1    
    83   42   43 2    
    84   42   44 am   BACKBONE|DICT|INTERRES
    85   44   45 1    
    86   44  100 1    
    87   45   46 1    
    88   45   47 1    
    89   45  101 1    
    90   46  102 1    
    91   46  103 1    
    92   46  104 1    
    93   47   48 2    
    94   47   49 am   BACKBONE|DICT|INTERRES
    95   49   50 1    
    96   49  105 1    
    97   50   51 1    
    98   50   52 1    
    99   50  106 1    
   100   51  107 1    
   101   51  108 1    
   102   51  109 1    
   103   52   53 2    
   104   52   54 am   BACKBONE|DICT|INTERRES
   105   54   55 1    
   106   54  110 1    
   107   55   56 1    
   108   55   59 1    
   109   55  111 1    
   110   56   57 am   BACKBONE|DICT|INTERRES
   111   56   58 2    
   112   57  112 1    
   113   57  113 1    
   114   59   60 1    
   115   59  114 1    
   116   59  115 1    
   117   60   61 1    
   118   61  116 1    
   119   61  117 1    
@<TRIPOS>SUBSTRUCTURE
     1 UNK         1 GROUP             0       ****    0 ROOT    
