@<TRIPOS>MOLECULE
3R8
117   119    1
SMALL
USER_CHARGES


@<TRIPOS>ATOM
      1 CA         15.3687  -28.1007  -41.2477 C.3       0 UNK        -0.2013 
      2 C          15.3910  -26.8713  -42.1426 C.2       0 UNK         0.4866 
      3 O          14.5066  -26.0219  -42.0300 O.2       0 UNK        -0.5176 
      4 N          16.3924  -26.7641  -43.0230 N.am      1 UNK        -0.4884 
      5 CA         16.6152  -25.6076  -43.8902 C.3       1 UNK         0.0853 
      6 C6         15.6525  -25.5381  -45.1151 C.3       10 UNK        -0.0849 
      7 S7         16.0041  -26.6223  -46.5438 S.3       10 UNK        -0.2776 
      8 C8         15.2806  -28.2212  -46.0511 C.3       10 UNK         0.0316 
      9 C9         16.3636  -29.2307  -45.6950 C.ar      10 UNK        -0.0863 
     10 C10        16.4014  -29.8217  -44.4274 C.ar      10 UNK        -0.1009 
     11 C11        17.4151  -30.7272  -44.1002 C.ar      10 UNK        -0.0712 
     12 C12        18.3673  -31.0714  -45.0600 C.ar      10 UNK        -0.0894 
     13 C13        18.3585  -30.4667  -46.3188 C.ar      10 UNK        -0.0745 
     14 C14        17.3418  -29.5650  -46.6386 C.ar      10 UNK        -0.0972 
     15 C15        19.4803  -30.7467  -47.3083 C.3       10 UNK         0.0209 
     16 S16        20.7226  -29.4073  -47.3268 S.3       10 UNK        -0.2568 
     17 C17        21.3441  -29.4318  -45.6064 C.3       10 UNK        -0.0983 
     18 CA         21.6941  -28.0430  -45.0153 C.3       3 UNK         0.0876 
     19 N          20.7228  -26.9960  -45.3560 N.am      3 UNK        -0.4424 
     20 C          21.0154  -25.6890  -45.3899 C.2       2 UNK         0.4918 
     21 O          22.1252  -25.2353  -45.1079 O.2       2 UNK        -0.4875 
     22 CA         19.8883  -24.7134  -45.7808 C.3       2 UNK         0.0481 
     23 CB         19.9071  -24.4698  -47.2981 C.3       2 UNK        -0.1831 
     24 N          18.5288  -25.0940  -45.3742 N.am      2 UNK        -0.4498 
     25 C          18.1278  -25.4493  -44.1460 C.2       1 UNK         0.5027 
     26 O          18.9072  -25.6307  -43.2095 O.2       1 UNK        -0.4969 
     27 C          21.9524  -28.1597  -43.4937 C.2       3 UNK         0.5005 
     28 O          22.8259  -28.9357  -43.1022 O.2       3 UNK        -0.5279 
     29 N          21.2284  -27.4055  -42.6486 N.am      4 UNK        -0.4463 
     30 CA         21.3969  -27.3832  -41.1870 C.3       4 UNK         0.0283 
     31 CB         20.2291  -26.6188  -40.5436 C.3       4 UNK        -0.1875 
     32 C          22.7508  -26.8197  -40.7069 C.2       4 UNK         0.4949 
     33 O          23.0608  -26.9288  -39.5210 O.2       4 UNK        -0.5039 
     34 N          23.5385  -26.2401  -41.6241 N.am      5 UNK        -0.4663 
     35 CA         24.9368  -25.8620  -41.4122 C.3       5 UNK         0.0242 
     36 CB         25.3732  -24.9211  -42.5470 C.3       5 UNK        -0.1982 
     37 C          25.8878  -27.0736  -41.3188 C.2       5 UNK         0.5017 
     38 O          26.9801  -26.9280  -40.7678 O.2       5 UNK        -0.5012 
     39 N          25.4761  -28.2334  -41.8542 N.am      6 UNK        -0.4439 
     40 CA         26.1901  -29.5071  -41.7366 C.3       6 UNK         0.0297 
     41 CB         25.7750  -30.4176  -42.9067 C.3       6 UNK        -0.2006 
     42 C          25.8965  -30.1859  -40.3856 C.2       6 UNK         0.4892 
     43 O          25.0461  -29.7184  -39.6247 O.2       6 UNK        -0.5089 
     44 N          26.5965  -31.2973  -40.1165 N.am      7 UNK        -0.4243 
     45 CA         26.3631  -32.1615  -38.9553 C.3       7 UNK         0.0196 
     46 CB         27.4367  -33.2610  -38.9097 C.3       7 UNK        -0.2007 
     47 C          24.9522  -32.7752  -38.9985 C.2       7 UNK         0.5020 
     48 O          24.5687  -33.3270  -40.0324 O.2       7 UNK        -0.5147 
     49 N          24.2153  -32.6506  -37.8854 N.am      8 UNK        -0.4734 
     50 CA         22.7843  -32.9436  -37.7311 C.3       8 UNK         0.0238 
     51 CB         22.4778  -34.4481  -37.9138 C.3       8 UNK        -0.1912 
     52 C          21.9364  -32.0199  -38.6257 C.2       8 UNK         0.5038 
     53 O          21.5892  -30.9218  -38.1898 O.2       8 UNK        -0.5046 
     54 N          21.6413  -32.4658  -39.8495 N.am      9 UNK        -0.4200 
     55 CA         20.9679  -31.7071  -40.9029 C.3       9 UNK         0.0839 
     56 C          21.2666  -32.4041  -42.2508 C.2       9 UNK         0.5513 
     57 N          21.9592  -31.7421  -43.1660 N.am      9 UNK        -0.7519 
     58 O          20.8699  -33.5466  -42.4694 O.2       9 UNK        -0.4960 
     59 C59        19.4486  -31.5336  -40.6246 C.3       10 UNK        -0.0876 
     60 S60        18.6827  -30.2847  -41.7112 S.3       10 UNK        -0.2414 
     61 C61        17.5360  -31.2991  -42.6991 C.3       10 UNK         0.0169 
     62 H62        16.2756  -28.6934  -41.3497 H         1 UNK         0.0903 
     63 H63        15.2802  -27.8029  -40.2032 H         1 UNK         0.0903 
     64 H64        14.5160  -28.7323  -41.4953 H         1 UNK         0.0903 
     65 H65        17.1250  -27.4611  -43.0509 H         1 UNK         0.3096 
     66 H66        16.3840  -24.7277  -43.2847 H         1 UNK         0.1121 
     67 H67        14.6248  -25.7108  -44.7926 H         1 UNK         0.0849 
     68 H68        15.6476  -24.5153  -45.4960 H         1 UNK         0.0849 
     69 H69        14.5823  -28.0819  -45.2245 H         1 UNK         0.0865 
     70 H70        14.6953  -28.6142  -46.8834 H         1 UNK         0.0865 
     71 H71        15.6556  -29.5639  -43.6898 H         1 UNK         0.1346 
     72 H72        19.1580  -31.7627  -44.8000 H         1 UNK         0.1412 
     73 H73        17.3325  -29.0942  -47.6125 H         1 UNK         0.1426 
     74 H74        19.0644  -30.8591  -48.3105 H         1 UNK         0.0716 
     75 H75        19.9746  -31.6908  -47.0738 H         1 UNK         0.0716 
     76 H76        20.6210  -29.9192  -44.9600 H         1 UNK         0.0695 
     77 H77        22.2267  -30.0736  -45.5883 H         1 UNK         0.0695 
     78 H78        22.6497  -27.7522  -45.4578 H         1 UNK         0.0983 
     79 H79        19.7946  -27.3034  -45.6085 H         1 UNK         0.3095 
     80 H80        20.1061  -23.7650  -45.2859 H         1 UNK         0.0454 
     81 H81        20.8980  -24.1595  -47.6333 H         1 UNK         0.0851 
     82 H82        19.6427  -25.3707  -47.8535 H         1 UNK         0.0851 
     83 H83        19.2108  -23.6815  -47.5843 H         1 UNK         0.0851 
     84 H84        17.8170  -25.0408  -46.0910 H         1 UNK         0.2976 
     85 H85        20.5104  -26.7921  -43.0244 H         1 UNK         0.3116 
     86 H86        21.3474  -28.4150  -40.8364 H         1 UNK         0.0646 
     87 H87        20.2940  -26.6482  -39.4552 H         1 UNK         0.0847 
     88 H88        19.2689  -27.0552  -40.8198 H         1 UNK         0.0847 
     89 H89        20.2222  -25.5698  -40.8414 H         1 UNK         0.0847 
     90 H90        23.1829  -26.1575  -42.5661 H         1 UNK         0.3040 
     91 H91        25.0068  -25.3197  -40.4665 H         1 UNK         0.1015 
     92 H92        25.3111  -25.4075  -43.5215 H         1 UNK         0.0786 
     93 H93        26.4054  -24.5956  -42.4096 H         1 UNK         0.0786 
     94 H94        24.7538  -24.0244  -42.5797 H         1 UNK         0.0786 
     95 H95        24.5361  -28.2891  -42.2341 H         1 UNK         0.3172 
     96 H96        27.2641  -29.3213  -41.8041 H         1 UNK         0.0595 
     97 H97        26.3952  -31.3133  -42.9512 H         1 UNK         0.0839 
     98 H98        25.8771  -29.9089  -43.8654 H         1 UNK         0.0839 
     99 H99        24.7403  -30.7486  -42.8121 H         1 UNK         0.0839 
    100 H100       27.2576  -31.6327  -40.8017 H         1 UNK         0.2998 
    101 H101       26.4600  -31.5468  -38.0577 H         1 UNK         0.0822 
    102 H102       27.4019  -33.8960  -39.7961 H         1 UNK         0.0787 
    103 H103       28.4384  -32.8368  -38.8383 H         1 UNK         0.0787 
    104 H104       27.2960  -33.9064  -38.0416 H         1 UNK         0.0787 
    105 H105       24.6326  -32.1640  -37.1032 H         1 UNK         0.3055 
    106 H106       22.5260  -32.6876  -36.7019 H         1 UNK         0.1106 
    107 H107       22.7581  -34.8250  -38.8972 H         1 UNK         0.0828 
    108 H108       23.0082  -35.0455  -37.1724 H         1 UNK         0.0828 
    109 H109       21.4132  -34.6456  -37.7815 H         1 UNK         0.0828 
    110 H110       22.0243  -33.3542  -40.1455 H         1 UNK         0.2931 
    111 H111       21.4305  -30.7187  -40.9236 H         1 UNK         0.0412 
    112 H112       22.1695  -32.1986  -44.0383 H         1 UNK         0.3472 
    113 H113       22.2909  -30.7973  -42.9977 H         1 UNK         0.3472 
    114 H114       19.2922  -31.1902  -39.6015 H         1 UNK         0.0970 
    115 H115       18.9259  -32.4888  -40.6951 H         1 UNK         0.0970 
    116 H116       16.5632  -31.3344  -42.2068 H         1 UNK         0.0612 
    117 H117       17.8944  -32.3279  -42.7604 H         1 UNK         0.0612 
@<TRIPOS>BOND
     1    1    2 1    
     2    1   62 1    
     3    1   63 1    
     4    1   64 1    
     5    2    3 2    
     6    2    4 am   BACKBONE|DICT|INTERRES
     7    4    5 1    
     8    4   65 1    
     9    5    6 1    
    10    5   25 1    
    11    5   66 1    
    12    6    7 1    
    13    6   67 1    
    14    6   68 1    
    15    7    8 1    
    16    8    9 1    
    17    8   69 1    
    18    8   70 1    
    19    9   10 ar   
    20    9   14 ar   
    21   10   11 ar   
    22   10   71 1    
    23   11   12 ar   
    24   11   61 1    
    25   12   13 ar   
    26   12   72 1    
    27   13   14 ar   
    28   13   15 1    
    29   14   73 1    
    30   15   16 1    
    31   15   74 1    
    32   15   75 1    
    33   16   17 1    
    34   17   18 1    
    35   17   76 1    
    36   17   77 1    
    37   18   19 1    
    38   18   27 1    
    39   18   78 1    
    40   19   20 am   BACKBONE|DICT|INTERRES
    41   19   79 1    
    42   20   21 2    
    43   20   22 1    
    44   22   23 1    
    45   22   24 1    
    46   22   80 1    
    47   23   81 1    
    48   23   82 1    
    49   23   83 1    
    50   24   25 am   BACKBONE|DICT|INTERRES
    51   24   84 1    
    52   25   26 2    
    53   27   28 2    
    54   27   29 am   BACKBONE|DICT|INTERRES
    55   29   30 1    
    56   29   85 1    
    57   30   31 1    
    58   30   32 1    
    59   30   86 1    
    60   31   87 1    
    61   31   88 1    
    62   31   89 1    
    63   32   33 2    
    64   32   34 am   BACKBONE|DICT|INTERRES
    65   34   35 1    
    66   34   90 1    
    67   35   36 1    
    68   35   37 1    
    69   35   91 1    
    70   36   92 1    
    71   36   93 1    
    72   36   94 1    
    73   37   38 2    
    74   37   39 am   BACKBONE|DICT|INTERRES
    75   39   40 1    
    76   39   95 1    
    77   40   41 1    
    78   40   42 1    
    79   40   96 1    
    80   41   97 1    
    81   41   98 1    
    82   41   99 1    
    83   42   43 2    
    84   42   44 am   BACKBONE|DICT|INTERRES
    85   44   45 1    
    86   44  100 1    
    87   45   46 1    
    88   45   47 1    
    89   45  101 1    
    90   46  102 1    
    91   46  103 1    
    92   46  104 1    
    93   47   48 2    
    94   47   49 am   BACKBONE|DICT|INTERRES
    95   49   50 1    
    96   49  105 1    
    97   50   51 1    
    98   50   52 1    
    99   50  106 1    
   100   51  107 1    
   101   51  108 1    
   102   51  109 1    
   103   52   53 2    
   104   52   54 am   BACKBONE|DICT|INTERRES
   105   54   55 1    
   106   54  110 1    
   107   55   56 1    
   108   55   59 1    
   109   55  111 1    
   110   56   57 am   BACKBONE|DICT|INTERRES
   111   56   58 2    
   112   57  112 1    
   113   57  113 1    
   114   59   60 1    
   115   59  114 1    
   116   59  115 1    
   117   60   61 1    
   118   61  116 1    
   119   61  117 1    
@<TRIPOS>SUBSTRUCTURE
     1 UNK         1 GROUP             0       ****    0 ROOT    
