@<TRIPOS>MOLECULE
3R8
117   119    1
SMALL
USER_CHARGES


@<TRIPOS>ATOM
      1 CA         16.2867  -23.6749  -47.8114 C.3       0 UNK        -0.2013 
      2 C          17.3383  -24.7578  -47.6220 C.2       0 UNK         0.4866 
      3 O          18.3099  -24.8062  -48.3766 O.2       0 UNK        -0.5176 
      4 N          17.1513  -25.6281  -46.6210 N.am      1 UNK        -0.4884 
      5 CA         18.0539  -26.7431  -46.3010 C.3       1 UNK         0.0853 
      6 C6         17.3966  -27.7538  -45.3329 C.3       10 UNK        -0.0849 
      7 S7         15.9496  -28.5996  -46.0514 S.3       10 UNK        -0.2776 
      8 C8         15.1193  -29.2445  -44.5556 C.3       10 UNK         0.0316 
      9 C9         16.0876  -29.8774  -43.5605 C.ar      10 UNK        -0.0863 
     10 C10        16.9270  -30.9241  -43.9540 C.ar      10 UNK        -0.1009 
     11 C11        17.8642  -31.4572  -43.0647 C.ar      10 UNK        -0.0712 
     12 C12        17.9289  -30.9683  -41.7565 C.ar      10 UNK        -0.0894 
     13 C13        17.0760  -29.9401  -41.3417 C.ar      10 UNK        -0.0745 
     14 C14        16.1627  -29.3951  -42.2499 C.ar      10 UNK        -0.0972 
     15 C15        17.1234  -29.4319  -39.9066 C.3       10 UNK         0.0209 
     16 S16        18.7026  -28.6260  -39.4919 S.3       10 UNK        -0.2568 
     17 C17        18.6457  -27.0946  -40.4854 C.3       10 UNK        -0.0983 
     18 CA         20.0227  -26.7618  -41.1133 C.3       3 UNK         0.0876 
     19 N          19.8845  -25.8779  -42.2748 N.am      3 UNK        -0.4424 
     20 C          20.8907  -25.5037  -43.0778 C.2       2 UNK         0.4918 
     21 O          22.0532  -25.8882  -42.9406 O.2       2 UNK        -0.4875 
     22 CA         20.5100  -24.5663  -44.2406 C.3       2 UNK         0.0481 
     23 CB         21.7135  -24.1915  -45.1318 C.3       2 UNK        -0.1831 
     24 N          19.4070  -25.1189  -45.0377 N.am      2 UNK        -0.4498 
     25 C          19.4011  -26.2852  -45.7057 C.2       1 UNK         0.5027 
     26 O          20.3855  -27.0137  -45.8353 O.2       1 UNK        -0.4969 
     27 C          21.0029  -26.1793  -40.0681 C.2       3 UNK         0.5005 
     28 O          21.0820  -24.9578  -39.9147 O.2       3 UNK        -0.5279 
     29 N          21.7414  -27.0703  -39.3954 N.am      4 UNK        -0.4463 
     30 CA         22.8183  -26.8372  -38.4227 C.3       4 UNK         0.0283 
     31 CB         22.4465  -25.8178  -37.3277 C.3       4 UNK        -0.1875 
     32 C          24.1675  -26.5106  -39.0831 C.2       4 UNK         0.4949 
     33 O          25.1941  -26.9515  -38.5667 O.2       4 UNK        -0.5039 
     34 N          24.1592  -25.8167  -40.2322 N.am      5 UNK        -0.4663 
     35 CA         25.2998  -25.7756  -41.1547 C.3       5 UNK         0.0242 
     36 CB         25.1719  -24.5921  -42.1281 C.3       5 UNK        -0.1982 
     37 C          25.4047  -27.1240  -41.8863 C.2       5 UNK         0.5017 
     38 O          26.4523  -27.7690  -41.8345 O.2       5 UNK        -0.5012 
     39 N          24.2768  -27.5711  -42.4556 N.am      6 UNK        -0.4439 
     40 CA         23.9992  -28.9722  -42.7532 C.3       6 UNK         0.0297 
     41 CB         22.9616  -29.0582  -43.8867 C.3       6 UNK        -0.2006 
     42 C          23.4831  -29.6150  -41.4566 C.2       6 UNK         0.4892 
     43 O          22.3147  -29.4341  -41.1102 O.2       6 UNK        -0.5089 
     44 N          24.3798  -30.2838  -40.7205 N.am      7 UNK        -0.4243 
     45 CA         24.0900  -30.8659  -39.4052 C.3       7 UNK         0.0196 
     46 CB         25.4042  -31.2821  -38.7256 C.3       7 UNK        -0.2007 
     47 C          23.1072  -32.0474  -39.4649 C.2       7 UNK         0.5020 
     48 O          22.2419  -32.1600  -38.5966 O.2       7 UNK        -0.5147 
     49 N          23.2572  -32.8964  -40.4887 N.am      8 UNK        -0.4734 
     50 CA         22.3987  -34.0592  -40.7427 C.3       8 UNK         0.0238 
     51 CB         23.0143  -35.3036  -40.0738 C.3       8 UNK        -0.1912 
     52 C          22.1402  -34.2882  -42.2429 C.2       8 UNK         0.5038 
     53 O          21.5491  -35.3093  -42.5959 O.2       8 UNK        -0.5046 
     54 N          22.5889  -33.3549  -43.0961 N.am      9 UNK        -0.4200 
     55 CA         22.4958  -33.3981  -44.5682 C.3       9 UNK         0.0839 
     56 C          23.3195  -34.5382  -45.2448 C.2       9 UNK         0.5513 
     57 N          24.2960  -35.1363  -44.5727 N.am      9 UNK        -0.7519 
     58 O          23.0972  -34.8662  -46.4077 O.2       9 UNK        -0.4960 
     59 C59        21.0320  -33.3249  -45.0906 C.3       10 UNK        -0.0876 
     60 S60        20.1612  -31.8243  -44.5268 S.3       10 UNK        -0.2414 
     61 C61        18.8182  -32.5429  -43.5340 C.3       10 UNK         0.0169 
     62 H62        15.8449  -23.7513  -48.8045 H         1 UNK         0.0903 
     63 H63        15.4848  -23.7512  -47.0773 H         1 UNK         0.0903 
     64 H64        16.7415  -22.6893  -47.7158 H         1 UNK         0.0903 
     65 H65        16.3173  -25.5634  -46.0540 H         1 UNK         0.3096 
     66 H66        18.2867  -27.2640  -47.2329 H         1 UNK         0.1121 
     67 H67        18.1128  -28.5285  -45.0483 H         1 UNK         0.0849 
     68 H68        17.0997  -27.2590  -44.4059 H         1 UNK         0.0849 
     69 H69        14.5665  -28.4277  -44.0888 H         1 UNK         0.0865 
     70 H70        14.3760  -29.9856  -44.8526 H         1 UNK         0.0865 
     71 H71        16.8817  -31.2945  -44.9693 H         1 UNK         0.1346 
     72 H72        18.6497  -31.3781  -41.0618 H         1 UNK         0.1412 
     73 H73        15.5110  -28.5911  -41.9354 H         1 UNK         0.1426 
     74 H74        16.9752  -30.2754  -39.2310 H         1 UNK         0.0716 
     75 H75        16.3064  -28.7363  -39.7082 H         1 UNK         0.0716 
     76 H76        18.2785  -26.2740  -39.8659 H         1 UNK         0.0695 
     77 H77        17.9051  -27.2288  -41.2747 H         1 UNK         0.0695 
     78 H78        20.4508  -27.6868  -41.5050 H         1 UNK         0.0983 
     79 H79        18.9668  -25.4942  -42.4402 H         1 UNK         0.3095 
     80 H80        20.1372  -23.6460  -43.7890 H         1 UNK         0.0454 
     81 H81        22.1815  -25.0692  -45.5784 H         1 UNK         0.0851 
     82 H82        22.4810  -23.6790  -44.5507 H         1 UNK         0.0851 
     83 H83        21.4166  -23.5224  -45.9391 H         1 UNK         0.0851 
     84 H84        18.5412  -24.5984  -45.0148 H         1 UNK         0.2976 
     85 H85        21.6355  -28.0417  -39.6750 H         1 UNK         0.3116 
     86 H86        22.9496  -27.7989  -37.9244 H         1 UNK         0.0646 
     87 H87        22.3993  -24.7986  -37.7117 H         1 UNK         0.0847 
     88 H88        23.1915  -25.8220  -36.5313 H         1 UNK         0.0847 
     89 H89        21.4842  -26.0534  -36.8734 H         1 UNK         0.0847 
     90 H90        23.2717  -25.4708  -40.5749 H         1 UNK         0.3040 
     91 H91        26.2164  -25.6352  -40.5767 H         1 UNK         0.1015 
     92 H92        24.2854  -24.6620  -42.7564 H         1 UNK         0.0786 
     93 H93        26.0353  -24.5450  -42.7929 H         1 UNK         0.0786 
     94 H94        25.1254  -23.6444  -41.5915 H         1 UNK         0.0786 
     95 H95        23.4711  -26.9481  -42.4902 H         1 UNK         0.3172 
     96 H96        24.9103  -29.4780  -43.0797 H         1 UNK         0.0595 
     97 H97        22.7389  -30.0961  -44.1333 H         1 UNK         0.0839 
     98 H98        23.3257  -28.5785  -44.7952 H         1 UNK         0.0839 
     99 H99        22.0177  -28.5808  -43.6192 H         1 UNK         0.0839 
    100 H100       25.3358  -30.3345  -41.0446 H         1 UNK         0.2998 
    101 H101       23.6274  -30.0891  -38.7926 H         1 UNK         0.0822 
    102 H102       25.2152  -31.7028  -37.7369 H         1 UNK         0.0787 
    103 H103       25.9405  -32.0357  -39.3035 H         1 UNK         0.0787 
    104 H104       26.0667  -30.4267  -38.5902 H         1 UNK         0.0787 
    105 H105       24.0344  -32.7534  -41.1172 H         1 UNK         0.3055 
    106 H106       21.4142  -33.8844  -40.3022 H         1 UNK         0.1106 
    107 H107       22.3805  -36.1809  -40.2104 H         1 UNK         0.0828 
    108 H108       23.9944  -35.5400  -40.4891 H         1 UNK         0.0828 
    109 H109       23.1315  -35.1587  -38.9998 H         1 UNK         0.0828 
    110 H110       23.0138  -32.5253  -42.7148 H         1 UNK         0.2931 
    111 H111       22.9920  -32.4871  -44.9045 H         1 UNK         0.0412 
    112 H112       24.5014  -34.8752  -43.6223 H         1 UNK         0.3472 
    113 H113       24.8293  -35.8639  -45.0227 H         1 UNK         0.3472 
    114 H114       21.0167  -33.3049  -46.1817 H         1 UNK         0.0970 
    115 H115       20.4755  -34.2182  -44.8032 H         1 UNK         0.0970 
    116 H116       18.2730  -33.2757  -44.1308 H         1 UNK         0.0612 
    117 H117       19.2422  -33.0808  -42.6847 H         1 UNK         0.0612 
@<TRIPOS>BOND
     1    1    2 1    
     2    1   62 1    
     3    1   63 1    
     4    1   64 1    
     5    2    3 2    
     6    2    4 am   BACKBONE|DICT|INTERRES
     7    4    5 1    
     8    4   65 1    
     9    5    6 1    
    10    5   25 1    
    11    5   66 1    
    12    6    7 1    
    13    6   67 1    
    14    6   68 1    
    15    7    8 1    
    16    8    9 1    
    17    8   69 1    
    18    8   70 1    
    19    9   10 ar   
    20    9   14 ar   
    21   10   11 ar   
    22   10   71 1    
    23   11   12 ar   
    24   11   61 1    
    25   12   13 ar   
    26   12   72 1    
    27   13   14 ar   
    28   13   15 1    
    29   14   73 1    
    30   15   16 1    
    31   15   74 1    
    32   15   75 1    
    33   16   17 1    
    34   17   18 1    
    35   17   76 1    
    36   17   77 1    
    37   18   19 1    
    38   18   27 1    
    39   18   78 1    
    40   19   20 am   BACKBONE|DICT|INTERRES
    41   19   79 1    
    42   20   21 2    
    43   20   22 1    
    44   22   23 1    
    45   22   24 1    
    46   22   80 1    
    47   23   81 1    
    48   23   82 1    
    49   23   83 1    
    50   24   25 am   BACKBONE|DICT|INTERRES
    51   24   84 1    
    52   25   26 2    
    53   27   28 2    
    54   27   29 am   BACKBONE|DICT|INTERRES
    55   29   30 1    
    56   29   85 1    
    57   30   31 1    
    58   30   32 1    
    59   30   86 1    
    60   31   87 1    
    61   31   88 1    
    62   31   89 1    
    63   32   33 2    
    64   32   34 am   BACKBONE|DICT|INTERRES
    65   34   35 1    
    66   34   90 1    
    67   35   36 1    
    68   35   37 1    
    69   35   91 1    
    70   36   92 1    
    71   36   93 1    
    72   36   94 1    
    73   37   38 2    
    74   37   39 am   BACKBONE|DICT|INTERRES
    75   39   40 1    
    76   39   95 1    
    77   40   41 1    
    78   40   42 1    
    79   40   96 1    
    80   41   97 1    
    81   41   98 1    
    82   41   99 1    
    83   42   43 2    
    84   42   44 am   BACKBONE|DICT|INTERRES
    85   44   45 1    
    86   44  100 1    
    87   45   46 1    
    88   45   47 1    
    89   45  101 1    
    90   46  102 1    
    91   46  103 1    
    92   46  104 1    
    93   47   48 2    
    94   47   49 am   BACKBONE|DICT|INTERRES
    95   49   50 1    
    96   49  105 1    
    97   50   51 1    
    98   50   52 1    
    99   50  106 1    
   100   51  107 1    
   101   51  108 1    
   102   51  109 1    
   103   52   53 2    
   104   52   54 am   BACKBONE|DICT|INTERRES
   105   54   55 1    
   106   54  110 1    
   107   55   56 1    
   108   55   59 1    
   109   55  111 1    
   110   56   57 am   BACKBONE|DICT|INTERRES
   111   56   58 2    
   112   57  112 1    
   113   57  113 1    
   114   59   60 1    
   115   59  114 1    
   116   59  115 1    
   117   60   61 1    
   118   61  116 1    
   119   61  117 1    
@<TRIPOS>SUBSTRUCTURE
     1 UNK         1 GROUP             0       ****    0 ROOT    
