@<TRIPOS>MOLECULE
3R8
117   119    1
SMALL
USER_CHARGES


@<TRIPOS>ATOM
      1 CA         18.8457  -27.8619  -41.8110 C.3       0 UNK        -0.2013 
      2 C          17.9749  -26.7353  -42.3338 C.2       0 UNK         0.4866 
      3 O          18.0300  -25.6276  -41.8003 O.2       0 UNK        -0.5176 
      4 N          17.1654  -27.0075  -43.3680 N.am      1 UNK        -0.4884 
      5 CA         16.2769  -26.0205  -43.9953 C.3       1 UNK         0.0853 
      6 C6         15.1672  -26.6827  -44.8514 C.3       10 UNK        -0.0849 
      7 S7         15.7494  -27.6209  -46.3111 S.3       10 UNK        -0.2776 
      8 C8         15.5418  -29.3580  -45.8021 C.3       10 UNK         0.0316 
      9 C9         16.7905  -29.9305  -45.1427 C.ar      10 UNK        -0.0863 
     10 C10        16.7340  -30.4546  -43.8464 C.ar      10 UNK        -0.1009 
     11 C11        17.8546  -31.0735  -43.2808 C.ar      10 UNK        -0.0712 
     12 C12        19.0418  -31.1480  -44.0179 C.ar      10 UNK        -0.0894 
     13 C13        19.1188  -30.6093  -45.3043 C.ar      10 UNK        -0.0745 
     14 C14        17.9873  -30.0092  -45.8637 C.ar      10 UNK        -0.0972 
     15 C15        20.4079  -30.7300  -46.1070 C.3       10 UNK         0.0209 
     16 S16        21.1617  -29.1182  -46.4953 S.3       10 UNK        -0.2568 
     17 C17        21.6565  -28.5067  -44.8480 C.3       10 UNK        -0.0983 
     18 CA         21.8092  -26.9633  -44.8329 C.3       3 UNK         0.0876 
     19 N          20.5705  -26.2952  -45.2342 N.am      3 UNK        -0.4424 
     20 C          20.4798  -25.0968  -45.8276 C.2       2 UNK         0.4918 
     21 O          21.4568  -24.3852  -46.0652 O.2       2 UNK        -0.4875 
     22 CA         19.0754  -24.6031  -46.2192 C.3       2 UNK         0.0481 
     23 CB         18.8878  -24.6735  -47.7434 C.3       2 UNK        -0.1831 
     24 N          18.0331  -25.4015  -45.5724 N.am      2 UNK        -0.4498 
     25 C          17.0794  -24.9413  -44.7543 C.2       1 UNK         0.5027 
     26 O          16.8601  -23.7473  -44.5441 O.2       1 UNK        -0.4969 
     27 C          22.2623  -26.4221  -43.4628 C.2       3 UNK         0.5005 
     28 O          22.1949  -27.1353  -42.4599 O.2       3 UNK        -0.5279 
     29 N          22.6965  -25.1530  -43.4476 N.am      4 UNK        -0.4463 
     30 CA         23.0412  -24.3465  -42.2672 C.3       4 UNK         0.0283 
     31 CB         23.4627  -22.9431  -42.7324 C.3       4 UNK        -0.1875 
     32 C          24.1070  -24.9396  -41.3239 C.2       4 UNK         0.4949 
     33 O          24.1937  -24.5076  -40.1744 O.2       4 UNK        -0.5039 
     34 N          24.8792  -25.9241  -41.8037 N.am      5 UNK        -0.4663 
     35 CA         25.8014  -26.7340  -41.0043 C.3       5 UNK         0.0242 
     36 CB         26.6663  -27.5856  -41.9481 C.3       5 UNK        -0.1982 
     37 C          25.0972  -27.6358  -39.9709 C.2       5 UNK         0.5017 
     38 O          25.7460  -28.0442  -39.0077 O.2       5 UNK        -0.5012 
     39 N          23.8096  -27.9530  -40.1922 N.am      6 UNK        -0.4439 
     40 CA         22.8865  -28.7415  -39.3581 C.3       6 UNK         0.0297 
     41 CB         22.6769  -28.0829  -37.9819 C.3       6 UNK        -0.2006 
     42 C          23.2319  -30.2355  -39.2052 C.2       6 UNK         0.4892 
     43 O          22.3153  -31.0531  -39.1273 O.2       6 UNK        -0.5089 
     44 N          24.5256  -30.5839  -39.2030 N.am      7 UNK        -0.4243 
     45 CA         25.0572  -31.9502  -39.1226 C.3       7 UNK         0.0196 
     46 CB         26.5920  -31.8887  -39.0779 C.3       7 UNK        -0.2007 
     47 C          24.5896  -32.8732  -40.2630 C.2       7 UNK         0.5020 
     48 O          24.5239  -34.0878  -40.0719 O.2       7 UNK        -0.5147 
     49 N          24.2260  -32.2799  -41.4092 N.am      8 UNK        -0.4734 
     50 CA         23.6184  -32.9483  -42.5632 C.3       8 UNK         0.0238 
     51 CB         23.4676  -31.9303  -43.7047 C.3       8 UNK        -0.1912 
     52 C          22.2616  -33.6150  -42.2616 C.2       8 UNK         0.5038 
     53 O          21.8798  -34.5334  -42.9878 O.2       8 UNK        -0.5046 
     54 N          21.5683  -33.1608  -41.2076 N.am      9 UNK        -0.4200 
     55 CA         20.3304  -33.7712  -40.7001 C.3       9 UNK         0.0839 
     56 C          20.5568  -35.0780  -39.8842 C.2       9 UNK         0.5513 
     57 N          21.7850  -35.4669  -39.5578 N.am      9 UNK        -0.7519 
     58 O          19.5929  -35.7602  -39.5462 O.2       9 UNK        -0.4960 
     59 C59        19.4596  -32.7627  -39.9017 C.3       10 UNK        -0.0876 
     60 S60        19.1340  -31.2153  -40.8101 S.3       10 UNK        -0.2414 
     61 C61        17.7656  -31.7192  -41.9027 C.3       10 UNK         0.0169 
     62 H62        19.0709  -28.5893  -42.5885 H         1 UNK         0.0903 
     63 H63        19.7896  -27.4727  -41.4315 H         1 UNK         0.0903 
     64 H64        18.3380  -28.3712  -40.9932 H         1 UNK         0.0903 
     65 H65        17.1418  -27.9393  -43.7619 H         1 UNK         0.3096 
     66 H66        15.7668  -25.4964  -43.1830 H         1 UNK         0.1121 
     67 H67        14.5629  -27.3340  -44.2185 H         1 UNK         0.0849 
     68 H68        14.4767  -25.9162  -45.2081 H         1 UNK         0.0849 
     69 H69        14.6667  -29.4614  -45.1589 H         1 UNK         0.0865 
     70 H70        15.3256  -29.9507  -46.6922 H         1 UNK         0.0865 
     71 H71        15.8063  -30.4174  -43.2913 H         1 UNK         0.1346 
     72 H72        19.9044  -31.6400  -43.5892 H         1 UNK         0.1412 
     73 H73        18.0341  -29.6189  -46.8717 H         1 UNK         0.1426 
     74 H74        21.1388  -31.3453  -45.5820 H         1 UNK         0.0716 
     75 H75        20.1916  -31.2476  -47.0425 H         1 UNK         0.0716 
     76 H76        20.9241  -28.8301  -44.1073 H         1 UNK         0.0695 
     77 H77        22.6003  -28.9840  -44.5797 H         1 UNK         0.0695 
     78 H78        22.5923  -26.7099  -45.5516 H         1 UNK         0.0983 
     79 H79        19.7254  -26.8042  -45.0370 H         1 UNK         0.3095 
     80 H80        19.0042  -23.5594  -45.9072 H         1 UNK         0.0454 
     81 H81        18.9697  -25.6959  -48.1144 H         1 UNK         0.0851 
     82 H82        17.9124  -24.2873  -48.0394 H         1 UNK         0.0851 
     83 H83        19.6419  -24.0770  -48.2587 H         1 UNK         0.0851 
     84 H84        18.0475  -26.3966  -45.7441 H         1 UNK         0.2976 
     85 H85        22.6678  -24.6549  -44.3308 H         1 UNK         0.3116 
     86 H86        22.1271  -24.2475  -41.6783 H         1 UNK         0.0646 
     87 H87        23.6885  -22.2984  -41.8817 H         1 UNK         0.0847 
     88 H88        22.6699  -22.4566  -43.3010 H         1 UNK         0.0847 
     89 H89        24.3543  -22.9780  -43.3597 H         1 UNK         0.0847 
     90 H90        24.7409  -26.2037  -42.7636 H         1 UNK         0.3040 
     91 H91        26.4550  -26.0562  -40.4504 H         1 UNK         0.1015 
     92 H92        27.2346  -26.9611  -42.6377 H         1 UNK         0.0786 
     93 H93        26.0622  -28.2761  -42.5383 H         1 UNK         0.0786 
     94 H94        27.3871  -28.1818  -41.3864 H         1 UNK         0.0786 
     95 H95        23.3805  -27.5858  -41.0406 H         1 UNK         0.3172 
     96 H96        21.9305  -28.7052  -39.8837 H         1 UNK         0.0595 
     97 H97        21.9100  -28.6097  -37.4123 H         1 UNK         0.0839 
     98 H98        22.3508  -27.0478  -38.0843 H         1 UNK         0.0839 
     99 H99        23.5874  -28.0904  -37.3821 H         1 UNK         0.0839 
    100 H100       25.2003  -29.8237  -39.2080 H         1 UNK         0.2998 
    101 H101       24.6998  -32.3857  -38.1872 H         1 UNK         0.0822 
    102 H102       26.9412  -31.3122  -38.2209 H         1 UNK         0.0787 
    103 H103       27.0214  -32.8880  -38.9915 H         1 UNK         0.0787 
    104 H104       27.0034  -31.4324  -39.9793 H         1 UNK         0.0787 
    105 H105       24.3163  -31.2760  -41.4628 H         1 UNK         0.3055 
    106 H106       24.3015  -33.7370  -42.8863 H         1 UNK         0.1106 
    107 H107       24.4229  -31.4737  -43.9643 H         1 UNK         0.0828 
    108 H108       23.0882  -32.4133  -44.6061 H         1 UNK         0.0828 
    109 H109       22.7712  -31.1334  -43.4414 H         1 UNK         0.0828 
    110 H110       21.9454  -32.4045  -40.6468 H         1 UNK         0.2931 
    111 H111       19.7445  -34.0731  -41.5700 H         1 UNK         0.0412 
    112 H112       21.9064  -36.3186  -39.0330 H         1 UNK         0.3472 
    113 H113       22.5964  -34.9235  -39.8268 H         1 UNK         0.3472 
    114 H114       19.9548  -32.4991  -38.9653 H         1 UNK         0.0970 
    115 H115       18.5044  -33.2108  -39.6211 H         1 UNK         0.0970 
    116 H116       16.8228  -31.4709  -41.4131 H         1 UNK         0.0612 
    117 H117       17.7702  -32.8013  -42.0360 H         1 UNK         0.0612 
@<TRIPOS>BOND
     1    1    2 1    
     2    1   62 1    
     3    1   63 1    
     4    1   64 1    
     5    2    3 2    
     6    2    4 am   BACKBONE|DICT|INTERRES
     7    4    5 1    
     8    4   65 1    
     9    5    6 1    
    10    5   25 1    
    11    5   66 1    
    12    6    7 1    
    13    6   67 1    
    14    6   68 1    
    15    7    8 1    
    16    8    9 1    
    17    8   69 1    
    18    8   70 1    
    19    9   10 ar   
    20    9   14 ar   
    21   10   11 ar   
    22   10   71 1    
    23   11   12 ar   
    24   11   61 1    
    25   12   13 ar   
    26   12   72 1    
    27   13   14 ar   
    28   13   15 1    
    29   14   73 1    
    30   15   16 1    
    31   15   74 1    
    32   15   75 1    
    33   16   17 1    
    34   17   18 1    
    35   17   76 1    
    36   17   77 1    
    37   18   19 1    
    38   18   27 1    
    39   18   78 1    
    40   19   20 am   BACKBONE|DICT|INTERRES
    41   19   79 1    
    42   20   21 2    
    43   20   22 1    
    44   22   23 1    
    45   22   24 1    
    46   22   80 1    
    47   23   81 1    
    48   23   82 1    
    49   23   83 1    
    50   24   25 am   BACKBONE|DICT|INTERRES
    51   24   84 1    
    52   25   26 2    
    53   27   28 2    
    54   27   29 am   BACKBONE|DICT|INTERRES
    55   29   30 1    
    56   29   85 1    
    57   30   31 1    
    58   30   32 1    
    59   30   86 1    
    60   31   87 1    
    61   31   88 1    
    62   31   89 1    
    63   32   33 2    
    64   32   34 am   BACKBONE|DICT|INTERRES
    65   34   35 1    
    66   34   90 1    
    67   35   36 1    
    68   35   37 1    
    69   35   91 1    
    70   36   92 1    
    71   36   93 1    
    72   36   94 1    
    73   37   38 2    
    74   37   39 am   BACKBONE|DICT|INTERRES
    75   39   40 1    
    76   39   95 1    
    77   40   41 1    
    78   40   42 1    
    79   40   96 1    
    80   41   97 1    
    81   41   98 1    
    82   41   99 1    
    83   42   43 2    
    84   42   44 am   BACKBONE|DICT|INTERRES
    85   44   45 1    
    86   44  100 1    
    87   45   46 1    
    88   45   47 1    
    89   45  101 1    
    90   46  102 1    
    91   46  103 1    
    92   46  104 1    
    93   47   48 2    
    94   47   49 am   BACKBONE|DICT|INTERRES
    95   49   50 1    
    96   49  105 1    
    97   50   51 1    
    98   50   52 1    
    99   50  106 1    
   100   51  107 1    
   101   51  108 1    
   102   51  109 1    
   103   52   53 2    
   104   52   54 am   BACKBONE|DICT|INTERRES
   105   54   55 1    
   106   54  110 1    
   107   55   56 1    
   108   55   59 1    
   109   55  111 1    
   110   56   57 am   BACKBONE|DICT|INTERRES
   111   56   58 2    
   112   57  112 1    
   113   57  113 1    
   114   59   60 1    
   115   59  114 1    
   116   59  115 1    
   117   60   61 1    
   118   61  116 1    
   119   61  117 1    
@<TRIPOS>SUBSTRUCTURE
     1 UNK         1 GROUP             0       ****    0 ROOT    
