@<TRIPOS>MOLECULE
3R8
117   119    1
SMALL
USER_CHARGES


@<TRIPOS>ATOM
      1 CA         17.9927  -21.0916  -48.1711 C.3       0 UNK        -0.2013 
      2 C          18.6938  -22.4000  -47.8370 C.2       0 UNK         0.4866 
      3 O          19.5015  -22.8817  -48.6320 O.2       0 UNK        -0.5176 
      4 N          18.3931  -22.9771  -46.6692 N.am      1 UNK        -0.4884 
      5 CA         18.9892  -24.2149  -46.1713 C.3       1 UNK         0.0853 
      6 C6         18.3624  -25.4811  -46.8245 C.3       10 UNK        -0.0849 
      7 S7         19.0595  -27.0539  -46.2058 S.3       10 UNK        -0.2776 
      8 C8         17.5525  -27.9191  -45.6366 C.3       10 UNK         0.0316 
      9 C9         17.8289  -29.1950  -44.8420 C.ar      10 UNK        -0.0863 
     10 C10        18.8843  -30.0506  -45.1777 C.ar      10 UNK        -0.1009 
     11 C11        19.1296  -31.2125  -44.4406 C.ar      10 UNK        -0.0712 
     12 C12        18.2929  -31.5336  -43.3669 C.ar      10 UNK        -0.0894 
     13 C13        17.2132  -30.7066  -43.0367 C.ar      10 UNK        -0.0745 
     14 C14        16.9893  -29.5404  -43.7769 C.ar      10 UNK        -0.0972 
     15 C15        16.2691  -31.0925  -41.9034 C.3       10 UNK         0.0209 
     16 S16        16.9503  -30.7028  -40.2586 S.3       10 UNK        -0.2568 
     17 C17        16.6888  -28.8995  -40.1317 C.3       10 UNK        -0.0983 
     18 CA         17.8760  -28.0746  -40.6908 C.3       3 UNK         0.0876 
     19 N          17.4279  -26.7938  -41.2584 N.am      3 UNK        -0.4424 
     20 C          18.1253  -26.0723  -42.1453 C.2       2 UNK         0.4918 
     21 O          19.2670  -26.3694  -42.4969 O.2       2 UNK        -0.4875 
     22 CA         17.4386  -24.8004  -42.6769 C.3       2 UNK         0.0481 
     23 CB         17.7473  -23.5848  -41.7801 C.3       2 UNK        -0.1831 
     24 N          17.7516  -24.5438  -44.0896 N.am      2 UNK        -0.4498 
     25 C          18.9202  -24.1693  -44.6363 C.2       1 UNK         0.5027 
     26 O          19.9007  -23.7728  -44.0045 O.2       1 UNK        -0.4969 
     27 C          19.0728  -27.9592  -39.7154 C.2       3 UNK         0.5005 
     28 O          19.6157  -28.9804  -39.2981 O.2       3 UNK        -0.5279 
     29 N          19.5514  -26.7345  -39.4465 N.am      4 UNK        -0.4463 
     30 CA         20.8754  -26.4663  -38.8712 C.3       4 UNK         0.0283 
     31 CB         21.0439  -24.9520  -38.6711 C.3       4 UNK        -0.1875 
     32 C          22.0319  -27.0289  -39.7275 C.2       4 UNK         0.4949 
     33 O          23.0900  -27.3429  -39.1823 O.2       4 UNK        -0.5039 
     34 N          21.7959  -27.1960  -41.0390 N.am      5 UNK        -0.4663 
     35 CA         22.6936  -27.8620  -41.9839 C.3       5 UNK         0.0242 
     36 CB         22.1700  -27.6375  -43.4121 C.3       5 UNK        -0.1982 
     37 C          22.8797  -29.3690  -41.7252 C.2       5 UNK         0.5017 
     38 O          23.8560  -29.9314  -42.2244 O.2       5 UNK        -0.5012 
     39 N          21.9813  -30.0075  -40.9535 N.am      6 UNK        -0.4439 
     40 CA         21.9984  -31.4487  -40.6608 C.3       6 UNK         0.0297 
     41 CB         20.7081  -31.8583  -39.9378 C.3       6 UNK        -0.2006 
     42 C          23.2350  -31.9356  -39.8837 C.2       6 UNK         0.4892 
     43 O          23.4905  -33.1392  -39.8643 O.2       6 UNK        -0.5089 
     44 N          24.0172  -31.0081  -39.3135 N.am      7 UNK        -0.4243 
     45 CA         25.3669  -31.2620  -38.8040 C.3       7 UNK         0.0196 
     46 CB         25.8893  -29.9911  -38.1153 C.3       7 UNK        -0.2007 
     47 C          26.3508  -31.7270  -39.8989 C.2       7 UNK         0.5020 
     48 O          27.3118  -32.4266  -39.5782 O.2       7 UNK        -0.5147 
     49 N          26.0922  -31.3466  -41.1587 N.am      8 UNK        -0.4734 
     50 CA         26.8350  -31.7814  -42.3385 C.3       8 UNK         0.0238 
     51 CB         27.1914  -30.5581  -43.2012 C.3       8 UNK        -0.1912 
     52 C          26.0300  -32.8079  -43.1499 C.2       8 UNK         0.5038 
     53 O          26.5625  -33.8800  -43.4399 O.2       8 UNK        -0.5046 
     54 N          24.7851  -32.4682  -43.5207 N.am      9 UNK        -0.4200 
     55 CA         23.9389  -33.2916  -44.4073 C.3       9 UNK         0.0839 
     56 C          23.1449  -34.4392  -43.7201 C.2       9 UNK         0.5513 
     57 N          23.1786  -34.5942  -42.4041 N.am      9 UNK        -0.7519 
     58 O          22.4973  -35.2273  -44.4045 O.2       9 UNK        -0.4960 
     59 C59        23.0577  -32.4339  -45.3553 C.3       10 UNK        -0.0876 
     60 S60        21.8871  -31.3160  -44.5159 S.3       10 UNK        -0.2414 
     61 C61        20.2876  -32.1209  -44.8313 C.3       10 UNK         0.0169 
     62 H62        17.3024  -20.7852  -47.3854 H         1 UNK         0.0903 
     63 H63        18.7260  -20.2971  -48.3068 H         1 UNK         0.0903 
     64 H64        17.4273  -21.1951  -49.0969 H         1 UNK         0.0903 
     65 H65        17.7527  -22.5195  -46.0333 H         1 UNK         0.3096 
     66 H66        20.0528  -24.2087  -46.4235 H         1 UNK         0.1121 
     67 H67        17.2777  -25.4795  -46.7089 H         1 UNK         0.0849 
     68 H68        18.5358  -25.4547  -47.9013 H         1 UNK         0.0849 
     69 H69        16.9668  -27.2310  -45.0261 H         1 UNK         0.0865 
     70 H70        16.9377  -28.1705  -46.5018 H         1 UNK         0.0865 
     71 H71        19.5305  -29.8118  -46.0110 H         1 UNK         0.1346 
     72 H72        18.4714  -32.4341  -42.7951 H         1 UNK         0.1412 
     73 H73        16.1554  -28.9009  -43.5211 H         1 UNK         0.1426 
     74 H74        16.0773  -32.1654  -41.9512 H         1 UNK         0.0716 
     75 H75        15.2978  -30.6105  -42.0244 H         1 UNK         0.0716 
     76 H76        15.7701  -28.6637  -40.6709 H         1 UNK         0.0695 
     77 H77        16.4915  -28.6422  -39.0895 H         1 UNK         0.0695 
     78 H78        18.2882  -28.6324  -41.5334 H         1 UNK         0.0983 
     79 H79        16.5099  -26.4772  -40.9796 H         1 UNK         0.3095 
     80 H80        16.3610  -24.9690  -42.6468 H         1 UNK         0.0454 
     81 H81        17.3453  -23.7291  -40.7767 H         1 UNK         0.0851 
     82 H82        18.8189  -23.4139  -41.6728 H         1 UNK         0.0851 
     83 H83        17.3007  -22.6737  -42.1779 H         1 UNK         0.0851 
     84 H84        17.0213  -24.8156  -44.7315 H         1 UNK         0.2976 
     85 H85        19.0544  -25.9432  -39.8273 H         1 UNK         0.3116 
     86 H86        20.9208  -26.9529  -37.8947 H         1 UNK         0.0646 
     87 H87        22.0115  -24.7245  -38.2213 H         1 UNK         0.0847 
     88 H88        20.2783  -24.5501  -38.0073 H         1 UNK         0.0847 
     89 H89        20.9896  -24.4104  -39.6165 H         1 UNK         0.0847 
     90 H90        20.9042  -26.8907  -41.4187 H         1 UNK         0.3040 
     91 H91        23.6773  -27.3956  -41.8984 H         1 UNK         0.1015 
     92 H92        22.0721  -26.5761  -43.6412 H         1 UNK         0.0786 
     93 H93        21.1929  -28.1012  -43.5604 H         1 UNK         0.0786 
     94 H94        22.8472  -28.0695  -44.1504 H         1 UNK         0.0786 
     95 H95        21.2213  -29.4771  -40.5401 H         1 UNK         0.3172 
     96 H96        22.0118  -31.9668  -41.6209 H         1 UNK         0.0595 
     97 H97        19.8268  -31.5719  -40.5112 H         1 UNK         0.0839 
     98 H98        20.6346  -31.3996  -38.9514 H         1 UNK         0.0839 
     99 H99        20.6644  -32.9391  -39.7981 H         1 UNK         0.0839 
    100 H100       23.7233  -30.0423  -39.3654 H         1 UNK         0.2998 
    101 H101       25.3009  -32.0588  -38.0602 H         1 UNK         0.0822 
    102 H102       25.2438  -29.6934  -37.2887 H         1 UNK         0.0787 
    103 H103       26.8874  -30.1512  -37.7051 H         1 UNK         0.0787 
    104 H104       25.9518  -29.1526  -38.8105 H         1 UNK         0.0787 
    105 H105       25.2658  -30.7821  -41.3411 H         1 UNK         0.3055 
    106 H106       27.7704  -32.2608  -42.0403 H         1 UNK         0.1106 
    107 H107       26.3048  -30.0129  -43.5271 H         1 UNK         0.0828 
    108 H108       27.8262  -29.8621  -42.6529 H         1 UNK         0.0828 
    109 H109       27.7380  -30.8579  -44.0963 H         1 UNK         0.0828 
    110 H110       24.3951  -31.5796  -43.2224 H         1 UNK         0.2931 
    111 H111       24.6198  -33.8213  -45.0766 H         1 UNK         0.0412 
    112 H112       23.6770  -33.9540  -41.8010 H         1 UNK         0.3472 
    113 H113       22.6626  -35.3551  -41.9926 H         1 UNK         0.3472 
    114 H114       22.5199  -33.0702  -46.0605 H         1 UNK         0.0970 
    115 H115       23.7060  -31.8126  -45.9748 H         1 UNK         0.0970 
    116 H116       20.2039  -32.3661  -45.8910 H         1 UNK         0.0612 
    117 H117       20.2479  -33.0645  -44.2849 H         1 UNK         0.0612 
@<TRIPOS>BOND
     1    1    2 1    
     2    1   62 1    
     3    1   63 1    
     4    1   64 1    
     5    2    3 2    
     6    2    4 am   BACKBONE|DICT|INTERRES
     7    4    5 1    
     8    4   65 1    
     9    5    6 1    
    10    5   25 1    
    11    5   66 1    
    12    6    7 1    
    13    6   67 1    
    14    6   68 1    
    15    7    8 1    
    16    8    9 1    
    17    8   69 1    
    18    8   70 1    
    19    9   10 ar   
    20    9   14 ar   
    21   10   11 ar   
    22   10   71 1    
    23   11   12 ar   
    24   11   61 1    
    25   12   13 ar   
    26   12   72 1    
    27   13   14 ar   
    28   13   15 1    
    29   14   73 1    
    30   15   16 1    
    31   15   74 1    
    32   15   75 1    
    33   16   17 1    
    34   17   18 1    
    35   17   76 1    
    36   17   77 1    
    37   18   19 1    
    38   18   27 1    
    39   18   78 1    
    40   19   20 am   BACKBONE|DICT|INTERRES
    41   19   79 1    
    42   20   21 2    
    43   20   22 1    
    44   22   23 1    
    45   22   24 1    
    46   22   80 1    
    47   23   81 1    
    48   23   82 1    
    49   23   83 1    
    50   24   25 am   BACKBONE|DICT|INTERRES
    51   24   84 1    
    52   25   26 2    
    53   27   28 2    
    54   27   29 am   BACKBONE|DICT|INTERRES
    55   29   30 1    
    56   29   85 1    
    57   30   31 1    
    58   30   32 1    
    59   30   86 1    
    60   31   87 1    
    61   31   88 1    
    62   31   89 1    
    63   32   33 2    
    64   32   34 am   BACKBONE|DICT|INTERRES
    65   34   35 1    
    66   34   90 1    
    67   35   36 1    
    68   35   37 1    
    69   35   91 1    
    70   36   92 1    
    71   36   93 1    
    72   36   94 1    
    73   37   38 2    
    74   37   39 am   BACKBONE|DICT|INTERRES
    75   39   40 1    
    76   39   95 1    
    77   40   41 1    
    78   40   42 1    
    79   40   96 1    
    80   41   97 1    
    81   41   98 1    
    82   41   99 1    
    83   42   43 2    
    84   42   44 am   BACKBONE|DICT|INTERRES
    85   44   45 1    
    86   44  100 1    
    87   45   46 1    
    88   45   47 1    
    89   45  101 1    
    90   46  102 1    
    91   46  103 1    
    92   46  104 1    
    93   47   48 2    
    94   47   49 am   BACKBONE|DICT|INTERRES
    95   49   50 1    
    96   49  105 1    
    97   50   51 1    
    98   50   52 1    
    99   50  106 1    
   100   51  107 1    
   101   51  108 1    
   102   51  109 1    
   103   52   53 2    
   104   52   54 am   BACKBONE|DICT|INTERRES
   105   54   55 1    
   106   54  110 1    
   107   55   56 1    
   108   55   59 1    
   109   55  111 1    
   110   56   57 am   BACKBONE|DICT|INTERRES
   111   56   58 2    
   112   57  112 1    
   113   57  113 1    
   114   59   60 1    
   115   59  114 1    
   116   59  115 1    
   117   60   61 1    
   118   61  116 1    
   119   61  117 1    
@<TRIPOS>SUBSTRUCTURE
     1 UNK         1 GROUP             0       ****    0 ROOT    
