@<TRIPOS>MOLECULE
3R8
117   119    1
SMALL
USER_CHARGES


@<TRIPOS>ATOM
      1 CA         18.2272  -28.1547  -40.2967 C.3       0 UNK        -0.2013 
      2 C          17.6428  -27.0366  -41.1435 C.2       0 UNK         0.4866 
      3 O          17.3253  -25.9671  -40.6209 O.2       0 UNK        -0.5176 
      4 N          17.4870  -27.2884  -42.4484 N.am      1 UNK        -0.4884 
      5 CA         16.9735  -26.3295  -43.4355 C.3       1 UNK         0.0853 
      6 C6         16.2835  -27.0360  -44.6366 C.3       10 UNK        -0.0849 
      7 S7         15.0868  -28.3246  -44.1308 S.3       10 UNK        -0.2776 
      8 C8         15.3086  -29.6074  -45.4107 C.3       10 UNK         0.0316 
      9 C9         16.7531  -30.0756  -45.5330 C.ar      10 UNK        -0.0863 
     10 C10        17.3535  -30.8046  -44.5024 C.ar      10 UNK        -0.1009 
     11 C11        18.6881  -31.2089  -44.6052 C.ar      10 UNK        -0.0712 
     12 C12        19.4239  -30.8780  -45.7480 C.ar      10 UNK        -0.0894 
     13 C13        18.8296  -30.1585  -46.7902 C.ar      10 UNK        -0.0745 
     14 C14        17.4923  -29.7692  -46.6799 C.ar      10 UNK        -0.0972 
     15 C15        19.6225  -29.8079  -48.0430 C.3       10 UNK         0.0209 
     16 S16        19.9506  -28.0200  -48.1758 S.3       10 UNK        -0.2568 
     17 C17        21.1114  -27.7834  -46.7926 C.3       10 UNK        -0.0983 
     18 CA         21.4136  -26.2944  -46.4897 C.3       3 UNK         0.0876 
     19 N          20.1885  -25.5319  -46.2290 N.am      3 UNK        -0.4424 
     20 C          20.1120  -24.2062  -46.0493 C.2       2 UNK         0.4918 
     21 O          21.0633  -23.4404  -46.2055 O.2       2 UNK        -0.4875 
     22 CA         18.7543  -23.6322  -45.5885 C.3       2 UNK         0.0481 
     23 CB         18.0408  -22.9492  -46.7664 C.3       2 UNK        -0.1831 
     24 N          17.8337  -24.5974  -44.9658 N.am      2 UNK        -0.4498 
     25 C          18.0977  -25.3714  -43.9002 C.2       1 UNK         0.5027 
     26 O          19.1936  -25.3731  -43.3320 O.2       1 UNK        -0.4969 
     27 C          22.4212  -26.2267  -45.3211 C.2       3 UNK         0.5005 
     28 O          23.6230  -26.3611  -45.5603 O.2       3 UNK        -0.5279 
     29 N          21.9180  -26.0756  -44.0836 N.am      4 UNK        -0.4463 
     30 CA         22.6082  -26.1273  -42.7871 C.3       4 UNK         0.0283 
     31 CB         23.6749  -25.0230  -42.6569 C.3       4 UNK        -0.1875 
     32 C          23.1864  -27.5119  -42.4446 C.2       4 UNK         0.4949 
     33 O          22.9219  -28.0194  -41.3548 O.2       4 UNK        -0.5039 
     34 N          23.9683  -28.0871  -43.3707 N.am      5 UNK        -0.4663 
     35 CA         24.5677  -29.4299  -43.3554 C.3       5 UNK         0.0242 
     36 CB         23.4734  -30.4897  -43.5979 C.3       5 UNK        -0.1982 
     37 C          25.3989  -29.7345  -42.0930 C.2       5 UNK         0.5017 
     38 O          25.4099  -30.8752  -41.6310 O.2       5 UNK        -0.5012 
     39 N          26.0311  -28.6975  -41.5208 N.am      6 UNK        -0.4439 
     40 CA         26.7564  -28.7026  -40.2411 C.3       6 UNK         0.0297 
     41 CB         28.0700  -29.5032  -40.3695 C.3       6 UNK        -0.2006 
     42 C          25.8977  -29.1655  -39.0402 C.2       6 UNK         0.4892 
     43 O          26.4440  -29.7016  -38.0748 O.2       6 UNK        -0.5089 
     44 N          24.5725  -28.9630  -39.1321 N.am      7 UNK        -0.4243 
     45 CA         23.5304  -29.4034  -38.1981 C.3       7 UNK         0.0196 
     46 CB         23.6863  -28.7203  -36.8222 C.3       7 UNK        -0.2007 
     47 C          23.3916  -30.9375  -38.0965 C.2       7 UNK         0.5020 
     48 O          22.8972  -31.4331  -37.0832 O.2       7 UNK        -0.5147 
     49 N          23.7971  -31.6723  -39.1445 N.am      8 UNK        -0.4734 
     50 CA         23.6870  -33.1352  -39.2195 C.3       8 UNK         0.0238 
     51 CB         24.6777  -33.6654  -40.2691 C.3       8 UNK        -0.1912 
     52 C          22.2631  -33.6398  -39.5248 C.2       8 UNK         0.5038 
     53 O          22.0258  -34.8437  -39.4127 O.2       8 UNK        -0.5046 
     54 N          21.3582  -32.7344  -39.9224 N.am      9 UNK        -0.4200 
     55 CA         19.9427  -32.9993  -40.2207 C.3       9 UNK         0.0839 
     56 C          19.1742  -33.6348  -39.0288 C.2       9 UNK         0.5513 
     57 N          18.3077  -34.6028  -39.2938 N.am      9 UNK        -0.7519 
     58 O          19.3197  -33.2223  -37.8802 O.2       9 UNK        -0.4960 
     59 C59        19.2118  -31.7148  -40.6910 C.3       10 UNK        -0.0876 
     60 S60        19.9617  -30.9443  -42.1649 S.3       10 UNK        -0.2414 
     61 C61        19.3264  -32.0189  -43.4885 C.3       10 UNK         0.0169 
     62 H62        18.0280  -27.9845  -39.2389 H         1 UNK         0.0903 
     63 H63        17.7865  -29.1121  -40.5720 H         1 UNK         0.0903 
     64 H64        19.3066  -28.2125  -40.4377 H         1 UNK         0.0903 
     65 H65        17.7720  -28.1831  -42.8209 H         1 UNK         0.3096 
     66 H66        16.2213  -25.7076  -42.9447 H         1 UNK         0.1121 
     67 H67        15.7355  -26.3155  -45.2458 H         1 UNK         0.0849 
     68 H68        17.0388  -27.4675  -45.2924 H         1 UNK         0.0849 
     69 H69        14.6743  -30.4615  -45.1691 H         1 UNK         0.0865 
     70 H70        14.9446  -29.2202  -46.3638 H         1 UNK         0.0865 
     71 H71        16.7839  -31.0488  -43.6158 H         1 UNK         0.1346 
     72 H72        20.4578  -31.1854  -45.8264 H         1 UNK         0.1412 
     73 H73        17.0354  -29.2086  -47.4844 H         1 UNK         0.1426 
     74 H74        19.0605  -30.1283  -48.9214 H         1 UNK         0.0716 
     75 H75        20.5687  -30.3505  -48.0715 H         1 UNK         0.0716 
     76 H76        22.0313  -28.3196  -47.0358 H         1 UNK         0.0695 
     77 H77        20.6984  -28.2693  -45.9064 H         1 UNK         0.0695 
     78 H78        21.8985  -25.8519  -47.3626 H         1 UNK         0.0983 
     79 H79        19.3466  -26.0769  -46.1247 H         1 UNK         0.3095 
     80 H80        18.9726  -22.8706  -44.8373 H         1 UNK         0.0454 
     81 H81        18.6833  -22.2008  -47.2328 H         1 UNK         0.0851 
     82 H82        17.1362  -22.4350  -46.4413 H         1 UNK         0.0851 
     83 H83        17.7626  -23.6657  -47.5403 H         1 UNK         0.0851 
     84 H84        16.9143  -24.6526  -45.3800 H         1 UNK         0.2976 
     85 H85        20.9115  -25.9508  -44.0012 H         1 UNK         0.3116 
     86 H86        21.8364  -25.9207  -42.0436 H         1 UNK         0.0646 
     87 H87        24.4973  -25.1564  -43.3599 H         1 UNK         0.0847 
     88 H88        23.2441  -24.0370  -42.8311 H         1 UNK         0.0847 
     89 H89        24.1047  -25.0157  -41.6545 H         1 UNK         0.0847 
     90 H90        24.1049  -27.5511  -44.2266 H         1 UNK         0.3040 
     91 H91        25.2639  -29.4696  -44.1946 H         1 UNK         0.1015 
     92 H92        23.9079  -31.4782  -43.7521 H         1 UNK         0.0786 
     93 H93        22.8768  -30.2563  -44.4799 H         1 UNK         0.0786 
     94 H94        22.7981  -30.5618  -42.7456 H         1 UNK         0.0786 
     95 H95        25.9411  -27.7980  -41.9730 H         1 UNK         0.3172 
     96 H96        27.0208  -27.6640  -40.0375 H         1 UNK         0.0595 
     97 H97        27.8816  -30.5683  -40.5086 H         1 UNK         0.0839 
     98 H98        28.6843  -29.3967  -39.4746 H         1 UNK         0.0839 
     99 H99        28.6672  -29.1551  -41.2122 H         1 UNK         0.0839 
    100 H100       24.2133  -28.5391  -39.9841 H         1 UNK         0.2998 
    101 H101       22.5899  -29.0542  -38.6273 H         1 UNK         0.0822 
    102 H102       22.8202  -28.9149  -36.1885 H         1 UNK         0.0787 
    103 H103       23.7737  -27.6386  -36.9237 H         1 UNK         0.0787 
    104 H104       24.5652  -29.0804  -36.2869 H         1 UNK         0.0787 
    105 H105       24.2324  -31.2110  -39.9376 H         1 UNK         0.3055 
    106 H106       23.9703  -33.5500  -38.2494 H         1 UNK         0.1106 
    107 H107       25.6942  -33.3290  -40.0638 H         1 UNK         0.0828 
    108 H108       24.6930  -34.7560  -40.2773 H         1 UNK         0.0828 
    109 H109       24.4119  -33.3374  -41.2748 H         1 UNK         0.0828 
    110 H110       21.6530  -31.7731  -39.9957 H         1 UNK         0.2931 
    111 H111       19.9324  -33.7148  -41.0453 H         1 UNK         0.0412 
    112 H112       17.7863  -35.0150  -38.5354 H         1 UNK         0.3472 
    113 H113       18.1746  -34.9420  -40.2341 H         1 UNK         0.3472 
    114 H114       18.1603  -31.9190  -40.9033 H         1 UNK         0.0970 
    115 H115       19.2145  -30.9747  -39.8887 H         1 UNK         0.0970 
    116 H116       20.1507  -32.6195  -43.8760 H         1 UNK         0.0612 
    117 H117       18.5976  -32.7280  -43.0937 H         1 UNK         0.0612 
@<TRIPOS>BOND
     1    1    2 1    
     2    1   62 1    
     3    1   63 1    
     4    1   64 1    
     5    2    3 2    
     6    2    4 am   BACKBONE|DICT|INTERRES
     7    4    5 1    
     8    4   65 1    
     9    5    6 1    
    10    5   25 1    
    11    5   66 1    
    12    6    7 1    
    13    6   67 1    
    14    6   68 1    
    15    7    8 1    
    16    8    9 1    
    17    8   69 1    
    18    8   70 1    
    19    9   10 ar   
    20    9   14 ar   
    21   10   11 ar   
    22   10   71 1    
    23   11   12 ar   
    24   11   61 1    
    25   12   13 ar   
    26   12   72 1    
    27   13   14 ar   
    28   13   15 1    
    29   14   73 1    
    30   15   16 1    
    31   15   74 1    
    32   15   75 1    
    33   16   17 1    
    34   17   18 1    
    35   17   76 1    
    36   17   77 1    
    37   18   19 1    
    38   18   27 1    
    39   18   78 1    
    40   19   20 am   BACKBONE|DICT|INTERRES
    41   19   79 1    
    42   20   21 2    
    43   20   22 1    
    44   22   23 1    
    45   22   24 1    
    46   22   80 1    
    47   23   81 1    
    48   23   82 1    
    49   23   83 1    
    50   24   25 am   BACKBONE|DICT|INTERRES
    51   24   84 1    
    52   25   26 2    
    53   27   28 2    
    54   27   29 am   BACKBONE|DICT|INTERRES
    55   29   30 1    
    56   29   85 1    
    57   30   31 1    
    58   30   32 1    
    59   30   86 1    
    60   31   87 1    
    61   31   88 1    
    62   31   89 1    
    63   32   33 2    
    64   32   34 am   BACKBONE|DICT|INTERRES
    65   34   35 1    
    66   34   90 1    
    67   35   36 1    
    68   35   37 1    
    69   35   91 1    
    70   36   92 1    
    71   36   93 1    
    72   36   94 1    
    73   37   38 2    
    74   37   39 am   BACKBONE|DICT|INTERRES
    75   39   40 1    
    76   39   95 1    
    77   40   41 1    
    78   40   42 1    
    79   40   96 1    
    80   41   97 1    
    81   41   98 1    
    82   41   99 1    
    83   42   43 2    
    84   42   44 am   BACKBONE|DICT|INTERRES
    85   44   45 1    
    86   44  100 1    
    87   45   46 1    
    88   45   47 1    
    89   45  101 1    
    90   46  102 1    
    91   46  103 1    
    92   46  104 1    
    93   47   48 2    
    94   47   49 am   BACKBONE|DICT|INTERRES
    95   49   50 1    
    96   49  105 1    
    97   50   51 1    
    98   50   52 1    
    99   50  106 1    
   100   51  107 1    
   101   51  108 1    
   102   51  109 1    
   103   52   53 2    
   104   52   54 am   BACKBONE|DICT|INTERRES
   105   54   55 1    
   106   54  110 1    
   107   55   56 1    
   108   55   59 1    
   109   55  111 1    
   110   56   57 am   BACKBONE|DICT|INTERRES
   111   56   58 2    
   112   57  112 1    
   113   57  113 1    
   114   59   60 1    
   115   59  114 1    
   116   59  115 1    
   117   60   61 1    
   118   61  116 1    
   119   61  117 1    
@<TRIPOS>SUBSTRUCTURE
     1 UNK         1 GROUP             0       ****    0 ROOT    
