@<TRIPOS>MOLECULE
3R8
117   119    1
SMALL
USER_CHARGES


@<TRIPOS>ATOM
      1 CA         17.0767  -22.7759  -43.6695 C.3       0 UNK        -0.2013 
      2 C          16.9386  -23.2743  -45.1071 C.2       0 UNK         0.4866 
      3 O          16.5239  -22.4960  -45.9638 O.2       0 UNK        -0.5176 
      4 N          17.2524  -24.5351  -45.4455 N.am      1 UNK        -0.4884 
      5 CA         17.7855  -25.6287  -44.6176 C.3       1 UNK         0.0853 
      6 C6         16.8413  -26.1054  -43.4767 C.3       10 UNK        -0.0849 
      7 S7         15.2642  -26.7612  -44.1201 S.3       10 UNK        -0.2776 
      8 C8         15.1356  -28.3781  -43.2670 C.3       10 UNK         0.0316 
      9 C9         16.2312  -29.3967  -43.5968 C.ar      10 UNK        -0.0863 
     10 C10        16.5386  -30.3897  -42.6584 C.ar      10 UNK        -0.1009 
     11 C11        17.5292  -31.3420  -42.9211 C.ar      10 UNK        -0.0712 
     12 C12        18.2233  -31.2973  -44.1323 C.ar      10 UNK        -0.0894 
     13 C13        17.9177  -30.3248  -45.0856 C.ar      10 UNK        -0.0745 
     14 C14        16.9150  -29.3876  -44.8191 C.ar      10 UNK        -0.0972 
     15 C15        18.6462  -30.2993  -46.4185 C.3       10 UNK         0.0209 
     16 S16        19.7910  -28.8925  -46.5281 S.3       10 UNK        -0.2568 
     17 C17        21.3106  -29.5264  -45.7171 C.3       10 UNK        -0.0983 
     18 CA         22.0160  -28.5273  -44.7480 C.3       3 UNK         0.0876 
     19 N          21.7033  -27.1334  -45.0642 N.am      3 UNK        -0.4424 
     20 C          22.2434  -26.0366  -44.5238 C.2       2 UNK         0.4918 
     21 O          23.2017  -26.0529  -43.7551 O.2       2 UNK        -0.4875 
     22 CA         21.5313  -24.7058  -44.8412 C.3       2 UNK         0.0481 
     23 CB         22.1704  -24.0311  -46.0638 C.3       2 UNK        -0.1831 
     24 N          20.0850  -24.8679  -45.0634 N.am      2 UNK        -0.4498 
     25 C          19.2311  -25.3593  -44.1509 C.2       1 UNK         0.5027 
     26 O          19.5679  -25.6260  -42.9971 O.2       1 UNK        -0.4969 
     27 C          21.7857  -28.8780  -43.2605 C.2       3 UNK         0.5005 
     28 O          22.5804  -29.6340  -42.7008 O.2       3 UNK        -0.5279 
     29 N          20.7564  -28.2995  -42.6233 N.am      4 UNK        -0.4463 
     30 CA         20.5023  -28.4608  -41.1890 C.3       4 UNK         0.0283 
     31 CB         19.0437  -28.1192  -40.8528 C.3       4 UNK        -0.1875 
     32 C          21.4675  -27.6289  -40.3364 C.2       4 UNK         0.4949 
     33 O          21.9192  -28.1149  -39.3008 O.2       4 UNK        -0.5039 
     34 N          21.8107  -26.4180  -40.8009 N.am      5 UNK        -0.4663 
     35 CA         22.8239  -25.5566  -40.1779 C.3       5 UNK         0.0242 
     36 CB         22.7927  -24.1631  -40.8251 C.3       5 UNK        -0.1982 
     37 C          24.2368  -26.1682  -40.2400 C.2       5 UNK         0.5017 
     38 O          24.9917  -26.0547  -39.2746 O.2       5 UNK        -0.5012 
     39 N          24.5425  -26.8478  -41.3538 N.am      6 UNK        -0.4439 
     40 CA         25.7506  -27.6509  -41.5624 C.3       6 UNK         0.0297 
     41 CB         25.9294  -27.8901  -43.0709 C.3       6 UNK        -0.2006 
     42 C          25.7465  -28.9970  -40.8073 C.2       6 UNK         0.4892 
     43 O          26.7873  -29.6543  -40.7713 O.2       6 UNK        -0.5089 
     44 N          24.5959  -29.3850  -40.2346 N.am      7 UNK        -0.4243 
     45 CA         24.3293  -30.6277  -39.5015 C.3       7 UNK         0.0196 
     46 CB         25.1532  -30.6898  -38.1976 C.3       7 UNK        -0.2007 
     47 C          24.4732  -31.8910  -40.3726 C.2       7 UNK         0.5020 
     48 O          24.9564  -32.9193  -39.8960 O.2       7 UNK        -0.5147 
     49 N          24.0201  -31.8096  -41.6313 N.am      8 UNK        -0.4734 
     50 CA         24.0127  -32.9223  -42.5888 C.3       8 UNK         0.0238 
     51 CB         23.9222  -32.3545  -44.0155 C.3       8 UNK        -0.1912 
     52 C          22.8818  -33.9398  -42.3386 C.2       8 UNK         0.5038 
     53 O          22.8741  -34.9929  -42.9774 O.2       8 UNK        -0.5046 
     54 N          21.9486  -33.6095  -41.4360 N.am      9 UNK        -0.4200 
     55 CA         20.7847  -34.4246  -41.0516 C.3       9 UNK         0.0839 
     56 C          21.1233  -35.7646  -40.3352 C.2       9 UNK         0.5513 
     57 N          22.3304  -35.9561  -39.8173 N.am      9 UNK        -0.7519 
     58 O          20.2704  -36.6439  -40.2472 O.2       9 UNK        -0.4960 
     59 C59        19.7617  -33.6121  -40.2107 C.3       10 UNK        -0.0876 
     60 S60        19.3317  -32.0027  -40.9531 S.3       10 UNK        -0.2414 
     61 C61        17.8511  -32.4310  -41.9103 C.3       10 UNK         0.0169 
     62 H62        17.2215  -21.6957  -43.6624 H         1 UNK         0.0903 
     63 H63        16.1657  -22.9888  -43.1115 H         1 UNK         0.0903 
     64 H64        17.9194  -23.2119  -43.1390 H         1 UNK         0.0903 
     65 H65        17.1075  -24.7913  -46.4129 H         1 UNK         0.3096 
     66 H66        17.8880  -26.4749  -45.2995 H         1 UNK         0.1121 
     67 H67        16.6323  -25.3110  -42.7614 H         1 UNK         0.0849 
     68 H68        17.3211  -26.8974  -42.9014 H         1 UNK         0.0849 
     69 H69        15.1155  -28.1921  -42.1918 H         1 UNK         0.0865 
     70 H70        14.1715  -28.8218  -43.5180 H         1 UNK         0.0865 
     71 H71        16.0065  -30.4228  -41.7171 H         1 UNK         0.1346 
     72 H72        18.9946  -32.0283  -44.3333 H         1 UNK         0.1412 
     73 H73        16.6743  -28.6509  -45.5722 H         1 UNK         0.1426 
     74 H74        17.9125  -30.2150  -47.2216 H         1 UNK         0.0716 
     75 H75        19.1849  -31.2314  -46.5970 H         1 UNK         0.0716 
     76 H76        22.0026  -29.7782  -46.5222 H         1 UNK         0.0695 
     77 H77        21.0945  -30.4779  -45.2265 H         1 UNK         0.0695 
     78 H78        23.0914  -28.6360  -44.9033 H         1 UNK         0.0983 
     79 H79        20.9333  -27.0186  -45.7077 H         1 UNK         0.3095 
     80 H80        21.6630  -24.0481  -43.9797 H         1 UNK         0.0454 
     81 H81        23.2402  -23.8815  -45.9107 H         1 UNK         0.0851 
     82 H82        21.7324  -23.0507  -46.2509 H         1 UNK         0.0851 
     83 H83        22.0517  -24.6310  -46.9669 H         1 UNK         0.0851 
     84 H84        19.7332  -24.6393  -45.9827 H         1 UNK         0.2976 
     85 H85        20.1799  -27.6278  -43.1126 H         1 UNK         0.3116 
     86 H86        20.6670  -29.5075  -40.9327 H         1 UNK         0.0646 
     87 H87        18.8177  -28.3805  -39.8187 H         1 UNK         0.0847 
     88 H88        18.8309  -27.0572  -40.9693 H         1 UNK         0.0847 
     89 H89        18.3538  -28.6768  -41.4831 H         1 UNK         0.0847 
     90 H90        21.3676  -26.0818  -41.6470 H         1 UNK         0.3040 
     91 H91        22.5613  -25.4469  -39.1231 H         1 UNK         0.1015 
     92 H92        23.4727  -23.4834  -40.3111 H         1 UNK         0.0786 
     93 H93        21.7967  -23.7238  -40.7754 H         1 UNK         0.0786 
     94 H94        23.0951  -24.1912  -41.8715 H         1 UNK         0.0786 
     95 H95        23.8932  -26.7943  -42.1343 H         1 UNK         0.3172 
     96 H96        26.6072  -27.0773  -41.2032 H         1 UNK         0.0595 
     97 H97        25.1147  -28.4871  -43.4811 H         1 UNK         0.0839 
     98 H98        26.8584  -28.4238  -43.2755 H         1 UNK         0.0839 
     99 H99        25.9682  -26.9504  -43.6223 H         1 UNK         0.0839 
    100 H100       23.7989  -28.7684  -40.3282 H         1 UNK         0.2998 
    101 H101       23.2769  -30.5840  -39.2170 H         1 UNK         0.0822 
    102 H102       24.8504  -31.5391  -37.5839 H         1 UNK         0.0787 
    103 H103       26.2200  -30.7972  -38.3957 H         1 UNK         0.0787 
    104 H104       25.0116  -29.7911  -37.5972 H         1 UNK         0.0787 
    105 H105       23.5979  -30.9372  -41.9516 H         1 UNK         0.3055 
    106 H106       24.9573  -33.4630  -42.4966 H         1 UNK         0.1106 
    107 H107       24.7162  -31.6328  -44.2086 H         1 UNK         0.0828 
    108 H108       24.0170  -33.1476  -44.7583 H         1 UNK         0.0828 
    109 H109       22.9674  -31.8590  -44.1909 H         1 UNK         0.0828 
    110 H110       22.0257  -32.7103  -40.9861 H         1 UNK         0.2931 
    111 H111       20.2884  -34.7016  -41.9835 H         1 UNK         0.0412 
    112 H112       22.5384  -36.8280  -39.3563 H         1 UNK         0.3472 
    113 H113       23.0359  -35.2387  -39.8846 H         1 UNK         0.3472 
    114 H114       18.8474  -34.1879  -40.0541 H         1 UNK         0.0970 
    115 H115       20.1649  -33.4160  -39.2154 H         1 UNK         0.0970 
    116 H116       18.0136  -33.3754  -42.4323 H         1 UNK         0.0612 
    117 H117       17.0130  -32.5901  -41.2301 H         1 UNK         0.0612 
@<TRIPOS>BOND
     1    1    2 1    
     2    1   62 1    
     3    1   63 1    
     4    1   64 1    
     5    2    3 2    
     6    2    4 am   BACKBONE|DICT|INTERRES
     7    4    5 1    
     8    4   65 1    
     9    5    6 1    
    10    5   25 1    
    11    5   66 1    
    12    6    7 1    
    13    6   67 1    
    14    6   68 1    
    15    7    8 1    
    16    8    9 1    
    17    8   69 1    
    18    8   70 1    
    19    9   10 ar   
    20    9   14 ar   
    21   10   11 ar   
    22   10   71 1    
    23   11   12 ar   
    24   11   61 1    
    25   12   13 ar   
    26   12   72 1    
    27   13   14 ar   
    28   13   15 1    
    29   14   73 1    
    30   15   16 1    
    31   15   74 1    
    32   15   75 1    
    33   16   17 1    
    34   17   18 1    
    35   17   76 1    
    36   17   77 1    
    37   18   19 1    
    38   18   27 1    
    39   18   78 1    
    40   19   20 am   BACKBONE|DICT|INTERRES
    41   19   79 1    
    42   20   21 2    
    43   20   22 1    
    44   22   23 1    
    45   22   24 1    
    46   22   80 1    
    47   23   81 1    
    48   23   82 1    
    49   23   83 1    
    50   24   25 am   BACKBONE|DICT|INTERRES
    51   24   84 1    
    52   25   26 2    
    53   27   28 2    
    54   27   29 am   BACKBONE|DICT|INTERRES
    55   29   30 1    
    56   29   85 1    
    57   30   31 1    
    58   30   32 1    
    59   30   86 1    
    60   31   87 1    
    61   31   88 1    
    62   31   89 1    
    63   32   33 2    
    64   32   34 am   BACKBONE|DICT|INTERRES
    65   34   35 1    
    66   34   90 1    
    67   35   36 1    
    68   35   37 1    
    69   35   91 1    
    70   36   92 1    
    71   36   93 1    
    72   36   94 1    
    73   37   38 2    
    74   37   39 am   BACKBONE|DICT|INTERRES
    75   39   40 1    
    76   39   95 1    
    77   40   41 1    
    78   40   42 1    
    79   40   96 1    
    80   41   97 1    
    81   41   98 1    
    82   41   99 1    
    83   42   43 2    
    84   42   44 am   BACKBONE|DICT|INTERRES
    85   44   45 1    
    86   44  100 1    
    87   45   46 1    
    88   45   47 1    
    89   45  101 1    
    90   46  102 1    
    91   46  103 1    
    92   46  104 1    
    93   47   48 2    
    94   47   49 am   BACKBONE|DICT|INTERRES
    95   49   50 1    
    96   49  105 1    
    97   50   51 1    
    98   50   52 1    
    99   50  106 1    
   100   51  107 1    
   101   51  108 1    
   102   51  109 1    
   103   52   53 2    
   104   52   54 am   BACKBONE|DICT|INTERRES
   105   54   55 1    
   106   54  110 1    
   107   55   56 1    
   108   55   59 1    
   109   55  111 1    
   110   56   57 am   BACKBONE|DICT|INTERRES
   111   56   58 2    
   112   57  112 1    
   113   57  113 1    
   114   59   60 1    
   115   59  114 1    
   116   59  115 1    
   117   60   61 1    
   118   61  116 1    
   119   61  117 1    
@<TRIPOS>SUBSTRUCTURE
     1 UNK         1 GROUP             0       ****    0 ROOT    
