@<TRIPOS>MOLECULE
3R8
117   119    1
SMALL
USER_CHARGES


@<TRIPOS>ATOM
      1 CA         15.9345  -24.8400  -45.5647 C.3       0 UNK        -0.2013 
      2 C          16.4560  -24.4090  -46.9341 C.2       0 UNK         0.4866 
      3 O          15.9502  -23.4293  -47.4788 O.2       0 UNK        -0.5176 
      4 N          17.4364  -25.0878  -47.5515 N.am      1 UNK        -0.4884 
      5 CA         18.2273  -26.2418  -47.0947 C.3       1 UNK         0.0853 
      6 C6         17.3592  -27.4526  -46.6502 C.3       10 UNK        -0.0849 
      7 S7         18.1618  -29.0612  -46.9574 S.3       10 UNK        -0.2776 
      8 C8         16.9397  -30.2035  -46.2382 C.3       10 UNK         0.0316 
      9 C9         16.9994  -30.2250  -44.7166 C.ar      10 UNK        -0.0863 
     10 C10        17.8758  -31.0960  -44.0636 C.ar      10 UNK        -0.1009 
     11 C11        17.9146  -31.1532  -42.6675 C.ar      10 UNK        -0.0712 
     12 C12        17.0665  -30.3294  -41.9225 C.ar      10 UNK        -0.0894 
     13 C13        16.1967  -29.4409  -42.5626 C.ar      10 UNK        -0.0745 
     14 C14        16.1603  -29.4015  -43.9600 C.ar      10 UNK        -0.0972 
     15 C15        15.2882  -28.5288  -41.7479 C.3       10 UNK         0.0209 
     16 S16        16.2200  -27.3898  -40.6710 S.3       10 UNK        -0.2568 
     17 C17        17.2917  -26.5185  -41.8644 C.3       10 UNK        -0.0983 
     18 CA         18.7572  -27.0209  -41.7988 C.3       3 UNK         0.0876 
     19 N          19.4952  -26.6723  -43.0144 N.am      3 UNK        -0.4424 
     20 C          20.7357  -27.0671  -43.3334 C.2       2 UNK         0.4918 
     21 O          21.4583  -27.7173  -42.5770 O.2       2 UNK        -0.4875 
     22 CA         21.2520  -26.6886  -44.7377 C.3       2 UNK         0.0481 
     23 CB         22.4465  -27.5617  -45.1687 C.3       2 UNK        -0.1831 
     24 N          20.2034  -26.7928  -45.7571 N.am      2 UNK        -0.4498 
     25 C          19.2903  -25.8568  -46.0412 C.2       1 UNK         0.5027 
     26 O          19.2536  -24.7625  -45.4753 O.2       1 UNK        -0.4969 
     27 C          19.4958  -26.5333  -40.5355 C.2       3 UNK         0.5005 
     28 O          19.4707  -25.3370  -40.2379 O.2       3 UNK        -0.5279 
     29 N          20.1855  -27.4686  -39.8630 N.am      4 UNK        -0.4463 
     30 CA         21.0708  -27.2699  -38.7076 C.3       4 UNK         0.0283 
     31 CB         20.2720  -26.7850  -37.4791 C.3       4 UNK        -0.1875 
     32 C          22.3007  -26.3805  -38.9969 C.2       4 UNK         0.4949 
     33 O          22.9345  -25.9037  -38.0544 O.2       4 UNK        -0.5039 
     34 N          22.6362  -26.1817  -40.2801 N.am      5 UNK        -0.4663 
     35 CA         23.7922  -25.3945  -40.7216 C.3       5 UNK         0.0242 
     36 CB         23.5151  -24.8303  -42.1241 C.3       5 UNK        -0.1982 
     37 C          25.0887  -26.2201  -40.7221 C.2       5 UNK         0.5017 
     38 O          26.1744  -25.6427  -40.6551 O.2       5 UNK        -0.5012 
     39 N          24.9518  -27.5473  -40.7943 N.am      6 UNK        -0.4439 
     40 CA         26.0189  -28.5357  -40.7403 C.3       6 UNK         0.0297 
     41 CB         26.6321  -28.7203  -42.1405 C.3       6 UNK        -0.2006 
     42 C          25.4153  -29.8457  -40.2246 C.2       6 UNK         0.4892 
     43 O          24.1983  -30.0353  -40.3149 O.2       6 UNK        -0.5089 
     44 N          26.2761  -30.7299  -39.7083 N.am      7 UNK        -0.4243 
     45 CA         25.9104  -32.0902  -39.3121 C.3       7 UNK         0.0196 
     46 CB         27.0411  -32.6933  -38.4628 C.3       7 UNK        -0.2007 
     47 C          25.6393  -32.9614  -40.5493 C.2       7 UNK         0.5020 
     48 O          26.3281  -32.8065  -41.5606 O.2       7 UNK        -0.5147 
     49 N          24.6616  -33.8709  -40.4294 N.am      8 UNK        -0.4734 
     50 CA         24.1863  -34.7910  -41.4728 C.3       8 UNK         0.0238 
     51 CB         25.2634  -35.8470  -41.8061 C.3       8 UNK        -0.1912 
     52 C          23.6598  -34.0492  -42.7189 C.2       8 UNK         0.5038 
     53 O          24.0795  -34.3439  -43.8399 O.2       8 UNK        -0.5046 
     54 N          22.7502  -33.0922  -42.4882 N.am      9 UNK        -0.4200 
     55 CA         22.0722  -32.2877  -43.5193 C.3       9 UNK         0.0839 
     56 C          21.1816  -33.0782  -44.5231 C.2       9 UNK         0.5513 
     57 N          20.8048  -34.3219  -44.2502 N.am      9 UNK        -0.7519 
     58 O          20.8368  -32.5524  -45.5775 O.2       9 UNK        -0.4960 
     59 C59        21.3267  -31.0595  -42.9163 C.3       10 UNK        -0.0876 
     60 S60        20.3827  -31.3718  -41.3781 S.3       10 UNK        -0.2414 
     61 C61        18.8351  -32.1365  -41.9612 C.3       10 UNK         0.0169 
     62 H62        15.3628  -24.0316  -45.1094 H         1 UNK         0.0903 
     63 H63        15.2704  -25.6979  -45.6613 H         1 UNK         0.0903 
     64 H64        16.7377  -25.0888  -44.8755 H         1 UNK         0.0903 
     65 H65        17.7355  -24.7287  -48.4479 H         1 UNK         0.3096 
     66 H66        18.7882  -26.5397  -47.9828 H         1 UNK         0.1121 
     67 H67        16.4166  -27.4610  -47.2002 H         1 UNK         0.0849 
     68 H68        17.0972  -27.3806  -45.5950 H         1 UNK         0.0849 
     69 H69        15.9381  -29.9374  -46.5798 H         1 UNK         0.0865 
     70 H70        17.1306  -31.2060  -46.6246 H         1 UNK         0.0865 
     71 H71        18.5173  -31.7410  -44.6468 H         1 UNK         0.1346 
     72 H72        17.0891  -30.3721  -40.8419 H         1 UNK         0.1412 
     73 H73        15.4746  -28.7315  -44.4603 H         1 UNK         0.1426 
     74 H74        14.6313  -29.1416  -41.1292 H         1 UNK         0.0716 
     75 H75        14.6378  -27.9425  -42.3989 H         1 UNK         0.0716 
     76 H76        17.2289  -25.4439  -41.6829 H         1 UNK         0.0695 
     77 H77        16.8849  -26.6701  -42.8652 H         1 UNK         0.0695 
     78 H78        18.7341  -28.1120  -41.7762 H         1 UNK         0.0983 
     79 H79        19.0224  -26.0640  -43.6679 H         1 UNK         0.3095 
     80 H80        21.5971  -25.6542  -44.6848 H         1 UNK         0.0454 
     81 H81        22.1781  -28.6181  -45.2111 H         1 UNK         0.0851 
     82 H82        23.2801  -27.4677  -44.4718 H         1 UNK         0.0851 
     83 H83        22.8176  -27.2697  -46.1510 H         1 UNK         0.0851 
     84 H84        20.1165  -27.6900  -46.2176 H         1 UNK         0.2976 
     85 H85        20.1842  -28.4083  -40.2386 H         1 UNK         0.3116 
     86 H86        21.4712  -28.2565  -38.4692 H         1 UNK         0.0646 
     87 H87        19.9018  -25.7681  -37.6120 H         1 UNK         0.0847 
     88 H88        19.4165  -27.4306  -37.2810 H         1 UNK         0.0847 
     89 H89        20.8917  -26.7884  -36.5817 H         1 UNK         0.0847 
     90 H90        22.0886  -26.6410  -41.0014 H         1 UNK         0.3040 
     91 H91        23.9340  -24.5540  -40.0382 H         1 UNK         0.1015 
     92 H92        24.3159  -24.1589  -42.4369 H         1 UNK         0.0786 
     93 H93        22.5856  -24.2610  -42.1492 H         1 UNK         0.0786 
     94 H94        23.4482  -25.6219  -42.8697 H         1 UNK         0.0786 
     95 H95        24.0214  -27.9495  -40.8011 H         1 UNK         0.3172 
     96 H96        26.7864  -28.2039  -40.0377 H         1 UNK         0.0595 
     97 H97        25.8853  -29.0492  -42.8647 H         1 UNK         0.0839 
     98 H98        27.4249  -29.4693  -42.1276 H         1 UNK         0.0839 
     99 H99        27.0699  -27.7926  -42.5092 H         1 UNK         0.0839 
    100 H100       27.2614  -30.5087  -39.7076 H         1 UNK         0.2998 
    101 H101       25.0044  -32.0400  -38.7038 H         1 UNK         0.0822 
    102 H102       26.7849  -33.7004  -38.1306 H         1 UNK         0.0787 
    103 H103       27.9742  -32.7635  -39.0236 H         1 UNK         0.0787 
    104 H104       27.2292  -32.0967  -37.5699 H         1 UNK         0.0787 
    105 H105       24.1635  -33.9172  -39.5502 H         1 UNK         0.3055 
    106 H106       23.3302  -35.3235  -41.0545 H         1 UNK         0.1106 
    107 H107       25.5899  -36.3773  -40.9117 H         1 UNK         0.0828 
    108 H108       24.8755  -36.5934  -42.5005 H         1 UNK         0.0828 
    109 H109       26.1432  -35.4005  -42.2707 H         1 UNK         0.0828 
    110 H110       22.4698  -32.8996  -41.5375 H         1 UNK         0.2931 
    111 H111       22.8737  -31.8787  -44.1380 H         1 UNK         0.0412 
    112 H112       20.2392  -34.8230  -44.9172 H         1 UNK         0.3472 
    113 H113       21.0878  -34.7681  -43.3933 H         1 UNK         0.3472 
    114 H114       22.0749  -30.3085  -42.6578 H         1 UNK         0.0970 
    115 H115       20.6856  -30.5685  -43.6508 H         1 UNK         0.0970 
    116 H116       19.0545  -32.9877  -42.6035 H         1 UNK         0.0612 
    117 H117       18.3156  -32.5509  -41.0961 H         1 UNK         0.0612 
@<TRIPOS>BOND
     1    1    2 1    
     2    1   62 1    
     3    1   63 1    
     4    1   64 1    
     5    2    3 2    
     6    2    4 am   BACKBONE|DICT|INTERRES
     7    4    5 1    
     8    4   65 1    
     9    5    6 1    
    10    5   25 1    
    11    5   66 1    
    12    6    7 1    
    13    6   67 1    
    14    6   68 1    
    15    7    8 1    
    16    8    9 1    
    17    8   69 1    
    18    8   70 1    
    19    9   10 ar   
    20    9   14 ar   
    21   10   11 ar   
    22   10   71 1    
    23   11   12 ar   
    24   11   61 1    
    25   12   13 ar   
    26   12   72 1    
    27   13   14 ar   
    28   13   15 1    
    29   14   73 1    
    30   15   16 1    
    31   15   74 1    
    32   15   75 1    
    33   16   17 1    
    34   17   18 1    
    35   17   76 1    
    36   17   77 1    
    37   18   19 1    
    38   18   27 1    
    39   18   78 1    
    40   19   20 am   BACKBONE|DICT|INTERRES
    41   19   79 1    
    42   20   21 2    
    43   20   22 1    
    44   22   23 1    
    45   22   24 1    
    46   22   80 1    
    47   23   81 1    
    48   23   82 1    
    49   23   83 1    
    50   24   25 am   BACKBONE|DICT|INTERRES
    51   24   84 1    
    52   25   26 2    
    53   27   28 2    
    54   27   29 am   BACKBONE|DICT|INTERRES
    55   29   30 1    
    56   29   85 1    
    57   30   31 1    
    58   30   32 1    
    59   30   86 1    
    60   31   87 1    
    61   31   88 1    
    62   31   89 1    
    63   32   33 2    
    64   32   34 am   BACKBONE|DICT|INTERRES
    65   34   35 1    
    66   34   90 1    
    67   35   36 1    
    68   35   37 1    
    69   35   91 1    
    70   36   92 1    
    71   36   93 1    
    72   36   94 1    
    73   37   38 2    
    74   37   39 am   BACKBONE|DICT|INTERRES
    75   39   40 1    
    76   39   95 1    
    77   40   41 1    
    78   40   42 1    
    79   40   96 1    
    80   41   97 1    
    81   41   98 1    
    82   41   99 1    
    83   42   43 2    
    84   42   44 am   BACKBONE|DICT|INTERRES
    85   44   45 1    
    86   44  100 1    
    87   45   46 1    
    88   45   47 1    
    89   45  101 1    
    90   46  102 1    
    91   46  103 1    
    92   46  104 1    
    93   47   48 2    
    94   47   49 am   BACKBONE|DICT|INTERRES
    95   49   50 1    
    96   49  105 1    
    97   50   51 1    
    98   50   52 1    
    99   50  106 1    
   100   51  107 1    
   101   51  108 1    
   102   51  109 1    
   103   52   53 2    
   104   52   54 am   BACKBONE|DICT|INTERRES
   105   54   55 1    
   106   54  110 1    
   107   55   56 1    
   108   55   59 1    
   109   55  111 1    
   110   56   57 am   BACKBONE|DICT|INTERRES
   111   56   58 2    
   112   57  112 1    
   113   57  113 1    
   114   59   60 1    
   115   59  114 1    
   116   59  115 1    
   117   60   61 1    
   118   61  116 1    
   119   61  117 1    
@<TRIPOS>SUBSTRUCTURE
     1 UNK         1 GROUP             0       ****    0 ROOT    
