@<TRIPOS>MOLECULE
3R8
117   119    1
SMALL
USER_CHARGES


@<TRIPOS>ATOM
      1 CA         16.1413  -22.7596  -47.1506 C.3       0 UNK        -0.2013 
      2 C          16.0316  -24.2542  -46.8893 C.2       0 UNK         0.4866 
      3 O          16.1288  -25.0492  -47.8245 O.2       0 UNK        -0.5176 
      4 N          15.8318  -24.6437  -45.6268 N.am      1 UNK        -0.4884 
      5 CA         15.7532  -26.0289  -45.1696 C.3       1 UNK         0.0853 
      6 C6         14.3644  -26.6575  -45.4739 C.3       10 UNK        -0.0849 
      7 S7         14.1576  -28.4320  -45.0774 S.3       10 UNK        -0.2776 
      8 C8         15.2514  -29.2717  -46.2730 C.3       10 UNK         0.0316 
      9 C9         16.6672  -29.4257  -45.7306 C.ar      10 UNK        -0.0863 
     10 C10        16.9077  -30.2404  -44.6183 C.ar      10 UNK        -0.1009 
     11 C11        18.1973  -30.3600  -44.0929 C.ar      10 UNK        -0.0712 
     12 C12        19.2526  -29.6755  -44.6978 C.ar      10 UNK        -0.0894 
     13 C13        19.0251  -28.8465  -45.7985 C.ar      10 UNK        -0.0745 
     14 C14        17.7350  -28.7467  -46.3269 C.ar      10 UNK        -0.0972 
     15 C15        20.1651  -28.0420  -46.4054 C.3       10 UNK         0.0209 
     16 S16        20.4026  -26.4535  -45.5375 S.3       10 UNK        -0.2568 
     17 C17        21.3833  -26.9574  -44.0796 C.3       10 UNK        -0.0983 
     18 CA         20.6919  -26.6740  -42.7183 C.3       3 UNK         0.0876 
     19 N          19.3200  -27.1808  -42.6580 N.am      3 UNK        -0.4424 
     20 C          18.4413  -26.9406  -41.6747 C.2       2 UNK         0.4918 
     21 O          18.6844  -26.2450  -40.6872 O.2       2 UNK        -0.4875 
     22 CA         17.0462  -27.5644  -41.8621 C.3       2 UNK         0.0481 
     23 CB         16.0519  -27.1969  -40.7404 C.3       2 UNK        -0.1831 
     24 N          16.4959  -27.2631  -43.1882 N.am      2 UNK        -0.4498 
     25 C          16.1696  -26.0616  -43.6864 C.2       1 UNK         0.5027 
     26 O          16.2103  -25.0081  -43.0431 O.2       1 UNK        -0.4969 
     27 C          21.5342  -27.2462  -41.5590 C.2       3 UNK         0.5005 
     28 O          21.7787  -28.4547  -41.5234 O.2       3 UNK        -0.5279 
     29 N          21.9648  -26.3744  -40.6378 N.am      4 UNK        -0.4463 
     30 CA         22.8156  -26.7351  -39.4991 C.3       4 UNK         0.0283 
     31 CB         22.6757  -25.6642  -38.4052 C.3       4 UNK        -0.1875 
     32 C          24.2949  -26.9148  -39.8837 C.2       4 UNK         0.4949 
     33 O          25.0348  -27.5452  -39.1276 O.2       4 UNK        -0.5039 
     34 N          24.6976  -26.3526  -41.0342 N.am      5 UNK        -0.4663 
     35 CA         26.0520  -26.3636  -41.5932 C.3       5 UNK         0.0242 
     36 CB         26.0355  -25.6490  -42.9557 C.3       5 UNK        -0.1982 
     37 C          26.6235  -27.7859  -41.7213 C.2       5 UNK         0.5017 
     38 O          26.1764  -28.5455  -42.5823 O.2       5 UNK        -0.5012 
     39 N          27.5654  -28.1164  -40.8256 N.am      6 UNK        -0.4439 
     40 CA         28.2270  -29.4172  -40.6625 C.3       6 UNK         0.0297 
     41 CB         29.1062  -29.7382  -41.8908 C.3       6 UNK        -0.2006 
     42 C          27.2720  -30.5771  -40.3019 C.2       6 UNK         0.4892 
     43 O          27.6363  -31.7331  -40.5227 O.2       6 UNK        -0.5089 
     44 N          26.0901  -30.2552  -39.7448 N.am      7 UNK        -0.4243 
     45 CA         24.9923  -31.1648  -39.3887 C.3       7 UNK         0.0196 
     46 CB         25.3757  -32.0292  -38.1691 C.3       7 UNK        -0.2007 
     47 C          24.5297  -32.0017  -40.5971 C.2       7 UNK         0.5020 
     48 O          24.7103  -33.2205  -40.6164 O.2       7 UNK        -0.5147 
     49 N          23.9800  -31.3133  -41.6078 N.am      8 UNK        -0.4734 
     50 CA         23.6125  -31.8763  -42.9134 C.3       8 UNK         0.0238 
     51 CB         23.1734  -30.7358  -43.8435 C.3       8 UNK        -0.1912 
     52 C          22.5422  -32.9843  -42.8738 C.2       8 UNK         0.5038 
     53 O          22.5359  -33.8311  -43.7687 O.2       8 UNK        -0.5046 
     54 N          21.6841  -32.9706  -41.8473 N.am      9 UNK        -0.4200 
     55 CA         20.7233  -34.0357  -41.5325 C.3       9 UNK         0.0839 
     56 C          21.0436  -34.6078  -40.1299 C.2       9 UNK         0.5513 
     57 N          20.9600  -35.9196  -39.9577 N.am      9 UNK        -0.7519 
     58 O          21.3253  -33.8686  -39.1882 O.2       9 UNK        -0.4960 
     59 C59        19.2532  -33.5463  -41.5933 C.3       10 UNK        -0.0876 
     60 S60        18.7793  -32.9249  -43.2427 S.3       10 UNK        -0.2414 
     61 C61        18.4508  -31.1855  -42.8432 C.3       10 UNK         0.0169 
     62 H62        17.1123  -22.5254  -47.5862 H         1 UNK         0.0903 
     63 H63        15.3683  -22.4435  -47.8506 H         1 UNK         0.0903 
     64 H64        16.0299  -22.1766  -46.2365 H         1 UNK         0.0903 
     65 H65        15.8133  -23.9697  -44.8692 H         1 UNK         0.3096 
     66 H66        16.5188  -26.5728  -45.7156 H         1 UNK         0.1121 
     67 H67        13.5887  -26.1067  -44.9389 H         1 UNK         0.0849 
     68 H68        14.1289  -26.5346  -46.5322 H         1 UNK         0.0849 
     69 H69        14.8470  -30.2634  -46.4811 H         1 UNK         0.0865 
     70 H70        15.2442  -28.7353  -47.2234 H         1 UNK         0.0865 
     71 H71        16.0865  -30.7666  -44.1496 H         1 UNK         0.1346 
     72 H72        20.2473  -29.7724  -44.2906 H         1 UNK         0.1412 
     73 H73        17.5589  -28.1135  -47.1868 H         1 UNK         0.1426 
     74 H74        19.9529  -27.8344  -47.4553 H         1 UNK         0.0716 
     75 H75        21.0905  -28.6200  -46.3957 H         1 UNK         0.0716 
     76 H76        22.3318  -26.4191  -44.1267 H         1 UNK         0.0695 
     77 H77        21.6483  -28.0099  -44.1732 H         1 UNK         0.0695 
     78 H78        20.6301  -25.5896  -42.6031 H         1 UNK         0.0983 
     79 H79        19.0305  -27.7501  -43.4403 H         1 UNK         0.3095 
     80 H80        17.1858  -28.6449  -41.8266 H         1 UNK         0.0454 
     81 H81        16.4181  -27.5376  -39.7714 H         1 UNK         0.0851 
     82 H82        15.0811  -27.6647  -40.9026 H         1 UNK         0.0851 
     83 H83        15.8974  -26.1203  -40.6650 H         1 UNK         0.0851 
     84 H84        16.3953  -28.0612  -43.8041 H         1 UNK         0.2976 
     85 H85        21.6852  -25.4057  -40.7076 H         1 UNK         0.3116 
     86 H86        22.4668  -27.6853  -39.0884 H         1 UNK         0.0646 
     87 H87        23.0117  -24.6853  -38.7496 H         1 UNK         0.0847 
     88 H88        21.6416  -25.5682  -38.0736 H         1 UNK         0.0847 
     89 H89        23.2717  -25.9222  -37.5285 H         1 UNK         0.0847 
     90 H90        23.9991  -25.8719  -41.5801 H         1 UNK         0.3040 
     91 H91        26.6899  -25.7868  -40.9202 H         1 UNK         0.1015 
     92 H92        27.0302  -25.6412  -43.4037 H         1 UNK         0.0786 
     93 H93        25.7186  -24.6105  -42.8573 H         1 UNK         0.0786 
     94 H94        25.3646  -26.1398  -43.6623 H         1 UNK         0.0786 
     95 H95        27.8153  -27.4224  -40.1336 H         1 UNK         0.3172 
     96 H96        28.8925  -29.3069  -39.8052 H         1 UNK         0.0595 
     97 H97        28.5041  -29.9388  -42.7776 H         1 UNK         0.0839 
     98 H98        29.7236  -30.6196  -41.7131 H         1 UNK         0.0839 
     99 H99        29.7821  -28.9152  -42.1228 H         1 UNK         0.0839 
    100 H100       25.8935  -29.2687  -39.5987 H         1 UNK         0.2998 
    101 H101       24.1484  -30.5378  -39.0956 H         1 UNK         0.0822 
    102 H102       24.5415  -32.6636  -37.8663 H         1 UNK         0.0787 
    103 H103       25.6404  -31.4095  -37.3125 H         1 UNK         0.0787 
    104 H104       26.2208  -32.6846  -38.3825 H         1 UNK         0.0787 
    105 H105       23.8754  -30.3119  -41.5110 H         1 UNK         0.3055 
    106 H106       24.5145  -32.3274  -43.3328 H         1 UNK         0.1106 
    107 H107       23.9690  -30.0023  -43.9784 H         1 UNK         0.0828 
    108 H108       22.9054  -31.1117  -44.8319 H         1 UNK         0.0828 
    109 H109       22.3045  -30.2177  -43.4420 H         1 UNK         0.0828 
    110 H110       21.8045  -32.2688  -41.1313 H         1 UNK         0.2931 
    111 H111       20.8292  -34.8503  -42.2520 H         1 UNK         0.0412 
    112 H112       20.7175  -36.5321  -40.7215 H         1 UNK         0.3472 
    113 H113       21.1504  -36.3073  -39.0465 H         1 UNK         0.3472 
    114 H114       18.5753  -34.3661  -41.3480 H         1 UNK         0.0970 
    115 H115       19.0741  -32.7776  -40.8389 H         1 UNK         0.0970 
    116 H116       17.5901  -31.1277  -42.1752 H         1 UNK         0.0612 
    117 H117       19.2991  -30.7742  -42.2926 H         1 UNK         0.0612 
@<TRIPOS>BOND
     1    1    2 1    
     2    1   62 1    
     3    1   63 1    
     4    1   64 1    
     5    2    3 2    
     6    2    4 am   BACKBONE|DICT|INTERRES
     7    4    5 1    
     8    4   65 1    
     9    5    6 1    
    10    5   25 1    
    11    5   66 1    
    12    6    7 1    
    13    6   67 1    
    14    6   68 1    
    15    7    8 1    
    16    8    9 1    
    17    8   69 1    
    18    8   70 1    
    19    9   10 ar   
    20    9   14 ar   
    21   10   11 ar   
    22   10   71 1    
    23   11   12 ar   
    24   11   61 1    
    25   12   13 ar   
    26   12   72 1    
    27   13   14 ar   
    28   13   15 1    
    29   14   73 1    
    30   15   16 1    
    31   15   74 1    
    32   15   75 1    
    33   16   17 1    
    34   17   18 1    
    35   17   76 1    
    36   17   77 1    
    37   18   19 1    
    38   18   27 1    
    39   18   78 1    
    40   19   20 am   BACKBONE|DICT|INTERRES
    41   19   79 1    
    42   20   21 2    
    43   20   22 1    
    44   22   23 1    
    45   22   24 1    
    46   22   80 1    
    47   23   81 1    
    48   23   82 1    
    49   23   83 1    
    50   24   25 am   BACKBONE|DICT|INTERRES
    51   24   84 1    
    52   25   26 2    
    53   27   28 2    
    54   27   29 am   BACKBONE|DICT|INTERRES
    55   29   30 1    
    56   29   85 1    
    57   30   31 1    
    58   30   32 1    
    59   30   86 1    
    60   31   87 1    
    61   31   88 1    
    62   31   89 1    
    63   32   33 2    
    64   32   34 am   BACKBONE|DICT|INTERRES
    65   34   35 1    
    66   34   90 1    
    67   35   36 1    
    68   35   37 1    
    69   35   91 1    
    70   36   92 1    
    71   36   93 1    
    72   36   94 1    
    73   37   38 2    
    74   37   39 am   BACKBONE|DICT|INTERRES
    75   39   40 1    
    76   39   95 1    
    77   40   41 1    
    78   40   42 1    
    79   40   96 1    
    80   41   97 1    
    81   41   98 1    
    82   41   99 1    
    83   42   43 2    
    84   42   44 am   BACKBONE|DICT|INTERRES
    85   44   45 1    
    86   44  100 1    
    87   45   46 1    
    88   45   47 1    
    89   45  101 1    
    90   46  102 1    
    91   46  103 1    
    92   46  104 1    
    93   47   48 2    
    94   47   49 am   BACKBONE|DICT|INTERRES
    95   49   50 1    
    96   49  105 1    
    97   50   51 1    
    98   50   52 1    
    99   50  106 1    
   100   51  107 1    
   101   51  108 1    
   102   51  109 1    
   103   52   53 2    
   104   52   54 am   BACKBONE|DICT|INTERRES
   105   54   55 1    
   106   54  110 1    
   107   55   56 1    
   108   55   59 1    
   109   55  111 1    
   110   56   57 am   BACKBONE|DICT|INTERRES
   111   56   58 2    
   112   57  112 1    
   113   57  113 1    
   114   59   60 1    
   115   59  114 1    
   116   59  115 1    
   117   60   61 1    
   118   61  116 1    
   119   61  117 1    
@<TRIPOS>SUBSTRUCTURE
     1 UNK         1 GROUP             0       ****    0 ROOT    
