@<TRIPOS>MOLECULE
3R8
117   119    1
SMALL
USER_CHARGES


@<TRIPOS>ATOM
      1 CA         24.1278  -24.6515  -47.1221 C.3       0 UNK        -0.2013 
      2 C          22.9250  -25.2650  -46.4223 C.2       0 UNK         0.4866 
      3 O          22.8503  -25.2394  -45.1930 O.2       0 UNK        -0.5176 
      4 N          21.9743  -25.8122  -47.1907 N.am      1 UNK        -0.4884 
      5 CA         20.7517  -26.4608  -46.7008 C.3       1 UNK         0.0853 
      6 C6         20.2029  -27.4986  -47.7106 C.3       10 UNK        -0.0849 
      7 S7         21.2282  -29.0094  -47.6858 S.3       10 UNK        -0.2776 
      8 C8         19.9874  -30.3312  -47.4876 C.3       10 UNK         0.0316 
      9 C9         19.3059  -30.3359  -46.1221 C.ar      10 UNK        -0.0863 
     10 C10        19.9297  -30.9293  -45.0183 C.ar      10 UNK        -0.1009 
     11 C11        19.2603  -31.0378  -43.7901 C.ar      10 UNK        -0.0712 
     12 C12        17.9703  -30.5118  -43.6711 C.ar      10 UNK        -0.0894 
     13 C13        17.3518  -29.8809  -44.7528 C.ar      10 UNK        -0.0745 
     14 C14        18.0188  -29.8084  -45.9784 C.ar      10 UNK        -0.0972 
     15 C15        15.9553  -29.2942  -44.6068 C.3       10 UNK         0.0209 
     16 S16        16.0045  -27.4877  -44.3811 S.3       10 UNK        -0.2568 
     17 C17        16.5206  -27.3142  -42.6357 C.3       10 UNK        -0.0983 
     18 CA         18.0541  -27.1226  -42.4596 C.3       3 UNK         0.0876 
     19 N          18.6372  -26.0567  -43.2792 N.am      3 UNK        -0.4424 
     20 C          18.2772  -24.7694  -43.3863 C.2       2 UNK         0.4918 
     21 O          17.3349  -24.2529  -42.7846 O.2       2 UNK        -0.4875 
     22 CA         19.1257  -23.9031  -44.3441 C.3       2 UNK         0.0481 
     23 CB         19.9448  -22.8717  -43.5512 C.3       2 UNK        -0.1831 
     24 N          20.0425  -24.7042  -45.1635 N.am      2 UNK        -0.4498 
     25 C          19.6994  -25.4318  -46.2352 C.2       1 UNK         0.5027 
     26 O          18.6116  -25.3408  -46.8056 O.2       1 UNK        -0.4969 
     27 C          18.4719  -27.0083  -40.9781 C.2       3 UNK         0.5005 
     28 O          19.0106  -25.9824  -40.5536 O.2       3 UNK        -0.5279 
     29 N          18.2589  -28.0994  -40.2256 N.am      4 UNK        -0.4463 
     30 CA         18.5723  -28.3202  -38.8042 C.3       4 UNK         0.0283 
     31 CB         17.8114  -27.3367  -37.8927 C.3       4 UNK        -0.1875 
     32 C          20.0767  -28.3384  -38.4760 C.2       4 UNK         0.4949 
     33 O          20.5623  -29.3269  -37.9281 O.2       4 UNK        -0.5039 
     34 N          20.7862  -27.2598  -38.8206 N.am      5 UNK        -0.4663 
     35 CA         22.2276  -27.0901  -38.6118 C.3       5 UNK         0.0242 
     36 CB         22.4914  -25.6239  -38.2276 C.3       5 UNK        -0.1982 
     37 C          23.0601  -27.4799  -39.8476 C.2       5 UNK         0.5017 
     38 O          24.2888  -27.4922  -39.7623 O.2       5 UNK        -0.5012 
     39 N          22.3910  -27.7518  -40.9753 N.am      6 UNK        -0.4439 
     40 CA         23.0014  -28.1059  -42.2561 C.3       6 UNK         0.0297 
     41 CB         21.9333  -28.0143  -43.3546 C.3       6 UNK        -0.2006 
     42 C          23.6168  -29.5128  -42.2406 C.2       6 UNK         0.4892 
     43 O          23.0231  -30.4264  -41.6654 O.2       6 UNK        -0.5089 
     44 N          24.7621  -29.6624  -42.9227 N.am      7 UNK        -0.4243 
     45 CA         25.4985  -30.9143  -43.1420 C.3       7 UNK         0.0196 
     46 CB         24.7672  -31.7636  -44.2087 C.3       7 UNK        -0.2007 
     47 C          25.7867  -31.6652  -41.8234 C.2       7 UNK         0.5020 
     48 O          26.2304  -31.0394  -40.8588 O.2       7 UNK        -0.5147 
     49 N          25.5288  -32.9780  -41.7990 N.am      8 UNK        -0.4734 
     50 CA         25.5668  -33.8073  -40.5916 C.3       8 UNK         0.0238 
     51 CB         26.1604  -35.1800  -40.9518 C.3       8 UNK        -0.1912 
     52 C          24.1743  -33.9795  -39.9559 C.2       8 UNK         0.5038 
     53 O          24.0996  -34.4055  -38.8023 O.2       8 UNK        -0.5046 
     54 N          23.1060  -33.6905  -40.7122 N.am      9 UNK        -0.4200 
     55 CA         21.7075  -33.8641  -40.2933 C.3       9 UNK         0.0839 
     56 C          21.1488  -32.7332  -39.3870 C.2       9 UNK         0.5513 
     57 N          21.7018  -31.5295  -39.4077 N.am      9 UNK        -0.7519 
     58 O          20.2009  -32.9639  -38.6408 O.2       9 UNK        -0.4960 
     59 C59        20.7686  -34.1807  -41.4900 C.3       10 UNK        -0.0876 
     60 S60        20.9790  -33.1151  -42.9617 S.3       10 UNK        -0.2414 
     61 C61        19.8958  -31.7004  -42.5682 C.3       10 UNK         0.0169 
     62 H62        24.2020  -23.5918  -46.8793 H         1 UNK         0.0903 
     63 H63        25.0429  -25.1419  -46.7913 H         1 UNK         0.0903 
     64 H64        24.0633  -24.7486  -48.2056 H         1 UNK         0.0903 
     65 H65        22.0807  -25.7911  -48.1953 H         1 UNK         0.3096 
     66 H66        21.0086  -27.0190  -45.8006 H         1 UNK         0.1121 
     67 H67        20.1779  -27.0894  -48.7219 H         1 UNK         0.0849 
     68 H68        19.1743  -27.7711  -47.4749 H         1 UNK         0.0849 
     69 H69        19.2467  -30.2490  -48.2848 H         1 UNK         0.0865 
     70 H70        20.4803  -31.2924  -47.6413 H         1 UNK         0.0865 
     71 H71        20.9285  -31.3288  -45.1274 H         1 UNK         0.1346 
     72 H72        17.4447  -30.5871  -42.7293 H         1 UNK         0.1412 
     73 H73        17.5249  -29.3486  -46.8236 H         1 UNK         0.1426 
     74 H74        15.4183  -29.7583  -43.7781 H         1 UNK         0.0716 
     75 H75        15.3757  -29.5175  -45.5037 H         1 UNK         0.0716 
     76 H76        16.1711  -28.1882  -42.0842 H         1 UNK         0.0695 
     77 H77        15.9808  -26.4658  -42.2121 H         1 UNK         0.0695 
     78 H78        18.5408  -28.0260  -42.8238 H         1 UNK         0.0983 
     79 H79        19.4406  -26.3339  -43.8177 H         1 UNK         0.3095 
     80 H80        18.4402  -23.3668  -45.0034 H         1 UNK         0.0454 
     81 H81        20.6426  -23.3525  -42.8643 H         1 UNK         0.0851 
     82 H82        19.2937  -22.2294  -42.9566 H         1 UNK         0.0851 
     83 H83        20.5180  -22.2242  -44.2148 H         1 UNK         0.0851 
     84 H84        21.0029  -24.7873  -44.8372 H         1 UNK         0.2976 
     85 H85        17.8394  -28.8994  -40.6781 H         1 UNK         0.3116 
     86 H86        18.1972  -29.3198  -38.5771 H         1 UNK         0.0646 
     87 H87        18.1178  -26.3027  -38.0528 H         1 UNK         0.0847 
     88 H88        17.9893  -27.5658  -36.8411 H         1 UNK         0.0847 
     89 H89        16.7358  -27.3953  -38.0582 H         1 UNK         0.0847 
     90 H90        20.2907  -26.5149  -39.3083 H         1 UNK         0.3040 
     91 H91        22.5593  -27.7250  -37.7870 H         1 UNK         0.1015 
     92 H92        22.1930  -24.9389  -39.0224 H         1 UNK         0.0786 
     93 H93        23.5506  -25.4537  -38.0296 H         1 UNK         0.0786 
     94 H94        21.9467  -25.3475  -37.3245 H         1 UNK         0.0786 
     95 H95        21.3848  -27.7586  -40.9265 H         1 UNK         0.3172 
     96 H96        23.7847  -27.3761  -42.4724 H         1 UNK         0.0595 
     97 H97        22.3587  -28.2666  -44.3271 H         1 UNK         0.0839 
     98 H98        21.5340  -27.0034  -43.4234 H         1 UNK         0.0839 
     99 H99        21.1054  -28.7011  -43.1754 H         1 UNK         0.0839 
    100 H100       25.1808  -28.8380  -43.3298 H         1 UNK         0.2998 
    101 H101       26.4716  -30.6346  -43.5483 H         1 UNK         0.0822 
    102 H102       25.3504  -32.6396  -44.4950 H         1 UNK         0.0787 
    103 H103       23.7911  -32.1043  -43.8611 H         1 UNK         0.0787 
    104 H104       24.6028  -31.1869  -45.1192 H         1 UNK         0.0787 
    105 H105       25.1983  -33.4184  -42.6460 H         1 UNK         0.3055 
    106 H106       26.2103  -33.3467  -39.8383 H         1 UNK         0.1106 
    107 H107       26.2296  -35.8192  -40.0703 H         1 UNK         0.0828 
    108 H108       25.5508  -35.7056  -41.6878 H         1 UNK         0.0828 
    109 H109       27.1675  -35.0820  -41.3575 H         1 UNK         0.0828 
    110 H110       23.2398  -33.2717  -41.6201 H         1 UNK         0.2931 
    111 H111       21.6815  -34.7561  -39.6634 H         1 UNK         0.0412 
    112 H112       22.3885  -31.2874  -40.1171 H         1 UNK         0.3472 
    113 H113       21.3255  -30.8050  -38.8043 H         1 UNK         0.3472 
    114 H114       19.7211  -34.1903  -41.1826 H         1 UNK         0.0970 
    115 H115       20.9684  -35.2009  -41.8210 H         1 UNK         0.0970 
    116 H116       19.1115  -32.0395  -41.8903 H         1 UNK         0.0612 
    117 H117       20.4700  -30.9529  -42.0217 H         1 UNK         0.0612 
@<TRIPOS>BOND
     1    1    2 1    
     2    1   62 1    
     3    1   63 1    
     4    1   64 1    
     5    2    3 2    
     6    2    4 am   BACKBONE|DICT|INTERRES
     7    4    5 1    
     8    4   65 1    
     9    5    6 1    
    10    5   25 1    
    11    5   66 1    
    12    6    7 1    
    13    6   67 1    
    14    6   68 1    
    15    7    8 1    
    16    8    9 1    
    17    8   69 1    
    18    8   70 1    
    19    9   10 ar   
    20    9   14 ar   
    21   10   11 ar   
    22   10   71 1    
    23   11   12 ar   
    24   11   61 1    
    25   12   13 ar   
    26   12   72 1    
    27   13   14 ar   
    28   13   15 1    
    29   14   73 1    
    30   15   16 1    
    31   15   74 1    
    32   15   75 1    
    33   16   17 1    
    34   17   18 1    
    35   17   76 1    
    36   17   77 1    
    37   18   19 1    
    38   18   27 1    
    39   18   78 1    
    40   19   20 am   BACKBONE|DICT|INTERRES
    41   19   79 1    
    42   20   21 2    
    43   20   22 1    
    44   22   23 1    
    45   22   24 1    
    46   22   80 1    
    47   23   81 1    
    48   23   82 1    
    49   23   83 1    
    50   24   25 am   BACKBONE|DICT|INTERRES
    51   24   84 1    
    52   25   26 2    
    53   27   28 2    
    54   27   29 am   BACKBONE|DICT|INTERRES
    55   29   30 1    
    56   29   85 1    
    57   30   31 1    
    58   30   32 1    
    59   30   86 1    
    60   31   87 1    
    61   31   88 1    
    62   31   89 1    
    63   32   33 2    
    64   32   34 am   BACKBONE|DICT|INTERRES
    65   34   35 1    
    66   34   90 1    
    67   35   36 1    
    68   35   37 1    
    69   35   91 1    
    70   36   92 1    
    71   36   93 1    
    72   36   94 1    
    73   37   38 2    
    74   37   39 am   BACKBONE|DICT|INTERRES
    75   39   40 1    
    76   39   95 1    
    77   40   41 1    
    78   40   42 1    
    79   40   96 1    
    80   41   97 1    
    81   41   98 1    
    82   41   99 1    
    83   42   43 2    
    84   42   44 am   BACKBONE|DICT|INTERRES
    85   44   45 1    
    86   44  100 1    
    87   45   46 1    
    88   45   47 1    
    89   45  101 1    
    90   46  102 1    
    91   46  103 1    
    92   46  104 1    
    93   47   48 2    
    94   47   49 am   BACKBONE|DICT|INTERRES
    95   49   50 1    
    96   49  105 1    
    97   50   51 1    
    98   50   52 1    
    99   50  106 1    
   100   51  107 1    
   101   51  108 1    
   102   51  109 1    
   103   52   53 2    
   104   52   54 am   BACKBONE|DICT|INTERRES
   105   54   55 1    
   106   54  110 1    
   107   55   56 1    
   108   55   59 1    
   109   55  111 1    
   110   56   57 am   BACKBONE|DICT|INTERRES
   111   56   58 2    
   112   57  112 1    
   113   57  113 1    
   114   59   60 1    
   115   59  114 1    
   116   59  115 1    
   117   60   61 1    
   118   61  116 1    
   119   61  117 1    
@<TRIPOS>SUBSTRUCTURE
     1 UNK         1 GROUP             0       ****    0 ROOT    
