@<TRIPOS>MOLECULE
3R8
117   119    1
SMALL
USER_CHARGES


@<TRIPOS>ATOM
      1 CA         20.1288  -24.3638  -40.1514 C.3       0 UNK        -0.2013 
      2 C          19.7402  -24.9896  -41.4813 C.2       0 UNK         0.4866 
      3 O          20.5067  -25.7856  -42.0265 O.2       0 UNK        -0.5176 
      4 N          18.5507  -24.6334  -41.9872 N.am      1 UNK        -0.4884 
      5 CA         17.9975  -24.9875  -43.3060 C.3       1 UNK         0.0853 
      6 C6         17.9293  -26.5197  -43.5808 C.3       10 UNK        -0.0849 
      7 S7         16.9405  -27.4312  -42.3496 S.3       10 UNK        -0.2776 
      8 C8         16.5291  -28.9455  -43.2785 C.3       10 UNK         0.0316 
      9 C9         17.7696  -29.7635  -43.6130 C.ar      10 UNK        -0.0863 
     10 C10        18.3589  -30.5710  -42.6370 C.ar      10 UNK        -0.1009 
     11 C11        19.5020  -31.3200  -42.9291 C.ar      10 UNK        -0.0712 
     12 C12        20.0611  -31.2511  -44.2088 C.ar      10 UNK        -0.0894 
     13 C13        19.4739  -30.4600  -45.2025 C.ar      10 UNK        -0.0745 
     14 C14        18.3222  -29.7241  -44.8973 C.ar      10 UNK        -0.0972 
     15 C15        20.0660  -30.4528  -46.6108 C.3       10 UNK         0.0209 
     16 S16        20.1606  -28.7980  -47.3733 S.3       10 UNK        -0.2568 
     17 C17        21.4138  -27.9950  -46.3227 C.3       10 UNK        -0.0983 
     18 CA         21.6573  -26.5133  -46.7082 C.3       3 UNK         0.0876 
     19 N          20.4139  -25.7434  -46.6735 N.am      3 UNK        -0.4424 
     20 C          20.2260  -24.5216  -47.1880 C.2       2 UNK         0.4918 
     21 O          21.0746  -23.9071  -47.8339 O.2       2 UNK        -0.4875 
     22 CA         18.8589  -23.8659  -46.9023 C.3       2 UNK         0.0481 
     23 CB         17.9101  -24.0659  -48.0946 C.3       2 UNK        -0.1831 
     24 N          18.2167  -24.3679  -45.6776 N.am      2 UNK        -0.4498 
     25 C          18.7363  -24.2477  -44.4456 C.2       1 UNK         0.5027 
     26 O          19.7727  -23.6167  -44.2213 O.2       1 UNK        -0.4969 
     27 C          22.7543  -25.9203  -45.7975 C.2       3 UNK         0.5005 
     28 O          23.9309  -26.1852  -46.0488 O.2       3 UNK        -0.5279 
     29 N          22.3592  -25.1742  -44.7480 N.am      4 UNK        -0.4463 
     30 CA         23.1936  -24.7020  -43.6328 C.3       4 UNK         0.0283 
     31 CB         24.1925  -23.6255  -44.1067 C.3       4 UNK        -0.1875 
     32 C          23.8681  -25.8800  -42.8988 C.2       4 UNK         0.4949 
     33 O          25.0778  -25.8565  -42.6639 O.2       4 UNK        -0.5039 
     34 N          23.0726  -26.9183  -42.6091 N.am      5 UNK        -0.4663 
     35 CA         23.5484  -28.2377  -42.1926 C.3       5 UNK         0.0242 
     36 CB         23.9307  -29.0609  -43.4408 C.3       5 UNK        -0.1982 
     37 C          22.5514  -28.9953  -41.3012 C.2       5 UNK         0.5017 
     38 O          22.6956  -30.2099  -41.1724 O.2       5 UNK        -0.5012 
     39 N          21.5819  -28.3043  -40.6779 N.am      6 UNK        -0.4439 
     40 CA         20.5287  -28.8977  -39.8315 C.3       6 UNK         0.0297 
     41 CB         19.6017  -27.7985  -39.2920 C.3       6 UNK        -0.2006 
     42 C          21.0052  -29.7946  -38.6684 C.2       6 UNK         0.4892 
     43 O          20.2357  -30.6415  -38.2142 O.2       6 UNK        -0.5089 
     44 N          22.2488  -29.6014  -38.2090 N.am      7 UNK        -0.4243 
     45 CA         22.9025  -30.4277  -37.1912 C.3       7 UNK         0.0196 
     46 CB         24.0842  -29.6393  -36.6017 C.3       7 UNK        -0.2007 
     47 C          23.3793  -31.8005  -37.7107 C.2       7 UNK         0.5020 
     48 O          23.6786  -32.6694  -36.8902 O.2       7 UNK        -0.5147 
     49 N          23.4762  -31.9718  -39.0364 N.am      8 UNK        -0.4734 
     50 CA         23.9120  -33.2009  -39.7029 C.3       8 UNK         0.0238 
     51 CB         24.8631  -32.8191  -40.8578 C.3       8 UNK        -0.1912 
     52 C          22.6937  -34.0340  -40.1538 C.2       8 UNK         0.5038 
     53 O          21.6867  -34.0625  -39.4453 O.2       8 UNK        -0.5046 
     54 N          22.8255  -34.7117  -41.3050 N.am      9 UNK        -0.4200 
     55 CA         21.8358  -35.5595  -42.0015 C.3       9 UNK         0.0839 
     56 C          21.2314  -36.7568  -41.2033 C.2       9 UNK         0.5513 
     57 N          21.7988  -37.1521  -40.0705 N.am      9 UNK        -0.7519 
     58 O          20.2664  -37.3766  -41.6440 O.2       9 UNK        -0.4960 
     59 C59        20.8024  -34.7499  -42.8443 C.3       10 UNK        -0.0876 
     60 S60        19.4958  -33.8948  -41.8965 S.3       10 UNK        -0.2414 
     61 C61        20.1327  -32.1922  -41.8542 C.3       10 UNK         0.0169 
     62 H62        19.3154  -24.4443  -39.4307 H         1 UNK         0.0903 
     63 H63        20.3716  -23.3103  -40.2874 H         1 UNK         0.0903 
     64 H64        21.0036  -24.8599  -39.7321 H         1 UNK         0.0903 
     65 H65        17.9923  -23.9713  -41.4667 H         1 UNK         0.3096 
     66 H66        16.9766  -24.6014  -43.3109 H         1 UNK         0.1121 
     67 H67        17.4818  -26.7116  -44.5569 H         1 UNK         0.0849 
     68 H68        18.9252  -26.9638  -43.6194 H         1 UNK         0.0849 
     69 H69        15.8459  -29.5508  -42.6809 H         1 UNK         0.0865 
     70 H70        15.9825  -28.6816  -44.1852 H         1 UNK         0.0865 
     71 H71        17.9281  -30.6125  -41.6458 H         1 UNK         0.1346 
     72 H72        20.9469  -31.8283  -44.4342 H         1 UNK         0.1412 
     73 H73        17.8563  -29.1183  -45.6620 H         1 UNK         0.1426 
     74 H74        21.0650  -30.8918  -46.6124 H         1 UNK         0.0716 
     75 H75        19.4493  -31.0909  -47.2449 H         1 UNK         0.0716 
     76 H76        22.3392  -28.5686  -46.4066 H         1 UNK         0.0695 
     77 H77        21.0941  -28.0733  -45.2812 H         1 UNK         0.0695 
     78 H78        22.0387  -26.4819  -47.7314 H         1 UNK         0.0983 
     79 H79        19.6379  -26.1878  -46.2087 H         1 UNK         0.3095 
     80 H80        19.0282  -22.7945  -46.7758 H         1 UNK         0.0454 
     81 H81        16.9664  -23.5413  -47.9450 H         1 UNK         0.0851 
     82 H82        17.6874  -25.1203  -48.2632 H         1 UNK         0.0851 
     83 H83        18.3515  -23.6764  -49.0131 H         1 UNK         0.0851 
     84 H84        17.3461  -24.8660  -45.7993 H         1 UNK         0.2976 
     85 H85        21.3714  -24.9698  -44.6464 H         1 UNK         0.3116 
     86 H86        22.5199  -24.2303  -42.9165 H         1 UNK         0.0646 
     87 H87        23.6808  -22.8055  -44.6102 H         1 UNK         0.0847 
     88 H88        24.7347  -23.1996  -43.2617 H         1 UNK         0.0847 
     89 H89        24.9339  -24.0319  -44.7952 H         1 UNK         0.0847 
     90 H90        22.0726  -26.8053  -42.7519 H         1 UNK         0.3040 
     91 H91        24.4449  -28.1106  -41.5820 H         1 UNK         0.1015 
     92 H92        23.0555  -29.2905  -44.0492 H         1 UNK         0.0786 
     93 H93        24.3926  -30.0092  -43.1632 H         1 UNK         0.0786 
     94 H94        24.6460  -28.5297  -44.0692 H         1 UNK         0.0786 
     95 H95        21.4953  -27.3144  -40.8755 H         1 UNK         0.3172 
     96 H96        19.9291  -29.5292  -40.4854 H         1 UNK         0.0595 
     97 H97        18.8587  -28.2093  -38.6065 H         1 UNK         0.0839 
     98 H98        19.0456  -27.3259  -40.0993 H         1 UNK         0.0839 
     99 H99        20.1540  -27.0310  -38.7499 H         1 UNK         0.0839 
    100 H100       22.8078  -28.8798  -38.6397 H         1 UNK         0.2998 
    101 H101       22.1856  -30.6172  -36.3892 H         1 UNK         0.0822 
    102 H102       23.7549  -28.6962  -36.1651 H         1 UNK         0.0787 
    103 H103       24.5760  -30.2060  -35.8096 H         1 UNK         0.0787 
    104 H104       24.8379  -29.4163  -37.3581 H         1 UNK         0.0787 
    105 H105       23.1510  -31.2323  -39.6551 H         1 UNK         0.3055 
    106 H106       24.4733  -33.8208  -39.0004 H         1 UNK         0.1106 
    107 H107       25.6567  -32.1579  -40.5093 H         1 UNK         0.0828 
    108 H108       25.3531  -33.6960  -41.2822 H         1 UNK         0.0828 
    109 H109       24.3387  -32.3041  -41.6640 H         1 UNK         0.0828 
    110 H110       23.7136  -34.6364  -41.7786 H         1 UNK         0.2931 
    111 H111       22.4514  -36.0706  -42.7427 H         1 UNK         0.0412 
    112 H112       21.4120  -37.9379  -39.5716 H         1 UNK         0.3472 
    113 H113       22.5851  -36.6495  -39.6917 H         1 UNK         0.3472 
    114 H114       21.3261  -34.0304  -43.4740 H         1 UNK         0.0970 
    115 H115       20.3025  -35.4202  -43.5456 H         1 UNK         0.0970 
    116 H116       19.9274  -31.7840  -40.8651 H         1 UNK         0.0612 
    117 H117       21.2173  -32.1933  -41.9591 H         1 UNK         0.0612 
@<TRIPOS>BOND
     1    1    2 1    
     2    1   62 1    
     3    1   63 1    
     4    1   64 1    
     5    2    3 2    
     6    2    4 am   BACKBONE|DICT|INTERRES
     7    4    5 1    
     8    4   65 1    
     9    5    6 1    
    10    5   25 1    
    11    5   66 1    
    12    6    7 1    
    13    6   67 1    
    14    6   68 1    
    15    7    8 1    
    16    8    9 1    
    17    8   69 1    
    18    8   70 1    
    19    9   10 ar   
    20    9   14 ar   
    21   10   11 ar   
    22   10   71 1    
    23   11   12 ar   
    24   11   61 1    
    25   12   13 ar   
    26   12   72 1    
    27   13   14 ar   
    28   13   15 1    
    29   14   73 1    
    30   15   16 1    
    31   15   74 1    
    32   15   75 1    
    33   16   17 1    
    34   17   18 1    
    35   17   76 1    
    36   17   77 1    
    37   18   19 1    
    38   18   27 1    
    39   18   78 1    
    40   19   20 am   BACKBONE|DICT|INTERRES
    41   19   79 1    
    42   20   21 2    
    43   20   22 1    
    44   22   23 1    
    45   22   24 1    
    46   22   80 1    
    47   23   81 1    
    48   23   82 1    
    49   23   83 1    
    50   24   25 am   BACKBONE|DICT|INTERRES
    51   24   84 1    
    52   25   26 2    
    53   27   28 2    
    54   27   29 am   BACKBONE|DICT|INTERRES
    55   29   30 1    
    56   29   85 1    
    57   30   31 1    
    58   30   32 1    
    59   30   86 1    
    60   31   87 1    
    61   31   88 1    
    62   31   89 1    
    63   32   33 2    
    64   32   34 am   BACKBONE|DICT|INTERRES
    65   34   35 1    
    66   34   90 1    
    67   35   36 1    
    68   35   37 1    
    69   35   91 1    
    70   36   92 1    
    71   36   93 1    
    72   36   94 1    
    73   37   38 2    
    74   37   39 am   BACKBONE|DICT|INTERRES
    75   39   40 1    
    76   39   95 1    
    77   40   41 1    
    78   40   42 1    
    79   40   96 1    
    80   41   97 1    
    81   41   98 1    
    82   41   99 1    
    83   42   43 2    
    84   42   44 am   BACKBONE|DICT|INTERRES
    85   44   45 1    
    86   44  100 1    
    87   45   46 1    
    88   45   47 1    
    89   45  101 1    
    90   46  102 1    
    91   46  103 1    
    92   46  104 1    
    93   47   48 2    
    94   47   49 am   BACKBONE|DICT|INTERRES
    95   49   50 1    
    96   49  105 1    
    97   50   51 1    
    98   50   52 1    
    99   50  106 1    
   100   51  107 1    
   101   51  108 1    
   102   51  109 1    
   103   52   53 2    
   104   52   54 am   BACKBONE|DICT|INTERRES
   105   54   55 1    
   106   54  110 1    
   107   55   56 1    
   108   55   59 1    
   109   55  111 1    
   110   56   57 am   BACKBONE|DICT|INTERRES
   111   56   58 2    
   112   57  112 1    
   113   57  113 1    
   114   59   60 1    
   115   59  114 1    
   116   59  115 1    
   117   60   61 1    
   118   61  116 1    
   119   61  117 1    
@<TRIPOS>SUBSTRUCTURE
     1 UNK         1 GROUP             0       ****    0 ROOT    
