@<TRIPOS>MOLECULE
3R8
117   119    1
SMALL
USER_CHARGES


@<TRIPOS>ATOM
      1 CA         14.1641  -22.9884  -47.2528 C.3       0 UNK        -0.2013 
      2 C          14.3696  -23.9255  -46.0714 C.2       0 UNK         0.4866 
      3 O          13.7881  -23.6982  -45.0098 O.2       0 UNK        -0.5176 
      4 N          15.1868  -24.9718  -46.2598 N.am      1 UNK        -0.4884 
      5 CA         15.5691  -25.9934  -45.2715 C.3       1 UNK         0.0853 
      6 C6         14.3607  -26.8349  -44.7570 C.3       10 UNK        -0.0849 
      7 S7         13.8159  -28.0208  -46.0308 S.3       10 UNK        -0.2776 
      8 C8         14.4384  -29.6040  -45.3629 C.3       10 UNK         0.0316 
      9 C9         15.9229  -29.5656  -45.0103 C.ar      10 UNK        -0.0863 
     10 C10        16.3427  -29.8230  -43.7008 C.ar      10 UNK        -0.1009 
     11 C11        17.6995  -29.8023  -43.3608 C.ar      10 UNK        -0.0712 
     12 C12        18.6391  -29.5064  -44.3582 C.ar      10 UNK        -0.0894 
     13 C13        18.2349  -29.2301  -45.6668 C.ar      10 UNK        -0.0745 
     14 C14        16.8769  -29.2803  -45.9906 C.ar      10 UNK        -0.0972 
     15 C15        19.2621  -28.8885  -46.7366 C.3       10 UNK         0.0209 
     16 S16        19.7964  -27.1479  -46.6331 S.3       10 UNK        -0.2568 
     17 C17        21.1657  -27.2385  -45.4262 C.3       10 UNK        -0.0983 
     18 CA         20.9764  -26.3172  -44.1934 C.3       3 UNK         0.0876 
     19 N          19.6731  -26.5012  -43.5422 N.am      3 UNK        -0.4424 
     20 C          19.1807  -25.7359  -42.5566 C.2       2 UNK         0.4918 
     21 O          19.7885  -24.7929  -42.0479 O.2       2 UNK        -0.4875 
     22 CA         17.7595  -26.0917  -42.0798 C.3       2 UNK         0.0481 
     23 CB         17.1772  -25.0703  -41.0798 C.3       2 UNK        -0.1831 
     24 N          16.8392  -26.3237  -43.2006 N.am      2 UNK        -0.4498 
     25 C          16.4672  -25.4389  -44.1411 C.2       1 UNK         0.5027 
     26 O          16.8510  -24.2664  -44.1647 O.2       1 UNK        -0.4969 
     27 C          22.1645  -26.4931  -43.2232 C.2       3 UNK         0.5005 
     28 O          23.1849  -25.8251  -43.3954 O.2       3 UNK        -0.5279 
     29 N          22.0039  -27.3868  -42.2317 N.am      4 UNK        -0.4463 
     30 CA         22.9531  -27.7069  -41.1576 C.3       4 UNK         0.0283 
     31 CB         23.1089  -26.5117  -40.1942 C.3       4 UNK        -0.1875 
     32 C          24.3063  -28.2449  -41.6625 C.2       4 UNK         0.4949 
     33 O          25.3411  -27.9816  -41.0472 O.2       4 UNK        -0.5039 
     34 N          24.2776  -29.0139  -42.7613 N.am      5 UNK        -0.4663 
     35 CA         25.4407  -29.6910  -43.3426 C.3       5 UNK         0.0242 
     36 CB         25.0277  -30.3949  -44.6446 C.3       5 UNK        -0.1982 
     37 C          26.0481  -30.6861  -42.3408 C.2       5 UNK         0.5017 
     38 O          25.3295  -31.5650  -41.8571 O.2       5 UNK        -0.5012 
     39 N          27.3224  -30.4728  -41.9823 N.am      6 UNK        -0.4439 
     40 CA         28.0645  -31.1719  -40.9207 C.3       6 UNK         0.0297 
     41 CB         28.3207  -32.6415  -41.3191 C.3       6 UNK        -0.2006 
     42 C          27.4159  -31.0502  -39.5214 C.2       6 UNK         0.4892 
     43 O          27.6415  -31.9140  -38.6731 O.2       6 UNK        -0.5089 
     44 N          26.6000  -30.0007  -39.3204 N.am      7 UNK        -0.4243 
     45 CA         25.7380  -29.7313  -38.1618 C.3       7 UNK         0.0196 
     46 CB         26.5767  -29.5082  -36.8852 C.3       7 UNK        -0.2007 
     47 C          24.6138  -30.7703  -37.9553 C.2       7 UNK         0.5020 
     48 O          24.0129  -30.7916  -36.8802 O.2       7 UNK        -0.5147 
     49 N          24.3383  -31.6060  -38.9673 N.am      8 UNK        -0.4734 
     50 CA         23.3955  -32.7270  -38.8880 C.3       8 UNK         0.0238 
     51 CB         24.2058  -34.0336  -38.8079 C.3       8 UNK        -0.1912 
     52 C          22.4038  -32.7800  -40.0619 C.2       8 UNK         0.5038 
     53 O          21.5256  -33.6437  -40.0459 O.2       8 UNK        -0.5046 
     54 N          22.5642  -31.8964  -41.0579 N.am      9 UNK        -0.4200 
     55 CA         21.8711  -31.9320  -42.3585 C.3       9 UNK         0.0839 
     56 C          22.2915  -33.1586  -43.2240 C.2       9 UNK         0.5513 
     57 N          23.5475  -33.5844  -43.1548 N.am      9 UNK        -0.7519 
     58 O          21.4934  -33.7175  -43.9720 O.2       9 UNK        -0.4960 
     59 C59        20.3306  -31.7388  -42.2577 C.3       10 UNK        -0.0876 
     60 S60        19.8705  -30.1307  -41.5288 S.3       10 UNK        -0.2414 
     61 C61        18.0831  -30.1037  -41.9075 C.3       10 UNK         0.0169 
     62 H62        13.1083  -22.9473  -47.5196 H         1 UNK         0.0903 
     63 H63        14.4893  -21.9813  -46.9929 H         1 UNK         0.0903 
     64 H64        14.7231  -23.3086  -48.1319 H         1 UNK         0.0903 
     65 H65        15.6389  -25.0706  -47.1583 H         1 UNK         0.3096 
     66 H66        16.2381  -26.6597  -45.8158 H         1 UNK         0.1121 
     67 H67        14.5868  -27.3938  -43.8490 H         1 UNK         0.0849 
     68 H68        13.5173  -26.1993  -44.4872 H         1 UNK         0.0849 
     69 H69        13.8400  -29.8739  -44.4912 H         1 UNK         0.0865 
     70 H70        14.2696  -30.3892  -46.1011 H         1 UNK         0.0865 
     71 H71        15.6090  -30.0515  -42.9390 H         1 UNK         0.1346 
     72 H72        19.6931  -29.4920  -44.1302 H         1 UNK         0.1412 
     73 H73        16.5560  -29.0794  -47.0041 H         1 UNK         0.1426 
     74 H74        20.1216  -29.5568  -46.6662 H         1 UNK         0.0716 
     75 H75        18.8370  -29.0568  -47.7273 H         1 UNK         0.0716 
     76 H76        21.3163  -28.2731  -45.1169 H         1 UNK         0.0695 
     77 H77        22.0783  -26.9598  -45.9569 H         1 UNK         0.0695 
     78 H78        21.0064  -25.2826  -44.5427 H         1 UNK         0.0983 
     79 H79        19.0824  -27.2206  -43.9335 H         1 UNK         0.3095 
     80 H80        17.8484  -27.0417  -41.5536 H         1 UNK         0.0454 
     81 H81        17.1077  -24.0709  -41.5101 H         1 UNK         0.0851 
     82 H82        16.1811  -25.3628  -40.7483 H         1 UNK         0.0851 
     83 H83        17.8044  -24.9954  -40.1907 H         1 UNK         0.0851 
     84 H84        16.5045  -27.2735  -43.2897 H         1 UNK         0.2976 
     85 H85        21.1227  -27.8809  -42.1887 H         1 UNK         0.3116 
     86 H86        22.5034  -28.5237  -40.5909 H         1 UNK         0.0646 
     87 H87        23.6966  -26.7867  -39.3176 H         1 UNK         0.0847 
     88 H88        22.1407  -26.1615  -39.8365 H         1 UNK         0.0847 
     89 H89        23.6131  -25.6712  -40.6722 H         1 UNK         0.0847 
     90 H90        23.3891  -29.1676  -43.2119 H         1 UNK         0.3040 
     91 H91        26.1829  -28.9278  -43.5864 H         1 UNK         0.1015 
     92 H92        24.6448  -29.6830  -45.3762 H         1 UNK         0.0786 
     93 H93        24.2584  -31.1477  -44.4762 H         1 UNK         0.0786 
     94 H94        25.8801  -30.8998  -45.1011 H         1 UNK         0.0786 
     95 H95        27.8152  -29.7037  -42.4164 H         1 UNK         0.3172 
     96 H96        29.0328  -30.6749  -40.8474 H         1 UNK         0.0595 
     97 H97        27.3985  -33.2234  -41.3362 H         1 UNK         0.0839 
     98 H98        28.9964  -33.1274  -40.6141 H         1 UNK         0.0839 
     99 H99        28.7802  -32.7122  -42.3048 H         1 UNK         0.0839 
    100 H100       26.4720  -29.3480  -40.0885 H         1 UNK         0.2998 
    101 H101       25.2304  -28.7917  -38.3838 H         1 UNK         0.0822 
    102 H102       27.3595  -28.7677  -37.0491 H         1 UNK         0.0787 
    103 H103       25.9550  -29.1430  -36.0668 H         1 UNK         0.0787 
    104 H104       27.0505  -30.4290  -36.5441 H         1 UNK         0.0787 
    105 H105       24.8922  -31.5424  -39.8150 H         1 UNK         0.3055 
    106 H106       22.7841  -32.6470  -37.9864 H         1 UNK         0.1106 
    107 H107       23.5507  -34.9012  -38.7176 H         1 UNK         0.0828 
    108 H108       24.8213  -34.1785  -39.6969 H         1 UNK         0.0828 
    109 H109       24.8664  -34.0368  -37.9406 H         1 UNK         0.0828 
    110 H110       23.3653  -31.2839  -41.0163 H         1 UNK         0.2931 
    111 H111       22.2516  -31.0744  -42.9128 H         1 UNK         0.0412 
    112 H112       23.8362  -34.3744  -43.7091 H         1 UNK         0.3472 
    113 H113       24.2226  -33.0839  -42.5877 H         1 UNK         0.3472 
    114 H114       19.8700  -32.5383  -41.6767 H         1 UNK         0.0970 
    115 H115       19.8799  -31.8011  -43.2493 H         1 UNK         0.0970 
    116 H116       17.6152  -29.3595  -41.2629 H         1 UNK         0.0612 
    117 H117       17.6549  -31.0647  -41.6186 H         1 UNK         0.0612 
@<TRIPOS>BOND
     1    1    2 1    
     2    1   62 1    
     3    1   63 1    
     4    1   64 1    
     5    2    3 2    
     6    2    4 am   BACKBONE|DICT|INTERRES
     7    4    5 1    
     8    4   65 1    
     9    5    6 1    
    10    5   25 1    
    11    5   66 1    
    12    6    7 1    
    13    6   67 1    
    14    6   68 1    
    15    7    8 1    
    16    8    9 1    
    17    8   69 1    
    18    8   70 1    
    19    9   10 ar   
    20    9   14 ar   
    21   10   11 ar   
    22   10   71 1    
    23   11   12 ar   
    24   11   61 1    
    25   12   13 ar   
    26   12   72 1    
    27   13   14 ar   
    28   13   15 1    
    29   14   73 1    
    30   15   16 1    
    31   15   74 1    
    32   15   75 1    
    33   16   17 1    
    34   17   18 1    
    35   17   76 1    
    36   17   77 1    
    37   18   19 1    
    38   18   27 1    
    39   18   78 1    
    40   19   20 am   BACKBONE|DICT|INTERRES
    41   19   79 1    
    42   20   21 2    
    43   20   22 1    
    44   22   23 1    
    45   22   24 1    
    46   22   80 1    
    47   23   81 1    
    48   23   82 1    
    49   23   83 1    
    50   24   25 am   BACKBONE|DICT|INTERRES
    51   24   84 1    
    52   25   26 2    
    53   27   28 2    
    54   27   29 am   BACKBONE|DICT|INTERRES
    55   29   30 1    
    56   29   85 1    
    57   30   31 1    
    58   30   32 1    
    59   30   86 1    
    60   31   87 1    
    61   31   88 1    
    62   31   89 1    
    63   32   33 2    
    64   32   34 am   BACKBONE|DICT|INTERRES
    65   34   35 1    
    66   34   90 1    
    67   35   36 1    
    68   35   37 1    
    69   35   91 1    
    70   36   92 1    
    71   36   93 1    
    72   36   94 1    
    73   37   38 2    
    74   37   39 am   BACKBONE|DICT|INTERRES
    75   39   40 1    
    76   39   95 1    
    77   40   41 1    
    78   40   42 1    
    79   40   96 1    
    80   41   97 1    
    81   41   98 1    
    82   41   99 1    
    83   42   43 2    
    84   42   44 am   BACKBONE|DICT|INTERRES
    85   44   45 1    
    86   44  100 1    
    87   45   46 1    
    88   45   47 1    
    89   45  101 1    
    90   46  102 1    
    91   46  103 1    
    92   46  104 1    
    93   47   48 2    
    94   47   49 am   BACKBONE|DICT|INTERRES
    95   49   50 1    
    96   49  105 1    
    97   50   51 1    
    98   50   52 1    
    99   50  106 1    
   100   51  107 1    
   101   51  108 1    
   102   51  109 1    
   103   52   53 2    
   104   52   54 am   BACKBONE|DICT|INTERRES
   105   54   55 1    
   106   54  110 1    
   107   55   56 1    
   108   55   59 1    
   109   55  111 1    
   110   56   57 am   BACKBONE|DICT|INTERRES
   111   56   58 2    
   112   57  112 1    
   113   57  113 1    
   114   59   60 1    
   115   59  114 1    
   116   59  115 1    
   117   60   61 1    
   118   61  116 1    
   119   61  117 1    
@<TRIPOS>SUBSTRUCTURE
     1 UNK         1 GROUP             0       ****    0 ROOT    
