@<TRIPOS>MOLECULE
3R8
117   119    1
SMALL
USER_CHARGES


@<TRIPOS>ATOM
      1 CA         11.0330  -25.7534  -44.6595 C.3       0 UNK        -0.2013 
      2 C          12.5128  -25.4275  -44.5213 C.2       0 UNK         0.4866 
      3 O          12.8938  -24.6774  -43.6217 O.2       0 UNK        -0.5176 
      4 N          13.3482  -25.9768  -45.4106 N.am      1 UNK        -0.4884 
      5 CA         14.8079  -25.8438  -45.3827 C.3       1 UNK         0.0853 
      6 C6         15.4370  -26.1662  -46.7640 C.3       10 UNK        -0.0849 
      7 S7         15.0320  -27.8346  -47.3949 S.3       10 UNK        -0.2776 
      8 C8         16.6313  -28.3852  -48.0736 C.3       10 UNK         0.0316 
      9 C9         17.6833  -28.7083  -47.0150 C.ar      10 UNK        -0.0863 
     10 C10        17.4240  -29.6451  -46.0068 C.ar      10 UNK        -0.1009 
     11 C11        18.4295  -30.0233  -45.1097 C.ar      10 UNK        -0.0712 
     12 C12        19.7050  -29.4661  -45.2380 C.ar      10 UNK        -0.0894 
     13 C13        19.9718  -28.5085  -46.2187 C.ar      10 UNK        -0.0745 
     14 C14        18.9544  -28.1294  -47.1001 C.ar      10 UNK        -0.0972 
     15 C15        21.3706  -27.9238  -46.3618 C.3       10 UNK         0.0209 
     16 S16        21.6489  -26.5035  -45.2560 S.3       10 UNK        -0.2568 
     17 C17        22.1225  -27.3126  -43.6885 C.3       10 UNK        -0.0983 
     18 CA         21.2638  -26.8596  -42.4791 C.3       3 UNK         0.0876 
     19 N          19.8584  -27.2399  -42.5971 N.am      3 UNK        -0.4424 
     20 C          18.8608  -26.4125  -42.9162 C.2       2 UNK         0.4918 
     21 O          19.0080  -25.2256  -43.2218 O.2       2 UNK        -0.4875 
     22 CA         17.4480  -26.9968  -42.8446 C.3       2 UNK         0.0481 
     23 CB         16.8881  -26.9121  -41.4121 C.3       2 UNK        -0.1831 
     24 N          16.6015  -26.2687  -43.7802 N.am      2 UNK        -0.4498 
     25 C          15.4312  -26.6990  -44.2595 C.2       1 UNK         0.5027 
     26 O          14.8685  -27.7300  -43.8779 O.2       1 UNK        -0.4969 
     27 C          21.8006  -27.4786  -41.1787 C.2       3 UNK         0.5005 
     28 O          21.3449  -28.5539  -40.7761 O.2       3 UNK        -0.5279 
     29 N          22.7771  -26.7998  -40.5673 N.am      4 UNK        -0.4463 
     30 CA         23.4835  -27.2282  -39.3585 C.3       4 UNK         0.0283 
     31 CB         22.8399  -26.5817  -38.1171 C.3       4 UNK        -0.1875 
     32 C          24.9870  -26.9287  -39.4905 C.2       4 UNK         0.4949 
     33 O          25.6334  -26.5403  -38.5163 O.2       4 UNK        -0.5039 
     34 N          25.5110  -27.1071  -40.7069 N.am      5 UNK        -0.4663 
     35 CA         26.9271  -27.0721  -41.0519 C.3       5 UNK         0.0242 
     36 CB         27.2695  -25.7276  -41.7149 C.3       5 UNK        -0.1982 
     37 C          27.1702  -28.2451  -42.0078 C.2       5 UNK         0.5017 
     38 O          26.2768  -28.5585  -42.8004 O.2       5 UNK        -0.5012 
     39 N          28.3542  -28.8699  -41.9055 N.am      6 UNK        -0.4439 
     40 CA         28.7291  -30.1431  -42.5414 C.3       6 UNK         0.0297 
     41 CB         28.8240  -29.9995  -44.0761 C.3       6 UNK        -0.2006 
     42 C          27.7792  -31.2714  -42.0904 C.2       6 UNK         0.4892 
     43 O          27.0377  -31.8245  -42.9046 O.2       6 UNK        -0.5089 
     44 N          27.7959  -31.5283  -40.7735 N.am      7 UNK        -0.4243 
     45 CA         26.8067  -32.2858  -39.9977 C.3       7 UNK         0.0196 
     46 CB         26.6357  -33.7364  -40.5085 C.3       7 UNK        -0.2007 
     47 C          25.4985  -31.4792  -39.8753 C.2       7 UNK         0.5020 
     48 O          25.5636  -30.2655  -39.6755 O.2       7 UNK        -0.5147 
     49 N          24.3438  -32.1441  -39.9599 N.am      8 UNK        -0.4734 
     50 CA         23.0118  -31.5462  -39.8916 C.3       8 UNK         0.0238 
     51 CB         22.6468  -31.2218  -38.4283 C.3       8 UNK        -0.1912 
     52 C          22.0040  -32.5188  -40.5169 C.2       8 UNK         0.5038 
     53 O          22.3671  -33.6607  -40.8180 O.2       8 UNK        -0.5046 
     54 N          20.7628  -32.0517  -40.6949 N.am      9 UNK        -0.4200 
     55 CA         19.6260  -32.8318  -41.2126 C.3       9 UNK         0.0839 
     56 C          19.3047  -34.0893  -40.3577 C.2       9 UNK         0.5513 
     57 N          18.9374  -35.1942  -40.9920 N.am      9 UNK        -0.7519 
     58 O          19.3379  -34.0542  -39.1292 O.2       9 UNK        -0.4960 
     59 C59        18.3519  -31.9608  -41.3644 C.3       10 UNK        -0.0876 
     60 S60        18.6280  -30.4707  -42.3731 S.3       10 UNK        -0.2414 
     61 C61        18.1573  -31.0645  -44.0302 C.3       10 UNK         0.0169 
     62 H62        10.6711  -26.2427  -43.7556 H         1 UNK         0.0903 
     63 H63        10.4590  -24.8387  -44.8055 H         1 UNK         0.0903 
     64 H64        10.8382  -26.4143  -45.5039 H         1 UNK         0.0903 
     65 H65        12.9934  -26.6196  -46.1051 H         1 UNK         0.3096 
     66 H66        15.0344  -24.7991  -45.1553 H         1 UNK         0.1121 
     67 H67        16.5208  -26.0401  -46.7246 H         1 UNK         0.0849 
     68 H68        15.0883  -25.4396  -47.4995 H         1 UNK         0.0849 
     69 H69        16.9955  -27.6285  -48.7704 H         1 UNK         0.0865 
     70 H70        16.4606  -29.2833  -48.6688 H         1 UNK         0.0865 
     71 H71        16.4428  -30.0946  -45.9369 H         1 UNK         0.1346 
     72 H72        20.4900  -29.7822  -44.5665 H         1 UNK         0.1412 
     73 H73        19.1672  -27.4089  -47.8783 H         1 UNK         0.1426 
     74 H74        21.5270  -27.5928  -47.3896 H         1 UNK         0.0716 
     75 H75        22.1243  -28.6915  -46.1802 H         1 UNK         0.0716 
     76 H76        23.1731  -27.0698  -43.5171 H         1 UNK         0.0695 
     77 H77        22.0879  -28.3966  -43.7984 H         1 UNK         0.0695 
     78 H78        21.3393  -25.7740  -42.3820 H         1 UNK         0.0983 
     79 H79        19.6525  -28.1856  -42.2976 H         1 UNK         0.3095 
     80 H80        17.4842  -28.0367  -43.1662 H         1 UNK         0.0454 
     81 H81        16.8111  -25.8790  -41.0716 H         1 UNK         0.0851 
     82 H82        17.5323  -27.4424  -40.7095 H         1 UNK         0.0851 
     83 H83        15.8987  -27.3634  -41.3408 H         1 UNK         0.0851 
     84 H84        17.0260  -25.4224  -44.1405 H         1 UNK         0.2976 
     85 H85        23.1052  -25.9342  -40.9761 H         1 UNK         0.3116 
     86 H86        23.4059  -28.3124  -39.2550 H         1 UNK         0.0646 
     87 H87        22.9177  -25.4944  -38.1444 H         1 UNK         0.0847 
     88 H88        23.3242  -26.9231  -37.2015 H         1 UNK         0.0847 
     89 H89        21.7843  -26.8418  -38.0384 H         1 UNK         0.0847 
     90 H90        24.9303  -27.5149  -41.4295 H         1 UNK         0.3040 
     91 H91        27.5349  -27.2094  -40.1545 H         1 UNK         0.1015 
     92 H92        26.6903  -25.5677  -42.6253 H         1 UNK         0.0786 
     93 H93        28.3251  -25.6834  -41.9859 H         1 UNK         0.0786 
     94 H94        27.0715  -24.8936  -41.0412 H         1 UNK         0.0786 
     95 H95        29.0212  -28.5086  -41.2369 H         1 UNK         0.3172 
     96 H96        29.7245  -30.3995  -42.1749 H         1 UNK         0.0595 
     97 H97        29.1834  -30.9242  -44.5290 H         1 UNK         0.0839 
     98 H98        29.5186  -29.2084  -44.3581 H         1 UNK         0.0839 
     99 H99        27.8584  -29.7742  -44.5295 H         1 UNK         0.0839 
    100 H100       28.4352  -30.9839  -40.2114 H         1 UNK         0.2998 
    101 H101       27.2094  -32.3476  -38.9856 H         1 UNK         0.0822 
    102 H102       26.0668  -34.3378  -39.7983 H         1 UNK         0.0787 
    103 H103       26.1154  -33.7812  -41.4657 H         1 UNK         0.0787 
    104 H104       27.6021  -34.2246  -40.6340 H         1 UNK         0.0787 
    105 H105       24.3414  -33.1341  -40.1767 H         1 UNK         0.3055 
    106 H106       23.0079  -30.6291  -40.4850 H         1 UNK         0.1106 
    107 H107       21.6735  -30.7339  -38.3640 H         1 UNK         0.0828 
    108 H108       22.6035  -32.1234  -37.8163 H         1 UNK         0.0828 
    109 H109       23.3698  -30.5444  -37.9743 H         1 UNK         0.0828 
    110 H110       20.5606  -31.0940  -40.4433 H         1 UNK         0.2931 
    111 H111       19.9178  -33.1713  -42.2087 H         1 UNK         0.0412 
    112 H112       18.7080  -36.0154  -40.4537 H         1 UNK         0.3472 
    113 H113       18.8983  -35.2296  -41.9991 H         1 UNK         0.3472 
    114 H114       17.9953  -31.6370  -40.3845 H         1 UNK         0.0970 
    115 H115       17.5371  -32.5403  -41.8030 H         1 UNK         0.0970 
    116 H116       17.1020  -31.3416  -44.0182 H         1 UNK         0.0612 
    117 H117       18.7204  -31.9692  -44.2630 H         1 UNK         0.0612 
@<TRIPOS>BOND
     1    1    2 1    
     2    1   62 1    
     3    1   63 1    
     4    1   64 1    
     5    2    3 2    
     6    2    4 am   BACKBONE|DICT|INTERRES
     7    4    5 1    
     8    4   65 1    
     9    5    6 1    
    10    5   25 1    
    11    5   66 1    
    12    6    7 1    
    13    6   67 1    
    14    6   68 1    
    15    7    8 1    
    16    8    9 1    
    17    8   69 1    
    18    8   70 1    
    19    9   10 ar   
    20    9   14 ar   
    21   10   11 ar   
    22   10   71 1    
    23   11   12 ar   
    24   11   61 1    
    25   12   13 ar   
    26   12   72 1    
    27   13   14 ar   
    28   13   15 1    
    29   14   73 1    
    30   15   16 1    
    31   15   74 1    
    32   15   75 1    
    33   16   17 1    
    34   17   18 1    
    35   17   76 1    
    36   17   77 1    
    37   18   19 1    
    38   18   27 1    
    39   18   78 1    
    40   19   20 am   BACKBONE|DICT|INTERRES
    41   19   79 1    
    42   20   21 2    
    43   20   22 1    
    44   22   23 1    
    45   22   24 1    
    46   22   80 1    
    47   23   81 1    
    48   23   82 1    
    49   23   83 1    
    50   24   25 am   BACKBONE|DICT|INTERRES
    51   24   84 1    
    52   25   26 2    
    53   27   28 2    
    54   27   29 am   BACKBONE|DICT|INTERRES
    55   29   30 1    
    56   29   85 1    
    57   30   31 1    
    58   30   32 1    
    59   30   86 1    
    60   31   87 1    
    61   31   88 1    
    62   31   89 1    
    63   32   33 2    
    64   32   34 am   BACKBONE|DICT|INTERRES
    65   34   35 1    
    66   34   90 1    
    67   35   36 1    
    68   35   37 1    
    69   35   91 1    
    70   36   92 1    
    71   36   93 1    
    72   36   94 1    
    73   37   38 2    
    74   37   39 am   BACKBONE|DICT|INTERRES
    75   39   40 1    
    76   39   95 1    
    77   40   41 1    
    78   40   42 1    
    79   40   96 1    
    80   41   97 1    
    81   41   98 1    
    82   41   99 1    
    83   42   43 2    
    84   42   44 am   BACKBONE|DICT|INTERRES
    85   44   45 1    
    86   44  100 1    
    87   45   46 1    
    88   45   47 1    
    89   45  101 1    
    90   46  102 1    
    91   46  103 1    
    92   46  104 1    
    93   47   48 2    
    94   47   49 am   BACKBONE|DICT|INTERRES
    95   49   50 1    
    96   49  105 1    
    97   50   51 1    
    98   50   52 1    
    99   50  106 1    
   100   51  107 1    
   101   51  108 1    
   102   51  109 1    
   103   52   53 2    
   104   52   54 am   BACKBONE|DICT|INTERRES
   105   54   55 1    
   106   54  110 1    
   107   55   56 1    
   108   55   59 1    
   109   55  111 1    
   110   56   57 am   BACKBONE|DICT|INTERRES
   111   56   58 2    
   112   57  112 1    
   113   57  113 1    
   114   59   60 1    
   115   59  114 1    
   116   59  115 1    
   117   60   61 1    
   118   61  116 1    
   119   61  117 1    
@<TRIPOS>SUBSTRUCTURE
     1 UNK         1 GROUP             0       ****    0 ROOT    
