@<TRIPOS>MOLECULE
3R8
117   119    1
SMALL
USER_CHARGES


@<TRIPOS>ATOM
      1 CA         19.3016  -28.1241  -40.4554 C.3       0 UNK        -0.2013 
      2 C          19.3939  -26.8857  -41.3296 C.2       0 UNK         0.4866 
      3 O          20.0457  -25.9139  -40.9410 O.2       0 UNK        -0.5176 
      4 N          18.7254  -26.9096  -42.4883 N.am      1 UNK        -0.4884 
      5 CA         18.6210  -25.7891  -43.4306 C.3       1 UNK         0.0853 
      6 C6         17.2668  -25.7874  -44.1984 C.3       10 UNK        -0.0849 
      7 S7         15.8231  -26.0913  -43.1147 S.3       10 UNK        -0.2776 
      8 C8         14.9526  -27.4612  -43.9519 C.3       10 UNK         0.0316 
      9 C9         15.8592  -28.6372  -44.2991 C.ar      10 UNK        -0.0863 
     10 C10        16.4201  -29.4316  -43.2936 C.ar      10 UNK        -0.1009 
     11 C11        17.2453  -30.5134  -43.6221 C.ar      10 UNK        -0.0712 
     12 C12        17.5025  -30.7996  -44.9666 C.ar      10 UNK        -0.0894 
     13 C13        16.9497  -30.0105  -45.9800 C.ar      10 UNK        -0.0745 
     14 C14        16.1247  -28.9362  -45.6393 C.ar      10 UNK        -0.0972 
     15 C15        17.2282  -30.3206  -47.4450 C.3       10 UNK         0.0209 
     16 S16        18.3926  -29.1335  -48.1905 S.3       10 UNK        -0.2568 
     17 C17        19.9395  -29.5972  -47.3471 C.3       10 UNK        -0.0983 
     18 CA         21.0651  -28.5431  -47.4905 C.3       3 UNK         0.0876 
     19 N          20.6332  -27.2120  -47.0537 N.am      3 UNK        -0.4424 
     20 C          21.3493  -26.0843  -47.1574 C.2       2 UNK         0.4918 
     21 O          22.4395  -26.0187  -47.7260 O.2       2 UNK        -0.4875 
     22 CA         20.7664  -24.8071  -46.5140 C.3       2 UNK         0.0481 
     23 CB         20.2223  -23.8672  -47.6022 C.3       2 UNK        -0.1831 
     24 N          19.7216  -25.0157  -45.4994 N.am      2 UNK        -0.4498 
     25 C          19.8403  -25.7513  -44.3825 C.2       1 UNK         0.5027 
     26 O          20.8552  -26.3981  -44.1203 O.2       1 UNK        -0.4969 
     27 C          22.3116  -29.0384  -46.7265 C.2       3 UNK         0.5005 
     28 O          23.1904  -29.6519  -47.3348 O.2       3 UNK        -0.5279 
     29 N          22.3498  -28.7831  -45.4120 N.am      4 UNK        -0.4463 
     30 CA         23.3546  -29.2596  -44.4670 C.3       4 UNK         0.0283 
     31 CB         23.2761  -30.7944  -44.3150 C.3       4 UNK        -0.1875 
     32 C          23.0724  -28.5416  -43.1440 C.2       4 UNK         0.4949 
     33 O          22.1715  -28.9517  -42.4161 O.2       4 UNK        -0.5039 
     34 N          23.7950  -27.4433  -42.8948 N.am      5 UNK        -0.4663 
     35 CA         23.5205  -26.4932  -41.8133 C.3       5 UNK         0.0242 
     36 CB         24.5198  -25.3283  -41.9012 C.3       5 UNK        -0.1982 
     37 C          23.5396  -27.1113  -40.4028 C.2       5 UNK         0.5017 
     38 O          24.5214  -27.7613  -40.0335 O.2       5 UNK        -0.5012 
     39 N          22.4752  -26.8384  -39.6346 N.am      6 UNK        -0.4439 
     40 CA         22.2776  -27.1843  -38.2246 C.3       6 UNK         0.0297 
     41 CB         23.1687  -26.2887  -37.3332 C.3       6 UNK        -0.2006 
     42 C          22.4288  -28.6951  -37.9555 C.2       6 UNK         0.4892 
     43 O          21.6188  -29.4819  -38.4472 O.2       6 UNK        -0.5089 
     44 N          23.4521  -29.0754  -37.1790 N.am      7 UNK        -0.4243 
     45 CA         23.7424  -30.4505  -36.7666 C.3       7 UNK         0.0196 
     46 CB         24.8617  -30.4294  -35.7130 C.3       7 UNK        -0.2007 
     47 C          24.1095  -31.4022  -37.9189 C.2       7 UNK         0.5020 
     48 O          24.0169  -32.6162  -37.7359 O.2       7 UNK        -0.5147 
     49 N          24.5051  -30.8645  -39.0824 N.am      8 UNK        -0.4734 
     50 CA         24.8813  -31.6486  -40.2632 C.3       8 UNK         0.0238 
     51 CB         25.6065  -30.7437  -41.2693 C.3       8 UNK        -0.1912 
     52 C          23.7145  -32.4208  -40.9146 C.2       8 UNK         0.5038 
     53 O          23.9806  -33.3704  -41.6524 O.2       8 UNK        -0.5046 
     54 N          22.4617  -32.0509  -40.6063 N.am      9 UNK        -0.4200 
     55 CA         21.2673  -32.8693  -40.8867 C.3       9 UNK         0.0839 
     56 C          21.1638  -34.1599  -40.0162 C.2       9 UNK         0.5513 
     57 N          21.9466  -34.3355  -38.9572 N.am      9 UNK        -0.7519 
     58 O          20.3519  -35.0312  -40.3168 O.2       9 UNK        -0.4960 
     59 C59        19.9578  -32.0360  -40.7962 C.3       10 UNK        -0.0876 
     60 S60        19.6219  -31.0830  -42.3152 S.3       10 UNK        -0.2414 
     61 C61        17.8411  -31.3898  -42.5299 C.3       10 UNK         0.0169 
     62 H62        19.1886  -27.8469  -39.4080 H         1 UNK         0.0903 
     63 H63        18.4547  -28.7515  -40.7306 H         1 UNK         0.0903 
     64 H64        20.2123  -28.7132  -40.5557 H         1 UNK         0.0903 
     65 H65        18.2411  -27.7513  -42.7670 H         1 UNK         0.3096 
     66 H66        18.6636  -24.8630  -42.8527 H         1 UNK         0.1121 
     67 H67        17.2852  -26.5171  -45.0077 H         1 UNK         0.0849 
     68 H68        17.1042  -24.8207  -44.6777 H         1 UNK         0.0849 
     69 H69        14.1458  -27.8115  -43.3067 H         1 UNK         0.0865 
     70 H70        14.4706  -27.0689  -44.8488 H         1 UNK         0.0865 
     71 H71        16.2089  -29.2070  -42.2567 H         1 UNK         0.1346 
     72 H72        18.1397  -31.6358  -45.2205 H         1 UNK         0.1412 
     73 H73        15.6954  -28.3285  -46.4246 H         1 UNK         0.1426 
     74 H74        16.2911  -30.2912  -48.0029 H         1 UNK         0.0716 
     75 H75        17.6195  -31.3326  -47.5611 H         1 UNK         0.0716 
     76 H76        20.2636  -30.5591  -47.7495 H         1 UNK         0.0695 
     77 H77        19.7224  -29.7650  -46.2909 H         1 UNK         0.0695 
     78 H78        21.3357  -28.4682  -48.5460 H         1 UNK         0.0983 
     79 H79        19.7337  -27.1676  -46.6001 H         1 UNK         0.3095 
     80 H80        21.5956  -24.3016  -46.0151 H         1 UNK         0.0454 
     81 H81        20.9826  -23.6589  -48.3565 H         1 UNK         0.0851 
     82 H82        19.9162  -22.9079  -47.1848 H         1 UNK         0.0851 
     83 H83        19.3643  -24.3009  -48.1174 H         1 UNK         0.0851 
     84 H84        18.8568  -24.5181  -45.6541 H         1 UNK         0.2976 
     85 H85        21.6234  -28.2041  -44.9990 H         1 UNK         0.3116 
     86 H86        24.3474  -28.9845  -44.8287 H         1 UNK         0.0646 
     87 H87        22.2918  -31.1190  -43.9749 H         1 UNK         0.0847 
     88 H88        23.4904  -31.3085  -45.2513 H         1 UNK         0.0847 
     89 H89        24.0037  -31.1507  -43.5893 H         1 UNK         0.0847 
     90 H90        24.5204  -27.1825  -43.5464 H         1 UNK         0.3040 
     91 H91        22.5226  -26.0913  -41.9999 H         1 UNK         0.1015 
     92 H92        24.3268  -24.5893  -41.1222 H         1 UNK         0.0786 
     93 H93        24.4473  -24.8128  -42.8591 H         1 UNK         0.0786 
     94 H94        25.5481  -25.6708  -41.7778 H         1 UNK         0.0786 
     95 H95        21.6866  -26.3663  -40.0736 H         1 UNK         0.3172 
     96 H96        21.2390  -26.9421  -37.9955 H         1 UNK         0.0595 
     97 H97        24.2314  -26.4268  -37.5364 H         1 UNK         0.0839 
     98 H98        22.9993  -26.4877  -36.2739 H         1 UNK         0.0839 
     99 H99        22.9425  -25.2346  -37.4944 H         1 UNK         0.0839 
    100 H100       24.0814  -28.3609  -36.8429 H         1 UNK         0.2998 
    101 H101       22.8399  -30.8506  -36.2996 H         1 UNK         0.0822 
    102 H102       25.0823  -31.4367  -35.3564 H         1 UNK         0.0787 
    103 H103       25.7875  -30.0171  -36.1166 H         1 UNK         0.0787 
    104 H104       24.5789  -29.8360  -34.8432 H         1 UNK         0.0787 
    105 H105       24.5301  -29.8547  -39.1743 H         1 UNK         0.3055 
    106 H106       25.5963  -32.4061  -39.9334 H         1 UNK         0.1106 
    107 H107       26.4970  -30.2960  -40.8280 H         1 UNK         0.0828 
    108 H108       25.9304  -31.3078  -42.1448 H         1 UNK         0.0828 
    109 H109       24.9661  -29.9343  -41.6120 H         1 UNK         0.0828 
    110 H110       22.3253  -31.2433  -40.0129 H         1 UNK         0.2931 
    111 H111       21.3588  -33.2306  -41.9131 H         1 UNK         0.0412 
    112 H112       21.8551  -35.1833  -38.4204 H         1 UNK         0.3472 
    113 H113       22.6331  -33.6421  -38.6785 H         1 UNK         0.3472 
    114 H114       19.0952  -32.6806  -40.6159 H         1 UNK         0.0970 
    115 H115       19.9919  -31.3516  -39.9466 H         1 UNK         0.0970 
    116 H116       17.3299  -31.2113  -41.5825 H         1 UNK         0.0612 
    117 H117       17.6835  -32.4410  -42.7758 H         1 UNK         0.0612 
@<TRIPOS>BOND
     1    1    2 1    
     2    1   62 1    
     3    1   63 1    
     4    1   64 1    
     5    2    3 2    
     6    2    4 am   BACKBONE|DICT|INTERRES
     7    4    5 1    
     8    4   65 1    
     9    5    6 1    
    10    5   25 1    
    11    5   66 1    
    12    6    7 1    
    13    6   67 1    
    14    6   68 1    
    15    7    8 1    
    16    8    9 1    
    17    8   69 1    
    18    8   70 1    
    19    9   10 ar   
    20    9   14 ar   
    21   10   11 ar   
    22   10   71 1    
    23   11   12 ar   
    24   11   61 1    
    25   12   13 ar   
    26   12   72 1    
    27   13   14 ar   
    28   13   15 1    
    29   14   73 1    
    30   15   16 1    
    31   15   74 1    
    32   15   75 1    
    33   16   17 1    
    34   17   18 1    
    35   17   76 1    
    36   17   77 1    
    37   18   19 1    
    38   18   27 1    
    39   18   78 1    
    40   19   20 am   BACKBONE|DICT|INTERRES
    41   19   79 1    
    42   20   21 2    
    43   20   22 1    
    44   22   23 1    
    45   22   24 1    
    46   22   80 1    
    47   23   81 1    
    48   23   82 1    
    49   23   83 1    
    50   24   25 am   BACKBONE|DICT|INTERRES
    51   24   84 1    
    52   25   26 2    
    53   27   28 2    
    54   27   29 am   BACKBONE|DICT|INTERRES
    55   29   30 1    
    56   29   85 1    
    57   30   31 1    
    58   30   32 1    
    59   30   86 1    
    60   31   87 1    
    61   31   88 1    
    62   31   89 1    
    63   32   33 2    
    64   32   34 am   BACKBONE|DICT|INTERRES
    65   34   35 1    
    66   34   90 1    
    67   35   36 1    
    68   35   37 1    
    69   35   91 1    
    70   36   92 1    
    71   36   93 1    
    72   36   94 1    
    73   37   38 2    
    74   37   39 am   BACKBONE|DICT|INTERRES
    75   39   40 1    
    76   39   95 1    
    77   40   41 1    
    78   40   42 1    
    79   40   96 1    
    80   41   97 1    
    81   41   98 1    
    82   41   99 1    
    83   42   43 2    
    84   42   44 am   BACKBONE|DICT|INTERRES
    85   44   45 1    
    86   44  100 1    
    87   45   46 1    
    88   45   47 1    
    89   45  101 1    
    90   46  102 1    
    91   46  103 1    
    92   46  104 1    
    93   47   48 2    
    94   47   49 am   BACKBONE|DICT|INTERRES
    95   49   50 1    
    96   49  105 1    
    97   50   51 1    
    98   50   52 1    
    99   50  106 1    
   100   51  107 1    
   101   51  108 1    
   102   51  109 1    
   103   52   53 2    
   104   52   54 am   BACKBONE|DICT|INTERRES
   105   54   55 1    
   106   54  110 1    
   107   55   56 1    
   108   55   59 1    
   109   55  111 1    
   110   56   57 am   BACKBONE|DICT|INTERRES
   111   56   58 2    
   112   57  112 1    
   113   57  113 1    
   114   59   60 1    
   115   59  114 1    
   116   59  115 1    
   117   60   61 1    
   118   61  116 1    
   119   61  117 1    
@<TRIPOS>SUBSTRUCTURE
     1 UNK         1 GROUP             0       ****    0 ROOT    
