@<TRIPOS>MOLECULE
3R8
117   119    1
SMALL
USER_CHARGES


@<TRIPOS>ATOM
      1 CA         19.7927  -28.1748  -42.4593 C.3       0 UNK        -0.2013 
      2 C          18.8746  -26.9706  -42.5196 C.2       0 UNK         0.4866 
      3 O          19.1181  -25.9843  -41.8260 O.2       0 UNK        -0.5176 
      4 N          17.8142  -27.0512  -43.3323 N.am      1 UNK        -0.4884 
      5 CA         16.7501  -26.0421  -43.4395 C.3       1 UNK         0.0853 
      6 C6         15.5716  -26.5470  -44.3036 C.3       10 UNK        -0.0849 
      7 S7         14.8708  -28.1045  -43.6553 S.3       10 UNK        -0.2776 
      8 C8         15.1629  -29.2652  -45.0279 C.3       10 UNK         0.0316 
      9 C9         16.6069  -29.7483  -45.1122 C.ar      10 UNK        -0.0863 
     10 C10        17.0409  -30.8073  -44.3066 C.ar      10 UNK        -0.1009 
     11 C11        18.3210  -31.3491  -44.4685 C.ar      10 UNK        -0.0712 
     12 C12        19.1807  -30.7986  -45.4259 C.ar      10 UNK        -0.0894 
     13 C13        18.7665  -29.7308  -46.2284 C.ar      10 UNK        -0.0745 
     14 C14        17.4785  -29.2091  -46.0643 C.ar      10 UNK        -0.0972 
     15 C15        19.6677  -29.2175  -47.3461 C.3       10 UNK         0.0209 
     16 S16        20.0609  -27.4471  -47.1960 S.3       10 UNK        -0.2568 
     17 C17        21.3999  -27.4702  -45.9598 C.3       10 UNK        -0.0983 
     18 CA         21.9705  -26.0563  -45.6552 C.3       3 UNK         0.0876 
     19 N          20.9309  -25.1512  -45.1690 N.am      3 UNK        -0.4424 
     20 C          20.3640  -24.1717  -45.8855 C.2       2 UNK         0.4918 
     21 O          20.7838  -23.7861  -46.9779 O.2       2 UNK        -0.4875 
     22 CA         19.0561  -23.5986  -45.3165 C.3       2 UNK         0.0481 
     23 CB         18.2698  -22.7476  -46.3347 C.3       2 UNK        -0.1831 
     24 N          18.2476  -24.7224  -44.8482 N.am      2 UNK        -0.4498 
     25 C          17.2637  -24.6773  -43.9448 C.2       1 UNK         0.5027 
     26 O          16.7944  -23.6355  -43.4845 O.2       1 UNK        -0.4969 
     27 C          23.0768  -26.1561  -44.5949 C.2       3 UNK         0.5005 
     28 O          22.7864  -26.0879  -43.3977 O.2       3 UNK        -0.5279 
     29 N          24.3158  -26.4001  -45.0465 N.am      4 UNK        -0.4463 
     30 CA         25.4837  -26.6678  -44.1943 C.3       4 UNK         0.0283 
     31 CB         26.7600  -26.5901  -45.0479 C.3       4 UNK        -0.1875 
     32 C          25.4132  -28.0197  -43.4551 C.2       4 UNK         0.4949 
     33 O          26.1589  -28.2296  -42.4992 O.2       4 UNK        -0.5039 
     34 N          24.5009  -28.9000  -43.8905 N.am      5 UNK        -0.4663 
     35 CA         24.2004  -30.2102  -43.3085 C.3       5 UNK         0.0242 
     36 CB         23.3331  -30.9957  -44.3063 C.3       5 UNK        -0.1982 
     37 C          23.5215  -30.1621  -41.9248 C.2       5 UNK         0.5017 
     38 O          23.2833  -31.2237  -41.3501 O.2       5 UNK        -0.5012 
     39 N          23.2305  -28.9610  -41.4001 N.am      6 UNK        -0.4439 
     40 CA         22.5884  -28.6915  -40.1057 C.3       6 UNK         0.0297 
     41 CB         22.5377  -27.1729  -39.8774 C.3       6 UNK        -0.2006 
     42 C          23.2127  -29.3978  -38.8877 C.2       6 UNK         0.4892 
     43 O          22.4905  -29.6851  -37.9335 O.2       6 UNK        -0.5089 
     44 N          24.5147  -29.7094  -38.9531 N.am      7 UNK        -0.4243 
     45 CA         25.2302  -30.5196  -37.9626 C.3       7 UNK         0.0196 
     46 CB         26.7307  -30.5100  -38.2960 C.3       7 UNK        -0.2007 
     47 C          24.7137  -31.9692  -37.8514 C.2       7 UNK         0.5020 
     48 O          24.8381  -32.5650  -36.7810 O.2       7 UNK        -0.5147 
     49 N          24.1480  -32.5061  -38.9409 N.am      8 UNK        -0.4734 
     50 CA         23.5225  -33.8283  -38.9984 C.3       8 UNK         0.0238 
     51 CB         24.0292  -34.5743  -40.2444 C.3       8 UNK        -0.1912 
     52 C          21.9905  -33.7179  -39.0274 C.2       8 UNK         0.5038 
     53 O          21.3207  -34.4981  -38.3494 O.2       8 UNK        -0.5046 
     54 N          21.4659  -32.7669  -39.8121 N.am      9 UNK        -0.4200 
     55 CA         20.0262  -32.5199  -39.9934 C.3       9 UNK         0.0839 
     56 C          19.3056  -31.9398  -38.7438 C.2       9 UNK         0.5513 
     57 N          19.9888  -31.2621  -37.8297 N.am      9 UNK        -0.7519 
     58 O          18.0982  -32.1129  -38.6022 O.2       9 UNK        -0.4960 
     59 C59        19.7550  -31.6339  -41.2359 C.3       10 UNK        -0.0876 
     60 S60        20.2986  -32.4137  -42.7899 S.3       10 UNK        -0.2414 
     61 C61        18.7301  -32.6005  -43.6960 C.3       10 UNK         0.0169 
     62 H62        20.8241  -27.8801  -42.6455 H         1 UNK         0.0903 
     63 H63        19.7295  -28.5951  -41.4594 H         1 UNK         0.0903 
     64 H64        19.5161  -28.9458  -43.1775 H         1 UNK         0.0903 
     65 H65        17.6515  -27.9027  -43.8547 H         1 UNK         0.3096 
     66 H66        16.3739  -25.8717  -42.4280 H         1 UNK         0.1121 
     67 H67        14.7698  -25.8061  -44.3213 H         1 UNK         0.0849 
     68 H68        15.8821  -26.6799  -45.3414 H         1 UNK         0.0849 
     69 H69        14.5081  -30.1274  -44.8925 H         1 UNK         0.0865 
     70 H70        14.8518  -28.8073  -45.9683 H         1 UNK         0.0865 
     71 H71        16.3583  -31.2454  -43.5909 H         1 UNK         0.1346 
     72 H72        20.1586  -31.2359  -45.5739 H         1 UNK         0.1412 
     73 H73        17.1428  -28.4117  -46.7137 H         1 UNK         0.1426 
     74 H74        19.1589  -29.3767  -48.2977 H         1 UNK         0.0716 
     75 H75        20.5952  -29.7897  -47.4004 H         1 UNK         0.0716 
     76 H76        21.0135  -27.9408  -45.0551 H         1 UNK         0.0695 
     77 H77        22.1878  -28.1259  -46.3350 H         1 UNK         0.0695 
     78 H78        22.4173  -25.6524  -46.5666 H         1 UNK         0.0983 
     79 H79        20.6150  -25.3273  -44.2248 H         1 UNK         0.3095 
     80 H80        19.3224  -22.9727  -44.4626 H         1 UNK         0.0454 
     81 H81        18.8675  -21.9054  -46.6851 H         1 UNK         0.0851 
     82 H82        17.9836  -23.3331  -47.2091 H         1 UNK         0.0851 
     83 H83        17.3615  -22.3348  -45.8963 H         1 UNK         0.0851 
     84 H84        18.5529  -25.6328  -45.1675 H         1 UNK         0.2976 
     85 H85        24.4719  -26.4441  -46.0444 H         1 UNK         0.3116 
     86 H86        25.5333  -25.8860  -43.4333 H         1 UNK         0.0646 
     87 H87        27.6492  -26.7498  -44.4361 H         1 UNK         0.0847 
     88 H88        26.8662  -25.6120  -45.5175 H         1 UNK         0.0847 
     89 H89        26.7680  -27.3452  -45.8349 H         1 UNK         0.0847 
     90 H90        23.9484  -28.6333  -44.6907 H         1 UNK         0.3040 
     91 H91        25.1439  -30.7443  -43.1768 H         1 UNK         0.1015 
     92 H92        23.8213  -31.0855  -45.2768 H         1 UNK         0.0786 
     93 H93        22.3631  -30.5203  -44.4578 H         1 UNK         0.0786 
     94 H94        23.1459  -32.0093  -43.9488 H         1 UNK         0.0786 
     95 H95        23.4637  -28.1490  -41.9557 H         1 UNK         0.3172 
     96 H96        21.5642  -29.0541  -40.1728 H         1 UNK         0.0595 
     97 H97        21.9767  -26.6689  -40.6652 H         1 UNK         0.0839 
     98 H98        23.5367  -26.7364  -39.8461 H         1 UNK         0.0839 
     99 H99        22.0467  -26.9345  -38.9327 H         1 UNK         0.0839 
    100 H100       25.0303  -29.4306  -39.7758 H         1 UNK         0.2998 
    101 H101       25.0914  -30.0492  -36.9868 H         1 UNK         0.0822 
    102 H102       27.1323  -29.4964  -38.2930 H         1 UNK         0.0787 
    103 H103       27.2975  -31.0835  -37.5611 H         1 UNK         0.0787 
    104 H104       26.9291  -30.9482  -39.2751 H         1 UNK         0.0787 
    105 H105       24.0530  -31.9320  -39.7742 H         1 UNK         0.3055 
    106 H106       23.7940  -34.4163  -38.1186 H         1 UNK         0.1106 
    107 H107       23.7894  -34.0393  -41.1645 H         1 UNK         0.0828 
    108 H108       25.1100  -34.7114  -40.2099 H         1 UNK         0.0828 
    109 H109       23.5789  -35.5653  -40.3159 H         1 UNK         0.0828 
    110 H110       22.0903  -32.1932  -40.3727 H         1 UNK         0.2931 
    111 H111       19.5619  -33.4902  -40.1815 H         1 UNK         0.0412 
    112 H112       19.5004  -30.9012  -37.0260 H         1 UNK         0.3472 
    113 H113       20.9711  -31.0455  -37.9511 H         1 UNK         0.3472 
    114 H114       20.2972  -30.6976  -41.1360 H         1 UNK         0.0970 
    115 H115       18.6979  -31.3717  -41.3139 H         1 UNK         0.0970 
    116 H116       17.9465  -32.9157  -43.0053 H         1 UNK         0.0612 
    117 H117       18.8471  -33.4159  -44.4108 H         1 UNK         0.0612 
@<TRIPOS>BOND
     1    1    2 1    
     2    1   62 1    
     3    1   63 1    
     4    1   64 1    
     5    2    3 2    
     6    2    4 am   BACKBONE|DICT|INTERRES
     7    4    5 1    
     8    4   65 1    
     9    5    6 1    
    10    5   25 1    
    11    5   66 1    
    12    6    7 1    
    13    6   67 1    
    14    6   68 1    
    15    7    8 1    
    16    8    9 1    
    17    8   69 1    
    18    8   70 1    
    19    9   10 ar   
    20    9   14 ar   
    21   10   11 ar   
    22   10   71 1    
    23   11   12 ar   
    24   11   61 1    
    25   12   13 ar   
    26   12   72 1    
    27   13   14 ar   
    28   13   15 1    
    29   14   73 1    
    30   15   16 1    
    31   15   74 1    
    32   15   75 1    
    33   16   17 1    
    34   17   18 1    
    35   17   76 1    
    36   17   77 1    
    37   18   19 1    
    38   18   27 1    
    39   18   78 1    
    40   19   20 am   BACKBONE|DICT|INTERRES
    41   19   79 1    
    42   20   21 2    
    43   20   22 1    
    44   22   23 1    
    45   22   24 1    
    46   22   80 1    
    47   23   81 1    
    48   23   82 1    
    49   23   83 1    
    50   24   25 am   BACKBONE|DICT|INTERRES
    51   24   84 1    
    52   25   26 2    
    53   27   28 2    
    54   27   29 am   BACKBONE|DICT|INTERRES
    55   29   30 1    
    56   29   85 1    
    57   30   31 1    
    58   30   32 1    
    59   30   86 1    
    60   31   87 1    
    61   31   88 1    
    62   31   89 1    
    63   32   33 2    
    64   32   34 am   BACKBONE|DICT|INTERRES
    65   34   35 1    
    66   34   90 1    
    67   35   36 1    
    68   35   37 1    
    69   35   91 1    
    70   36   92 1    
    71   36   93 1    
    72   36   94 1    
    73   37   38 2    
    74   37   39 am   BACKBONE|DICT|INTERRES
    75   39   40 1    
    76   39   95 1    
    77   40   41 1    
    78   40   42 1    
    79   40   96 1    
    80   41   97 1    
    81   41   98 1    
    82   41   99 1    
    83   42   43 2    
    84   42   44 am   BACKBONE|DICT|INTERRES
    85   44   45 1    
    86   44  100 1    
    87   45   46 1    
    88   45   47 1    
    89   45  101 1    
    90   46  102 1    
    91   46  103 1    
    92   46  104 1    
    93   47   48 2    
    94   47   49 am   BACKBONE|DICT|INTERRES
    95   49   50 1    
    96   49  105 1    
    97   50   51 1    
    98   50   52 1    
    99   50  106 1    
   100   51  107 1    
   101   51  108 1    
   102   51  109 1    
   103   52   53 2    
   104   52   54 am   BACKBONE|DICT|INTERRES
   105   54   55 1    
   106   54  110 1    
   107   55   56 1    
   108   55   59 1    
   109   55  111 1    
   110   56   57 am   BACKBONE|DICT|INTERRES
   111   56   58 2    
   112   57  112 1    
   113   57  113 1    
   114   59   60 1    
   115   59  114 1    
   116   59  115 1    
   117   60   61 1    
   118   61  116 1    
   119   61  117 1    
@<TRIPOS>SUBSTRUCTURE
     1 UNK         1 GROUP             0       ****    0 ROOT    
