@<TRIPOS>MOLECULE
3R8
117   119    1
SMALL
USER_CHARGES


@<TRIPOS>ATOM
      1 CA         15.5283  -24.5098  -41.0070 C.3       0 UNK        -0.2013 
      2 C          16.1108  -24.3740  -42.4059 C.2       0 UNK         0.4866 
      3 O          16.1769  -23.2648  -42.9374 O.2       0 UNK        -0.5176 
      4 N          16.5238  -25.4951  -43.0092 N.am      1 UNK        -0.4884 
      5 CA         17.1571  -25.5573  -44.3324 C.3       1 UNK         0.0853 
      6 C6         17.2118  -27.0057  -44.8834 C.3       10 UNK        -0.0849 
      7 S7         15.6340  -27.9222  -44.7385 S.3       10 UNK        -0.2776 
      8 C8         16.0142  -29.5120  -45.5536 C.3       10 UNK         0.0316 
      9 C9         17.3462  -30.0929  -45.0990 C.ar      10 UNK        -0.0863 
     10 C10        17.4601  -30.7581  -43.8746 C.ar      10 UNK        -0.1009 
     11 C11        18.7017  -31.2383  -43.4432 C.ar      10 UNK        -0.0712 
     12 C12        19.8323  -31.0333  -44.2420 C.ar      10 UNK        -0.0894 
     13 C13        19.7304  -30.3807  -45.4743 C.ar      10 UNK        -0.0745 
     14 C14        18.4769  -29.9334  -45.9029 C.ar      10 UNK        -0.0972 
     15 C15        20.9694  -30.1934  -46.3455 C.3       10 UNK         0.0209 
     16 S16        21.0327  -28.5555  -47.1527 S.3       10 UNK        -0.2568 
     17 C17        22.6299  -27.8826  -46.5799 C.3       10 UNK        -0.0983 
     18 CA         22.5206  -26.9079  -45.3792 C.3       3 UNK         0.0876 
     19 N          21.4972  -25.8812  -45.5944 N.am      3 UNK        -0.4424 
     20 C          21.5682  -24.6226  -45.1458 C.2       2 UNK         0.4918 
     21 O          22.5116  -24.1805  -44.4900 O.2       2 UNK        -0.4875 
     22 CA         20.3676  -23.7090  -45.4620 C.3       2 UNK         0.0481 
     23 CB         20.5308  -23.0727  -46.8515 C.3       2 UNK        -0.1831 
     24 N          19.0573  -24.3712  -45.3744 N.am      2 UNK        -0.4498 
     25 C          18.5825  -24.9658  -44.2701 C.2       1 UNK         0.5027 
     26 O          19.2462  -25.0983  -43.2392 O.2       1 UNK        -0.4969 
     27 C          22.3658  -27.6575  -44.0390 C.2       3 UNK         0.5005 
     28 O          23.2938  -28.3778  -43.6638 O.2       3 UNK        -0.5279 
     29 N          21.2500  -27.4681  -43.3118 N.am      4 UNK        -0.4463 
     30 CA         20.9810  -28.1412  -42.0313 C.3       4 UNK         0.0283 
     31 CB         19.5147  -27.9510  -41.6134 C.3       4 UNK        -0.1875 
     32 C          21.9299  -27.7202  -40.8941 C.2       4 UNK         0.4949 
     33 O          22.0593  -28.4464  -39.9098 O.2       4 UNK        -0.5039 
     34 N          22.5947  -26.5679  -41.0537 N.am      5 UNK        -0.4663 
     35 CA         23.6663  -26.0973  -40.1756 C.3       5 UNK         0.0242 
     36 CB         23.9038  -24.6019  -40.4423 C.3       5 UNK        -0.1982 
     37 C          24.9790  -26.8883  -40.3418 C.2       5 UNK         0.5017 
     38 O          25.7983  -26.8732  -39.4225 O.2       5 UNK        -0.5012 
     39 N          25.1653  -27.5427  -41.4976 N.am      6 UNK        -0.4439 
     40 CA         26.3438  -28.3444  -41.8260 C.3       6 UNK         0.0297 
     41 CB         26.8202  -28.0013  -43.2485 C.3       6 UNK        -0.2006 
     42 C          26.0303  -29.8402  -41.6949 C.2       6 UNK         0.4892 
     43 O          26.7299  -30.5439  -40.9655 O.2       6 UNK        -0.5089 
     44 N          24.9822  -30.2961  -42.3913 N.am      7 UNK        -0.4243 
     45 CA         24.4890  -31.6688  -42.3560 C.3       7 UNK         0.0196 
     46 CB         24.0822  -32.0873  -43.7805 C.3       7 UNK        -0.2007 
     47 C          23.3042  -31.7100  -41.3876 C.2       7 UNK         0.5020 
     48 O          22.1847  -31.4137  -41.7920 O.2       7 UNK        -0.5147 
     49 N          23.5729  -32.0318  -40.1169 N.am      8 UNK        -0.4734 
     50 CA         22.6111  -31.9357  -39.0100 C.3       8 UNK         0.0238 
     51 CB         23.3590  -32.1602  -37.6848 C.3       8 UNK        -0.1912 
     52 C          21.3807  -32.8621  -39.0961 C.2       8 UNK         0.5038 
     53 O          20.4097  -32.6157  -38.3793 O.2       8 UNK        -0.5046 
     54 N          21.4446  -33.9091  -39.9317 N.am      9 UNK        -0.4200 
     55 CA         20.4122  -34.9500  -40.1032 C.3       9 UNK         0.0839 
     56 C          20.2062  -35.8619  -38.8526 C.2       9 UNK         0.5513 
     57 N          21.1469  -35.9231  -37.9172 N.am      9 UNK        -0.7519 
     58 O          19.1970  -36.5534  -38.7389 O.2       9 UNK        -0.4960 
     59 C59        19.0697  -34.4039  -40.6785 C.3       10 UNK        -0.0876 
     60 S60        19.2368  -33.7277  -42.3654 S.3       10 UNK        -0.2414 
     61 C61        18.8256  -31.9716  -42.1135 C.3       10 UNK         0.0169 
     62 H62        14.5040  -24.1383  -40.9890 H         1 UNK         0.0903 
     63 H63        15.5193  -25.5456  -40.6678 H         1 UNK         0.0903 
     64 H64        16.1156  -23.9264  -40.2985 H         1 UNK         0.0903 
     65 H65        16.4408  -26.3804  -42.5307 H         1 UNK         0.3096 
     66 H66        16.5592  -24.9485  -45.0145 H         1 UNK         0.1121 
     67 H67        17.9765  -27.5757  -44.3550 H         1 UNK         0.0849 
     68 H68        17.5108  -26.9986  -45.9334 H         1 UNK         0.0849 
     69 H69        15.2124  -30.2213  -45.3431 H         1 UNK         0.0865 
     70 H70        16.0107  -29.3650  -46.6348 H         1 UNK         0.0865 
     71 H71        16.5837  -30.8896  -43.2547 H         1 UNK         0.1346 
     72 H72        20.7916  -31.3993  -43.9042 H         1 UNK         0.1412 
     73 H73        18.3831  -29.4328  -46.8567 H         1 UNK         0.1426 
     74 H74        20.9741  -30.9643  -47.1169 H         1 UNK         0.0716 
     75 H75        21.8701  -30.3476  -45.7513 H         1 UNK         0.0716 
     76 H76        23.0597  -27.3431  -47.4252 H         1 UNK         0.0695 
     77 H77        23.3344  -28.6918  -46.3777 H         1 UNK         0.0695 
     78 H78        23.4882  -26.4055  -45.3069 H         1 UNK         0.0983 
     79 H79        20.6941  -26.1680  -46.1356 H         1 UNK         0.3095 
     80 H80        20.3710  -22.9050  -44.7231 H         1 UNK         0.0454 
     81 H81        20.4932  -23.8183  -47.6466 H         1 UNK         0.0851 
     82 H82        21.4887  -22.5570  -46.9346 H         1 UNK         0.0851 
     83 H83        19.7524  -22.3346  -47.0452 H         1 UNK         0.0851 
     84 H84        18.4664  -24.3112  -46.1918 H         1 UNK         0.2976 
     85 H85        20.5607  -26.7967  -43.6261 H         1 UNK         0.3116 
     86 H86        21.1307  -29.2066  -42.1975 H         1 UNK         0.0646 
     87 H87        18.8322  -28.3220  -42.3761 H         1 UNK         0.0847 
     88 H88        19.2780  -26.9065  -41.4131 H         1 UNK         0.0847 
     89 H89        19.3004  -28.5093  -40.7011 H         1 UNK         0.0847 
     90 H90        22.3999  -26.0159  -41.8771 H         1 UNK         0.3040 
     91 H91        23.3420  -26.2165  -39.1392 H         1 UNK         0.1015 
     92 H92        24.6832  -24.2073  -39.7887 H         1 UNK         0.0786 
     93 H93        23.0020  -24.0177  -40.2573 H         1 UNK         0.0786 
     94 H94        24.2171  -24.4193  -41.4712 H         1 UNK         0.0786 
     95 H95        24.4079  -27.5617  -42.1719 H         1 UNK         0.3172 
     96 H96        27.1622  -28.1138  -41.1406 H         1 UNK         0.0595 
     97 H97        26.0499  -28.1872  -43.9979 H         1 UNK         0.0839 
     98 H98        27.6914  -28.5983  -43.5218 H         1 UNK         0.0839 
     99 H99        27.1106  -26.9533  -43.3239 H         1 UNK         0.0839 
    100 H100       24.4109  -29.6349  -42.9150 H         1 UNK         0.2998 
    101 H101       25.2628  -32.3561  -42.0070 H         1 UNK         0.0822 
    102 H102       24.9438  -32.1023  -44.4480 H         1 UNK         0.0787 
    103 H103       23.6467  -33.0873  -43.7852 H         1 UNK         0.0787 
    104 H104       23.3447  -31.4064  -44.2058 H         1 UNK         0.0787 
    105 H105       24.5292  -32.2440  -39.8677 H         1 UNK         0.3055 
    106 H106       22.2215  -30.9157  -39.0091 H         1 UNK         0.1106 
    107 H107       23.8081  -33.1529  -37.6371 H         1 UNK         0.0828 
    108 H108       22.6846  -32.0663  -36.8323 H         1 UNK         0.0828 
    109 H109       24.1515  -31.4243  -37.5469 H         1 UNK         0.0828 
    110 H110       22.2823  -34.0232  -40.4821 H         1 UNK         0.2931 
    111 H111       20.8217  -35.6279  -40.8529 H         1 UNK         0.0412 
    112 H112       21.9890  -35.3772  -38.0010 H         1 UNK         0.3472 
    113 H113       21.0107  -36.5236  -37.1189 H         1 UNK         0.3472 
    114 H114       18.3298  -35.2031  -40.7469 H         1 UNK         0.0970 
    115 H115       18.6337  -33.6596  -40.0112 H         1 UNK         0.0970 
    116 H116       19.5925  -31.4979  -41.5002 H         1 UNK         0.0612 
    117 H117       17.8929  -31.9001  -41.5521 H         1 UNK         0.0612 
@<TRIPOS>BOND
     1    1    2 1    
     2    1   62 1    
     3    1   63 1    
     4    1   64 1    
     5    2    3 2    
     6    2    4 am   BACKBONE|DICT|INTERRES
     7    4    5 1    
     8    4   65 1    
     9    5    6 1    
    10    5   25 1    
    11    5   66 1    
    12    6    7 1    
    13    6   67 1    
    14    6   68 1    
    15    7    8 1    
    16    8    9 1    
    17    8   69 1    
    18    8   70 1    
    19    9   10 ar   
    20    9   14 ar   
    21   10   11 ar   
    22   10   71 1    
    23   11   12 ar   
    24   11   61 1    
    25   12   13 ar   
    26   12   72 1    
    27   13   14 ar   
    28   13   15 1    
    29   14   73 1    
    30   15   16 1    
    31   15   74 1    
    32   15   75 1    
    33   16   17 1    
    34   17   18 1    
    35   17   76 1    
    36   17   77 1    
    37   18   19 1    
    38   18   27 1    
    39   18   78 1    
    40   19   20 am   BACKBONE|DICT|INTERRES
    41   19   79 1    
    42   20   21 2    
    43   20   22 1    
    44   22   23 1    
    45   22   24 1    
    46   22   80 1    
    47   23   81 1    
    48   23   82 1    
    49   23   83 1    
    50   24   25 am   BACKBONE|DICT|INTERRES
    51   24   84 1    
    52   25   26 2    
    53   27   28 2    
    54   27   29 am   BACKBONE|DICT|INTERRES
    55   29   30 1    
    56   29   85 1    
    57   30   31 1    
    58   30   32 1    
    59   30   86 1    
    60   31   87 1    
    61   31   88 1    
    62   31   89 1    
    63   32   33 2    
    64   32   34 am   BACKBONE|DICT|INTERRES
    65   34   35 1    
    66   34   90 1    
    67   35   36 1    
    68   35   37 1    
    69   35   91 1    
    70   36   92 1    
    71   36   93 1    
    72   36   94 1    
    73   37   38 2    
    74   37   39 am   BACKBONE|DICT|INTERRES
    75   39   40 1    
    76   39   95 1    
    77   40   41 1    
    78   40   42 1    
    79   40   96 1    
    80   41   97 1    
    81   41   98 1    
    82   41   99 1    
    83   42   43 2    
    84   42   44 am   BACKBONE|DICT|INTERRES
    85   44   45 1    
    86   44  100 1    
    87   45   46 1    
    88   45   47 1    
    89   45  101 1    
    90   46  102 1    
    91   46  103 1    
    92   46  104 1    
    93   47   48 2    
    94   47   49 am   BACKBONE|DICT|INTERRES
    95   49   50 1    
    96   49  105 1    
    97   50   51 1    
    98   50   52 1    
    99   50  106 1    
   100   51  107 1    
   101   51  108 1    
   102   51  109 1    
   103   52   53 2    
   104   52   54 am   BACKBONE|DICT|INTERRES
   105   54   55 1    
   106   54  110 1    
   107   55   56 1    
   108   55   59 1    
   109   55  111 1    
   110   56   57 am   BACKBONE|DICT|INTERRES
   111   56   58 2    
   112   57  112 1    
   113   57  113 1    
   114   59   60 1    
   115   59  114 1    
   116   59  115 1    
   117   60   61 1    
   118   61  116 1    
   119   61  117 1    
@<TRIPOS>SUBSTRUCTURE
     1 UNK         1 GROUP             0       ****    0 ROOT    
