@<TRIPOS>MOLECULE
3R8
117   119    1
SMALL
USER_CHARGES


@<TRIPOS>ATOM
      1 CA         17.6271  -25.7321  -41.2723 C.3       0 UNK        -0.2013 
      2 C          17.7159  -25.7575  -42.7902 C.2       0 UNK         0.4866 
      3 O          18.7808  -26.0512  -43.3311 O.2       0 UNK        -0.5176 
      4 N          16.6140  -25.4217  -43.4796 N.am      1 UNK        -0.4884 
      5 CA         16.4093  -25.5113  -44.9399 C.3       1 UNK         0.0853 
      6 C6         16.4680  -26.9774  -45.4596 C.3       10 UNK        -0.0849 
      7 S7         15.2658  -28.0942  -44.6647 S.3       10 UNK        -0.2776 
      8 C8         15.8094  -29.7085  -45.3202 C.3       10 UNK         0.0316 
      9 C9         17.1202  -30.1700  -44.6952 C.ar      10 UNK        -0.0863 
     10 C10        17.1223  -30.7278  -43.4144 C.ar      10 UNK        -0.1009 
     11 C11        18.3178  -31.1471  -42.8267 C.ar      10 UNK        -0.0712 
     12 C12        19.5213  -30.9830  -43.5183 C.ar      10 UNK        -0.0894 
     13 C13        19.5405  -30.4300  -44.8032 C.ar      10 UNK        -0.0745 
     14 C14        18.3265  -30.0488  -45.3941 C.ar      10 UNK        -0.0972 
     15 C15        20.8924  -30.2667  -45.5075 C.3       10 UNK         0.0209 
     16 S16        20.9737  -28.9758  -46.8058 S.3       10 UNK        -0.2568 
     17 C17        20.3492  -27.5117  -45.9147 C.3       10 UNK        -0.0983 
     18 CA         21.2952  -26.2858  -45.8552 C.3       3 UNK         0.0876 
     19 N          20.4953  -25.1195  -45.4963 N.am      3 UNK        -0.4424 
     20 C          20.3743  -23.9795  -46.1832 C.2       2 UNK         0.4918 
     21 O          21.0391  -23.7048  -47.1837 O.2       2 UNK        -0.4875 
     22 CA         19.2870  -23.0044  -45.6710 C.3       2 UNK         0.0481 
     23 CB         18.8706  -21.9558  -46.7238 C.3       2 UNK        -0.1831 
     24 N          18.1157  -23.7161  -45.1313 N.am      2 UNK        -0.4498 
     25 C          17.3385  -24.5990  -45.7831 C.2       1 UNK         0.5027 
     26 O          17.3587  -24.7382  -47.0074 O.2       1 UNK        -0.4969 
     27 C          22.4244  -26.4646  -44.8205 C.2       3 UNK         0.5005 
     28 O          22.5703  -25.6552  -43.8980 O.2       3 UNK        -0.5279 
     29 N          23.2014  -27.5437  -44.9739 N.am      4 UNK        -0.4463 
     30 CA         24.2335  -28.0010  -44.0414 C.3       4 UNK         0.0283 
     31 CB         25.1751  -28.9729  -44.7770 C.3       4 UNK        -0.1875 
     32 C          23.6145  -28.6301  -42.7770 C.2       4 UNK         0.4949 
     33 O          23.8070  -29.8222  -42.5218 O.2       4 UNK        -0.5039 
     34 N          22.8811  -27.8120  -42.0098 N.am      5 UNK        -0.4663 
     35 CA         22.1956  -28.1407  -40.7543 C.3       5 UNK         0.0242 
     36 CB         21.1735  -27.0325  -40.4452 C.3       5 UNK        -0.1982 
     37 C          23.1842  -28.3835  -39.5936 C.2       5 UNK         0.5017 
     38 O          23.1753  -27.6597  -38.5960 O.2       5 UNK        -0.5012 
     39 N          24.0434  -29.3844  -39.7856 N.am      6 UNK        -0.4439 
     40 CA         25.1262  -29.8359  -38.9179 C.3       6 UNK         0.0297 
     41 CB         26.2514  -28.7861  -38.8388 C.3       6 UNK        -0.2006 
     42 C          25.6747  -31.1786  -39.4234 C.2       6 UNK         0.4892 
     43 O          26.0286  -32.0251  -38.6025 O.2       6 UNK        -0.5089 
     44 N          25.7198  -31.3668  -40.7547 N.am      7 UNK        -0.4243 
     45 CA         26.0416  -32.6455  -41.3999 C.3       7 UNK         0.0196 
     46 CB         26.3274  -32.4107  -42.8924 C.3       7 UNK        -0.2007 
     47 C          24.9035  -33.6631  -41.2127 C.2       7 UNK         0.5020 
     48 O          25.1591  -34.8305  -40.9175 O.2       7 UNK        -0.5147 
     49 N          23.6685  -33.1702  -41.3317 N.am      8 UNK        -0.4734 
     50 CA         22.4414  -33.7849  -40.8427 C.3       8 UNK         0.0238 
     51 CB         21.6280  -34.3311  -42.0276 C.3       8 UNK        -0.1912 
     52 C          21.6809  -32.6718  -40.1121 C.2       8 UNK         0.5038 
     53 O          21.8313  -31.5116  -40.4983 O.2       8 UNK        -0.5046 
     54 N          20.8944  -33.0375  -39.0912 N.am      9 UNK        -0.4200 
     55 CA         20.1654  -32.1353  -38.1787 C.3       9 UNK         0.0839 
     56 C          21.0404  -31.0002  -37.5592 C.2       9 UNK         0.5513 
     57 N          20.5259  -29.7884  -37.3982 N.am      9 UNK        -0.7519 
     58 O          22.1766  -31.2401  -37.1569 O.2       9 UNK        -0.4960 
     59 C59        18.7511  -31.7241  -38.6959 C.3       10 UNK        -0.0876 
     60 S60        18.7069  -30.6071  -40.1420 S.3       10 UNK        -0.2414 
     61 C61        18.3084  -31.7985  -41.4544 C.3       10 UNK         0.0169 
     62 H62        18.3828  -25.0625  -40.8627 H         1 UNK         0.0903 
     63 H63        16.6500  -25.3973  -40.9247 H         1 UNK         0.0903 
     64 H64        17.8055  -26.7309  -40.8742 H         1 UNK         0.0903 
     65 H65        15.7864  -25.1599  -42.9608 H         1 UNK         0.3096 
     66 H66        15.4012  -25.1374  -45.1262 H         1 UNK         0.1121 
     67 H67        17.4659  -27.3830  -45.3006 H         1 UNK         0.0849 
     68 H68        16.2854  -27.0218  -46.5350 H         1 UNK         0.0849 
     69 H69        15.0338  -30.4488  -45.1187 H         1 UNK         0.0865 
     70 H70        15.8962  -29.6518  -46.4065 H         1 UNK         0.0865 
     71 H71        16.1908  -30.8354  -42.8754 H         1 UNK         0.1346 
     72 H72        20.4473  -31.2862  -43.0476 H         1 UNK         0.1412 
     73 H73        18.3169  -29.6316  -46.3909 H         1 UNK         0.1426 
     74 H74        21.1646  -31.2228  -45.9561 H         1 UNK         0.0716 
     75 H75        21.6615  -30.0475  -44.7653 H         1 UNK         0.0716 
     76 H76        20.0280  -27.7863  -44.9085 H         1 UNK         0.0695 
     77 H77        19.4392  -27.2293  -46.4459 H         1 UNK         0.0695 
     78 H78        21.7566  -26.1352  -46.8334 H         1 UNK         0.0983 
     79 H79        19.9319  -25.2483  -44.6593 H         1 UNK         0.3095 
     80 H80        19.7311  -22.4691  -44.8307 H         1 UNK         0.0454 
     81 H81        18.1021  -21.2874  -46.3362 H         1 UNK         0.0851 
     82 H82        18.4854  -22.4201  -47.6319 H         1 UNK         0.0851 
     83 H83        19.7205  -21.3371  -47.0139 H         1 UNK         0.0851 
     84 H84        18.0116  -23.6850  -44.1265 H         1 UNK         0.2976 
     85 H85        22.9771  -28.1708  -45.7357 H         1 UNK         0.3116 
     86 H86        24.8247  -27.1398  -43.7230 H         1 UNK         0.0646 
     87 H87        24.6473  -29.8605  -45.1287 H         1 UNK         0.0847 
     88 H88        25.9779  -29.3109  -44.1203 H         1 UNK         0.0847 
     89 H89        25.6438  -28.4973  -45.6385 H         1 UNK         0.0847 
     90 H90        22.7691  -26.8594  -42.3456 H         1 UNK         0.3040 
     91 H91        21.6323  -29.0617  -40.9086 H         1 UNK         0.1015 
     92 H92        21.6563  -26.0668  -40.2912 H         1 UNK         0.0786 
     93 H93        20.6062  -27.2668  -39.5434 H         1 UNK         0.0786 
     94 H94        20.4561  -26.9240  -41.2586 H         1 UNK         0.0786 
     95 H95        23.9016  -29.9111  -40.6434 H         1 UNK         0.3172 
     96 H96        24.7141  -29.9955  -37.9194 H         1 UNK         0.0595 
     97 H97        26.6502  -28.5475  -39.8254 H         1 UNK         0.0839 
     98 H98        27.0802  -29.1490  -38.2294 H         1 UNK         0.0839 
     99 H99        25.9038  -27.8582  -38.3850 H         1 UNK         0.0839 
    100 H100       25.4249  -30.6217  -41.3732 H         1 UNK         0.2998 
    101 H101       26.9417  -33.0533  -40.9346 H         1 UNK         0.0822 
    102 H102       27.1656  -31.7280  -43.0329 H         1 UNK         0.0787 
    103 H103       26.5844  -33.3463  -43.3910 H         1 UNK         0.0787 
    104 H104       25.4635  -31.9916  -43.4104 H         1 UNK         0.0787 
    105 H105       23.5604  -32.1850  -41.5469 H         1 UNK         0.3055 
    106 H106       22.6700  -34.5890  -40.1392 H         1 UNK         0.1106 
    107 H107       20.6940  -34.7801  -41.6879 H         1 UNK         0.0828 
    108 H108       21.3742  -33.5456  -42.7402 H         1 UNK         0.0828 
    109 H109       22.1827  -35.1009  -42.5642 H         1 UNK         0.0828 
    110 H110       20.8515  -34.0160  -38.8471 H         1 UNK         0.2931 
    111 H111       19.9661  -32.7721  -37.3158 H         1 UNK         0.0412 
    112 H112       19.6048  -29.5732  -37.7460 H         1 UNK         0.3472 
    113 H113       21.0949  -29.0655  -36.9863 H         1 UNK         0.3472 
    114 H114       18.1898  -31.2468  -37.8911 H         1 UNK         0.0970 
    115 H115       18.1813  -32.6251  -38.9273 H         1 UNK         0.0970 
    116 H116       17.3318  -32.2414  -41.2527 H         1 UNK         0.0612 
    117 H117       19.0270  -32.6181  -41.4355 H         1 UNK         0.0612 
@<TRIPOS>BOND
     1    1    2 1    
     2    1   62 1    
     3    1   63 1    
     4    1   64 1    
     5    2    3 2    
     6    2    4 am   BACKBONE|DICT|INTERRES
     7    4    5 1    
     8    4   65 1    
     9    5    6 1    
    10    5   25 1    
    11    5   66 1    
    12    6    7 1    
    13    6   67 1    
    14    6   68 1    
    15    7    8 1    
    16    8    9 1    
    17    8   69 1    
    18    8   70 1    
    19    9   10 ar   
    20    9   14 ar   
    21   10   11 ar   
    22   10   71 1    
    23   11   12 ar   
    24   11   61 1    
    25   12   13 ar   
    26   12   72 1    
    27   13   14 ar   
    28   13   15 1    
    29   14   73 1    
    30   15   16 1    
    31   15   74 1    
    32   15   75 1    
    33   16   17 1    
    34   17   18 1    
    35   17   76 1    
    36   17   77 1    
    37   18   19 1    
    38   18   27 1    
    39   18   78 1    
    40   19   20 am   BACKBONE|DICT|INTERRES
    41   19   79 1    
    42   20   21 2    
    43   20   22 1    
    44   22   23 1    
    45   22   24 1    
    46   22   80 1    
    47   23   81 1    
    48   23   82 1    
    49   23   83 1    
    50   24   25 am   BACKBONE|DICT|INTERRES
    51   24   84 1    
    52   25   26 2    
    53   27   28 2    
    54   27   29 am   BACKBONE|DICT|INTERRES
    55   29   30 1    
    56   29   85 1    
    57   30   31 1    
    58   30   32 1    
    59   30   86 1    
    60   31   87 1    
    61   31   88 1    
    62   31   89 1    
    63   32   33 2    
    64   32   34 am   BACKBONE|DICT|INTERRES
    65   34   35 1    
    66   34   90 1    
    67   35   36 1    
    68   35   37 1    
    69   35   91 1    
    70   36   92 1    
    71   36   93 1    
    72   36   94 1    
    73   37   38 2    
    74   37   39 am   BACKBONE|DICT|INTERRES
    75   39   40 1    
    76   39   95 1    
    77   40   41 1    
    78   40   42 1    
    79   40   96 1    
    80   41   97 1    
    81   41   98 1    
    82   41   99 1    
    83   42   43 2    
    84   42   44 am   BACKBONE|DICT|INTERRES
    85   44   45 1    
    86   44  100 1    
    87   45   46 1    
    88   45   47 1    
    89   45  101 1    
    90   46  102 1    
    91   46  103 1    
    92   46  104 1    
    93   47   48 2    
    94   47   49 am   BACKBONE|DICT|INTERRES
    95   49   50 1    
    96   49  105 1    
    97   50   51 1    
    98   50   52 1    
    99   50  106 1    
   100   51  107 1    
   101   51  108 1    
   102   51  109 1    
   103   52   53 2    
   104   52   54 am   BACKBONE|DICT|INTERRES
   105   54   55 1    
   106   54  110 1    
   107   55   56 1    
   108   55   59 1    
   109   55  111 1    
   110   56   57 am   BACKBONE|DICT|INTERRES
   111   56   58 2    
   112   57  112 1    
   113   57  113 1    
   114   59   60 1    
   115   59  114 1    
   116   59  115 1    
   117   60   61 1    
   118   61  116 1    
   119   61  117 1    
@<TRIPOS>SUBSTRUCTURE
     1 UNK         1 GROUP             0       ****    0 ROOT    
