@<TRIPOS>MOLECULE
3R8
117   119    1
SMALL
USER_CHARGES


@<TRIPOS>ATOM
      1 CA         20.2659  -23.7735  -47.1243 C.3       0 UNK        -0.2013 
      2 C          20.5247  -25.1861  -46.6229 C.2       0 UNK         0.4866 
      3 O          21.6675  -25.5304  -46.3240 O.2       0 UNK        -0.5176 
      4 N          19.4704  -26.0058  -46.5196 N.am      1 UNK        -0.4884 
      5 CA         19.5313  -27.3968  -46.0479 C.3       1 UNK         0.0853 
      6 C6         18.3750  -28.2461  -46.6433 C.3       10 UNK        -0.0849 
      7 S7         16.7099  -27.7194  -46.0992 S.3       10 UNK        -0.2776 
      8 C8         15.8022  -29.3050  -46.0690 C.3       10 UNK         0.0316 
      9 C9         16.2763  -30.3054  -45.0127 C.ar      10 UNK        -0.0863 
     10 C10        16.3600  -31.6630  -45.3455 C.ar      10 UNK        -0.1009 
     11 C11        16.7220  -32.6129  -44.3855 C.ar      10 UNK        -0.0712 
     12 C12        16.9921  -32.1978  -43.0809 C.ar      10 UNK        -0.0894 
     13 C13        16.9597  -30.8446  -42.7386 C.ar      10 UNK        -0.0745 
     14 C14        16.5838  -29.9035  -43.7052 C.ar      10 UNK        -0.0972 
     15 C15        17.3450  -30.4112  -41.3289 C.3       10 UNK         0.0209 
     16 S16        18.9873  -31.0583  -40.8628 S.3       10 UNK        -0.2568 
     17 C17        19.4168  -30.0656  -39.3979 C.3       10 UNK        -0.0983 
     18 CA         20.3686  -28.9019  -39.7758 C.3       3 UNK         0.0876 
     19 N          19.6911  -27.9306  -40.6420 N.am      3 UNK        -0.4424 
     20 C          20.2582  -27.0762  -41.4997 C.2       2 UNK         0.4918 
     21 O          21.4750  -26.8854  -41.5865 O.2       2 UNK        -0.4875 
     22 CA         19.2838  -26.2461  -42.3493 C.3       2 UNK         0.0481 
     23 CB         19.3929  -24.7589  -41.9761 C.3       2 UNK        -0.1831 
     24 N          19.4577  -26.3903  -43.7965 N.am      2 UNK        -0.4498 
     25 C          19.5926  -27.5226  -44.5079 C.2       1 UNK         0.5027 
     26 O          19.7115  -28.6444  -44.0189 O.2       1 UNK        -0.4969 
     27 C          21.0340  -28.2365  -38.5482 C.2       3 UNK         0.5005 
     28 O          20.8820  -28.7011  -37.4174 O.2       3 UNK        -0.5279 
     29 N          21.7811  -27.1623  -38.8106 N.am      4 UNK        -0.4463 
     30 CA         22.6234  -26.4229  -37.8766 C.3       4 UNK         0.0283 
     31 CB         21.7993  -25.3820  -37.0986 C.3       4 UNK        -0.1875 
     32 C          23.7690  -25.7728  -38.6594 C.2       4 UNK         0.4949 
     33 O          24.9252  -25.9054  -38.2617 O.2       4 UNK        -0.5039 
     34 N          23.4317  -25.1300  -39.7888 N.am      5 UNK        -0.4663 
     35 CA         24.3933  -24.5902  -40.7525 C.3       5 UNK         0.0242 
     36 CB         23.6838  -23.5951  -41.6866 C.3       5 UNK        -0.1982 
     37 C          25.0763  -25.7070  -41.5582 C.2       5 UNK         0.5017 
     38 O          26.3041  -25.7266  -41.6483 O.2       5 UNK        -0.5012 
     39 N          24.2668  -26.6237  -42.1071 N.am      6 UNK        -0.4439 
     40 CA         24.7262  -27.8080  -42.8357 C.3       6 UNK         0.0297 
     41 CB         23.6797  -28.1752  -43.9013 C.3       6 UNK        -0.2006 
     42 C          24.9911  -29.0033  -41.9026 C.2       6 UNK         0.4892 
     43 O          25.7615  -29.8887  -42.2730 O.2       6 UNK        -0.5089 
     44 N          24.3420  -29.0102  -40.7253 N.am      7 UNK        -0.4243 
     45 CA         24.3929  -30.0284  -39.6597 C.3       7 UNK         0.0196 
     46 CB         25.8104  -30.1163  -39.0573 C.3       7 UNK        -0.2007 
     47 C          23.8422  -31.4177  -40.0575 C.2       7 UNK         0.5020 
     48 O          24.0011  -32.3763  -39.3013 O.2       7 UNK        -0.5147 
     49 N          23.1843  -31.4961  -41.2153 N.am      8 UNK        -0.4734 
     50 CA         22.5680  -32.6541  -41.8565 C.3       8 UNK         0.0238 
     51 CB         23.6470  -33.6610  -42.3068 C.3       8 UNK        -0.1912 
     52 C          21.7740  -32.1075  -43.0540 C.2       8 UNK         0.5038 
     53 O          21.8189  -30.8970  -43.2865 O.2       8 UNK        -0.5046 
     54 N          21.0742  -32.9866  -43.7851 N.am      9 UNK        -0.4200 
     55 CA         20.2620  -32.6499  -44.9677 C.3       9 UNK         0.0839 
     56 C          21.0805  -31.9276  -46.0754 C.2       9 UNK         0.5513 
     57 N          20.9996  -30.6079  -46.1532 N.am      9 UNK        -0.7519 
     58 O          21.7722  -32.5607  -46.8700 O.2       9 UNK        -0.4960 
     59 C59        19.5344  -33.8931  -45.5535 C.3       10 UNK        -0.0876 
     60 S60        18.4761  -34.7725  -44.3558 S.3       10 UNK        -0.2414 
     61 C61        16.8301  -34.0882  -44.7471 C.3       10 UNK         0.0169 
     62 H62        20.5770  -23.0462  -46.3749 H         1 UNK         0.0903 
     63 H63        20.8356  -23.5892  -48.0347 H         1 UNK         0.0903 
     64 H64        19.2118  -23.6046  -47.3443 H         1 UNK         0.0903 
     65 H65        18.5479  -25.6776  -46.7730 H         1 UNK         0.3096 
     66 H66        20.4662  -27.8259  -46.4148 H         1 UNK         0.1121 
     67 H67        18.5165  -29.2986  -46.3917 H         1 UNK         0.0849 
     68 H68        18.4083  -28.2030  -47.7330 H         1 UNK         0.0849 
     69 H69        14.7479  -29.0936  -45.8865 H         1 UNK         0.0865 
     70 H70        15.8545  -29.7461  -47.0657 H         1 UNK         0.0865 
     71 H71        16.1314  -31.9845  -46.3525 H         1 UNK         0.1346 
     72 H72        17.2750  -32.9303  -42.3372 H         1 UNK         0.1412 
     73 H73        16.5371  -28.8557  -43.4430 H         1 UNK         0.1426 
     74 H74        16.5988  -30.7728  -40.6204 H         1 UNK         0.0716 
     75 H75        17.3468  -29.3238  -41.2578 H         1 UNK         0.0716 
     76 H76        19.8969  -30.7459  -38.6918 H         1 UNK         0.0695 
     77 H77        18.5129  -29.6998  -38.9075 H         1 UNK         0.0695 
     78 H78        21.1900  -29.3327  -40.3532 H         1 UNK         0.0983 
     79 H79        18.6842  -27.9677  -40.6142 H         1 UNK         0.3095 
     80 H80        18.2660  -26.5733  -42.1282 H         1 UNK         0.0454 
     81 H81        19.2627  -24.6114  -40.9030 H         1 UNK         0.0851 
     82 H82        18.6270  -24.1655  -42.4757 H         1 UNK         0.0851 
     83 H83        20.3654  -24.3460  -42.2465 H         1 UNK         0.0851 
     84 H84        19.3893  -25.5390  -44.3335 H         1 UNK         0.2976 
     85 H85        21.8283  -26.8784  -39.7856 H         1 UNK         0.3116 
     86 H86        23.0642  -27.1258  -37.1660 H         1 UNK         0.0646 
     87 H87        22.4349  -24.8087  -36.4224 H         1 UNK         0.0847 
     88 H88        21.3050  -24.6733  -37.7638 H         1 UNK         0.0847 
     89 H89        21.0309  -25.8606  -36.4914 H         1 UNK         0.0847 
     90 H90        22.4558  -25.0226  -40.0225 H         1 UNK         0.3040 
     91 H91        25.1690  -24.0505  -40.2038 H         1 UNK         0.1015 
     92 H92        24.3864  -23.1658  -42.4022 H         1 UNK         0.0786 
     93 H93        23.2483  -22.7673  -41.1266 H         1 UNK         0.0786 
     94 H94        22.8860  -24.0694  -42.2595 H         1 UNK         0.0786 
     95 H95        23.2600  -26.5285  -41.9936 H         1 UNK         0.3172 
     96 H96        25.6614  -27.5770  -43.3502 H         1 UNK         0.0595 
     97 H97        22.7062  -28.3894  -43.4589 H         1 UNK         0.0839 
     98 H98        23.9811  -29.0621  -44.4604 H         1 UNK         0.0839 
     99 H99        23.5444  -27.3676  -44.6211 H         1 UNK         0.0839 
    100 H100       23.7449  -28.2186  -40.5429 H         1 UNK         0.2998 
    101 H101       23.7320  -29.6678  -38.8706 H         1 UNK         0.0822 
    102 H102       25.8228  -30.7550  -38.1733 H         1 UNK         0.0787 
    103 H103       26.5270  -30.5317  -39.7664 H         1 UNK         0.0787 
    104 H104       26.1713  -29.1344  -38.7502 H         1 UNK         0.0787 
    105 H105       23.0640  -30.6553  -41.7706 H         1 UNK         0.3055 
    106 H106       21.8729  -33.1229  -41.1570 H         1 UNK         0.1106 
    107 H107       24.2251  -34.0349  -41.4620 H         1 UNK         0.0828 
    108 H108       23.2033  -34.5294  -42.7943 H         1 UNK         0.0828 
    109 H109       24.3447  -33.2089  -43.0131 H         1 UNK         0.0828 
    110 H110       21.0863  -33.9618  -43.5279 H         1 UNK         0.2931 
    111 H111       19.4951  -31.9536  -44.6226 H         1 UNK         0.0412 
    112 H112       20.5505  -30.0983  -45.4006 H         1 UNK         0.3472 
    113 H113       21.5324  -30.1263  -46.8587 H         1 UNK         0.3472 
    114 H114       18.9266  -33.6040  -46.4131 H         1 UNK         0.0970 
    115 H115       20.2628  -34.6112  -45.9350 H         1 UNK         0.0970 
    116 H116       16.6131  -34.2530  -45.8036 H         1 UNK         0.0612 
    117 H117       16.0771  -34.6434  -44.1863 H         1 UNK         0.0612 
@<TRIPOS>BOND
     1    1    2 1    
     2    1   62 1    
     3    1   63 1    
     4    1   64 1    
     5    2    3 2    
     6    2    4 am   BACKBONE|DICT|INTERRES
     7    4    5 1    
     8    4   65 1    
     9    5    6 1    
    10    5   25 1    
    11    5   66 1    
    12    6    7 1    
    13    6   67 1    
    14    6   68 1    
    15    7    8 1    
    16    8    9 1    
    17    8   69 1    
    18    8   70 1    
    19    9   10 ar   
    20    9   14 ar   
    21   10   11 ar   
    22   10   71 1    
    23   11   12 ar   
    24   11   61 1    
    25   12   13 ar   
    26   12   72 1    
    27   13   14 ar   
    28   13   15 1    
    29   14   73 1    
    30   15   16 1    
    31   15   74 1    
    32   15   75 1    
    33   16   17 1    
    34   17   18 1    
    35   17   76 1    
    36   17   77 1    
    37   18   19 1    
    38   18   27 1    
    39   18   78 1    
    40   19   20 am   BACKBONE|DICT|INTERRES
    41   19   79 1    
    42   20   21 2    
    43   20   22 1    
    44   22   23 1    
    45   22   24 1    
    46   22   80 1    
    47   23   81 1    
    48   23   82 1    
    49   23   83 1    
    50   24   25 am   BACKBONE|DICT|INTERRES
    51   24   84 1    
    52   25   26 2    
    53   27   28 2    
    54   27   29 am   BACKBONE|DICT|INTERRES
    55   29   30 1    
    56   29   85 1    
    57   30   31 1    
    58   30   32 1    
    59   30   86 1    
    60   31   87 1    
    61   31   88 1    
    62   31   89 1    
    63   32   33 2    
    64   32   34 am   BACKBONE|DICT|INTERRES
    65   34   35 1    
    66   34   90 1    
    67   35   36 1    
    68   35   37 1    
    69   35   91 1    
    70   36   92 1    
    71   36   93 1    
    72   36   94 1    
    73   37   38 2    
    74   37   39 am   BACKBONE|DICT|INTERRES
    75   39   40 1    
    76   39   95 1    
    77   40   41 1    
    78   40   42 1    
    79   40   96 1    
    80   41   97 1    
    81   41   98 1    
    82   41   99 1    
    83   42   43 2    
    84   42   44 am   BACKBONE|DICT|INTERRES
    85   44   45 1    
    86   44  100 1    
    87   45   46 1    
    88   45   47 1    
    89   45  101 1    
    90   46  102 1    
    91   46  103 1    
    92   46  104 1    
    93   47   48 2    
    94   47   49 am   BACKBONE|DICT|INTERRES
    95   49   50 1    
    96   49  105 1    
    97   50   51 1    
    98   50   52 1    
    99   50  106 1    
   100   51  107 1    
   101   51  108 1    
   102   51  109 1    
   103   52   53 2    
   104   52   54 am   BACKBONE|DICT|INTERRES
   105   54   55 1    
   106   54  110 1    
   107   55   56 1    
   108   55   59 1    
   109   55  111 1    
   110   56   57 am   BACKBONE|DICT|INTERRES
   111   56   58 2    
   112   57  112 1    
   113   57  113 1    
   114   59   60 1    
   115   59  114 1    
   116   59  115 1    
   117   60   61 1    
   118   61  116 1    
   119   61  117 1    
@<TRIPOS>SUBSTRUCTURE
     1 UNK         1 GROUP             0       ****    0 ROOT    
