@<TRIPOS>MOLECULE
3R8
117   119    1
SMALL
USER_CHARGES


@<TRIPOS>ATOM
      1 CA         16.1351  -22.4738  -41.7463 C.3       0 UNK        -0.2013 
      2 C          16.0832  -23.1583  -43.1042 C.2       0 UNK         0.4866 
      3 O          15.0897  -23.0213  -43.8187 O.2       0 UNK        -0.5176 
      4 N          17.1460  -23.8861  -43.4612 N.am      1 UNK        -0.4884 
      5 CA         17.3100  -24.5830  -44.7382 C.3       1 UNK         0.0853 
      6 C6         17.3132  -26.1202  -44.5599 C.3       10 UNK        -0.0849 
      7 S7         15.6786  -26.8114  -44.1315 S.3       10 UNK        -0.2776 
      8 C8         16.0901  -27.9660  -42.7690 C.3       10 UNK         0.0316 
      9 C9         17.1755  -29.0065  -43.0698 C.ar      10 UNK        -0.0863 
     10 C10        17.7921  -29.6606  -41.9971 C.ar      10 UNK        -0.1009 
     11 C11        18.8242  -30.5788  -42.2154 C.ar      10 UNK        -0.0712 
     12 C12        19.2638  -30.8231  -43.5195 C.ar      10 UNK        -0.0894 
     13 C13        18.6518  -30.1888  -44.6032 C.ar      10 UNK        -0.0745 
     14 C14        17.5848  -29.3177  -44.3735 C.ar      10 UNK        -0.0972 
     15 C15        19.1608  -30.4153  -46.0218 C.3       10 UNK         0.0209 
     16 S16        19.7669  -28.8736  -46.7932 S.3       10 UNK        -0.2568 
     17 C17        20.9721  -28.3086  -45.5483 C.3       10 UNK        -0.0983 
     18 CA         21.8716  -27.1355  -46.0218 C.3       3 UNK         0.0876 
     19 N          21.1019  -25.9208  -46.2839 N.am      3 UNK        -0.4424 
     20 C          20.8116  -25.3993  -47.4783 C.2       2 UNK         0.4918 
     21 O          21.1456  -25.9101  -48.5487 O.2       2 UNK        -0.4875 
     22 CA         19.9865  -24.0942  -47.4618 C.3       2 UNK         0.0481 
     23 CB         19.6306  -23.5995  -48.8762 C.3       2 UNK        -0.1831 
     24 N          18.7505  -24.2639  -46.6907 N.am      2 UNK        -0.4498 
     25 C          18.6485  -24.1525  -45.3594 C.2       1 UNK         0.5027 
     26 O          19.5832  -23.8100  -44.6297 O.2       1 UNK        -0.4969 
     27 C          22.8833  -26.8022  -44.9140 C.2       3 UNK         0.5005 
     28 O          22.6980  -25.8220  -44.1848 O.2       3 UNK        -0.5279 
     29 N          23.8868  -27.6707  -44.7319 N.am      4 UNK        -0.4463 
     30 CA         24.8161  -27.6516  -43.5956 C.3       4 UNK         0.0283 
     31 CB         26.1036  -28.4031  -43.9833 C.3       4 UNK        -0.1875 
     32 C          24.1629  -28.2227  -42.3182 C.2       4 UNK         0.4949 
     33 O          24.7007  -29.1427  -41.7025 O.2       4 UNK        -0.5039 
     34 N          22.9847  -27.7024  -41.9603 N.am      5 UNK        -0.4663 
     35 CA         22.2195  -28.0992  -40.7809 C.3       5 UNK         0.0242 
     36 CB         20.7810  -27.5761  -40.9297 C.3       5 UNK        -0.1982 
     37 C          22.8761  -27.5551  -39.4933 C.2       5 UNK         0.5017 
     38 O          23.4483  -26.4654  -39.5328 O.2       5 UNK        -0.5012 
     39 N          22.7919  -28.2508  -38.3504 N.am      6 UNK        -0.4439 
     40 CA         22.1572  -29.5552  -38.1333 C.3       6 UNK         0.0297 
     41 CB         21.7339  -29.6556  -36.6587 C.3       6 UNK        -0.2006 
     42 C          23.0518  -30.7524  -38.5074 C.2       6 UNK         0.4892 
     43 O          22.5465  -31.8733  -38.5236 O.2       6 UNK        -0.5089 
     44 N          24.3404  -30.5157  -38.8020 N.am      7 UNK        -0.4243 
     45 CA         25.3513  -31.5410  -39.1022 C.3       7 UNK         0.0196 
     46 CB         26.7104  -30.8692  -39.3548 C.3       7 UNK        -0.2007 
     47 C          24.9817  -32.4767  -40.2672 C.2       7 UNK         0.5020 
     48 O          25.2408  -33.6773  -40.1834 O.2       7 UNK        -0.5147 
     49 N          24.3232  -31.9287  -41.2973 N.am      8 UNK        -0.4734 
     50 CA         23.7474  -32.6593  -42.4337 C.3       8 UNK         0.0238 
     51 CB         23.1663  -31.6462  -43.4357 C.3       8 UNK        -0.1912 
     52 C          22.6821  -33.7096  -42.0541 C.2       8 UNK         0.5038 
     53 O          22.4452  -34.6258  -42.8424 O.2       8 UNK        -0.5046 
     54 N          22.0739  -33.5658  -40.8705 N.am      9 UNK        -0.4200 
     55 CA         21.1188  -34.5082  -40.2727 C.3       9 UNK         0.0839 
     56 C          21.7800  -35.4617  -39.2339 C.2       9 UNK         0.5513 
     57 N          23.0916  -35.4316  -39.0235 N.am      9 UNK        -0.7519 
     58 O          21.0897  -36.2697  -38.6177 O.2       9 UNK        -0.4960 
     59 C59        19.8957  -33.7580  -39.6773 C.3       10 UNK        -0.0876 
     60 S60        18.8463  -33.0244  -40.9747 S.3       10 UNK        -0.2414 
     61 C61        19.4647  -31.3156  -41.0500 C.3       10 UNK         0.0169 
     62 H62        15.3092  -22.8155  -41.1229 H         1 UNK         0.0903 
     63 H63        17.0658  -22.6825  -41.2190 H         1 UNK         0.0903 
     64 H64        16.0479  -21.3943  -41.8663 H         1 UNK         0.0903 
     65 H65        17.9685  -23.8993  -42.8724 H         1 UNK         0.3096 
     66 H66        16.5156  -24.3011  -45.4332 H         1 UNK         0.1121 
     67 H67        17.6277  -26.6103  -45.4837 H         1 UNK         0.0849 
     68 H68        18.0462  -26.4103  -43.8041 H         1 UNK         0.0849 
     69 H69        16.3940  -27.3697  -41.9071 H         1 UNK         0.0865 
     70 H70        15.1799  -28.4898  -42.4746 H         1 UNK         0.0865 
     71 H71        17.4685  -29.4531  -40.9861 H         1 UNK         0.1346 
     72 H72        20.0744  -31.5183  -43.6877 H         1 UNK         0.1412 
     73 H73        17.1105  -28.8533  -45.2253 H         1 UNK         0.1426 
     74 H74        18.3547  -30.8254  -46.6316 H         1 UNK         0.0716 
     75 H75        19.9638  -31.1539  -46.0331 H         1 UNK         0.0716 
     76 H76        21.5791  -29.1724  -45.2697 H         1 UNK         0.0695 
     77 H77        20.4211  -28.0215  -44.6499 H         1 UNK         0.0695 
     78 H78        22.4284  -27.4306  -46.9141 H         1 UNK         0.0983 
     79 H79        20.8723  -25.3825  -45.4551 H         1 UNK         0.3095 
     80 H80        20.6039  -23.3265  -46.9906 H         1 UNK         0.0454 
     81 H81        20.5308  -23.4211  -49.4658 H         1 UNK         0.0851 
     82 H82        19.0789  -22.6600  -48.8409 H         1 UNK         0.0851 
     83 H83        19.0239  -24.3253  -49.4190 H         1 UNK         0.0851 
     84 H84        17.9499  -24.5940  -47.2117 H         1 UNK         0.2976 
     85 H85        23.9576  -28.4663  -45.3506 H         1 UNK         0.3116 
     86 H86        25.0900  -26.6167  -43.3793 H         1 UNK         0.0646 
     87 H87        25.9112  -29.4543  -44.2004 H         1 UNK         0.0847 
     88 H88        26.8340  -28.3680  -43.1738 H         1 UNK         0.0847 
     89 H89        26.5748  -27.9588  -44.8601 H         1 UNK         0.0847 
     90 H90        22.6378  -26.9155  -42.4993 H         1 UNK         0.3040 
     91 H91        22.1960  -29.1888  -40.7684 H         1 UNK         0.1015 
     92 H92        20.1563  -27.8944  -40.0945 H         1 UNK         0.0786 
     93 H93        20.3155  -27.9503  -41.8420 H         1 UNK         0.0786 
     94 H94        20.7503  -26.4862  -40.9631 H         1 UNK         0.0786 
     95 H95        23.2228  -27.8428  -37.5327 H         1 UNK         0.3172 
     96 H96        21.2482  -29.6234  -38.7326 H         1 UNK         0.0595 
     97 H97        22.5913  -29.6102  -35.9859 H         1 UNK         0.0839 
     98 H98        21.2173  -30.5965  -36.4624 H         1 UNK         0.0839 
     99 H99        21.0490  -28.8524  -36.3857 H         1 UNK         0.0839 
    100 H100       24.6612  -29.5584  -38.7990 H         1 UNK         0.2998 
    101 H101       25.4437  -32.1650  -38.2107 H         1 UNK         0.0822 
    102 H102       27.0351  -30.2907  -38.4898 H         1 UNK         0.0787 
    103 H103       27.4826  -31.6140  -39.5528 H         1 UNK         0.0787 
    104 H104       26.6774  -30.1990  -40.2144 H         1 UNK         0.0787 
    105 H105       24.2573  -30.9130  -41.3227 H         1 UNK         0.3055 
    106 H106       24.5611  -33.1996  -42.9220 H         1 UNK         0.1106 
    107 H107       23.9465  -31.0037  -43.8424 H         1 UNK         0.0828 
    108 H108       22.6951  -32.1510  -44.2803 H         1 UNK         0.0828 
    109 H109       22.4138  -31.0068  -42.9732 H         1 UNK         0.0828 
    110 H110       22.3729  -32.8193  -40.2518 H         1 UNK         0.2931 
    111 H111       20.7408  -35.1711  -41.0531 H         1 UNK         0.0412 
    112 H112       23.6921  -34.7864  -39.5245 H         1 UNK         0.3472 
    113 H113       23.4933  -36.0658  -38.3515 H         1 UNK         0.3472 
    114 H114       19.2588  -34.4438  -39.1156 H         1 UNK         0.0970 
    115 H115       20.2072  -32.9919  -38.9659 H         1 UNK         0.0970 
    116 H116       19.2532  -30.8111  -40.1060 H         1 UNK         0.0612 
    117 H117       20.5481  -31.3127  -41.1695 H         1 UNK         0.0612 
@<TRIPOS>BOND
     1    1    2 1    
     2    1   62 1    
     3    1   63 1    
     4    1   64 1    
     5    2    3 2    
     6    2    4 am   BACKBONE|DICT|INTERRES
     7    4    5 1    
     8    4   65 1    
     9    5    6 1    
    10    5   25 1    
    11    5   66 1    
    12    6    7 1    
    13    6   67 1    
    14    6   68 1    
    15    7    8 1    
    16    8    9 1    
    17    8   69 1    
    18    8   70 1    
    19    9   10 ar   
    20    9   14 ar   
    21   10   11 ar   
    22   10   71 1    
    23   11   12 ar   
    24   11   61 1    
    25   12   13 ar   
    26   12   72 1    
    27   13   14 ar   
    28   13   15 1    
    29   14   73 1    
    30   15   16 1    
    31   15   74 1    
    32   15   75 1    
    33   16   17 1    
    34   17   18 1    
    35   17   76 1    
    36   17   77 1    
    37   18   19 1    
    38   18   27 1    
    39   18   78 1    
    40   19   20 am   BACKBONE|DICT|INTERRES
    41   19   79 1    
    42   20   21 2    
    43   20   22 1    
    44   22   23 1    
    45   22   24 1    
    46   22   80 1    
    47   23   81 1    
    48   23   82 1    
    49   23   83 1    
    50   24   25 am   BACKBONE|DICT|INTERRES
    51   24   84 1    
    52   25   26 2    
    53   27   28 2    
    54   27   29 am   BACKBONE|DICT|INTERRES
    55   29   30 1    
    56   29   85 1    
    57   30   31 1    
    58   30   32 1    
    59   30   86 1    
    60   31   87 1    
    61   31   88 1    
    62   31   89 1    
    63   32   33 2    
    64   32   34 am   BACKBONE|DICT|INTERRES
    65   34   35 1    
    66   34   90 1    
    67   35   36 1    
    68   35   37 1    
    69   35   91 1    
    70   36   92 1    
    71   36   93 1    
    72   36   94 1    
    73   37   38 2    
    74   37   39 am   BACKBONE|DICT|INTERRES
    75   39   40 1    
    76   39   95 1    
    77   40   41 1    
    78   40   42 1    
    79   40   96 1    
    80   41   97 1    
    81   41   98 1    
    82   41   99 1    
    83   42   43 2    
    84   42   44 am   BACKBONE|DICT|INTERRES
    85   44   45 1    
    86   44  100 1    
    87   45   46 1    
    88   45   47 1    
    89   45  101 1    
    90   46  102 1    
    91   46  103 1    
    92   46  104 1    
    93   47   48 2    
    94   47   49 am   BACKBONE|DICT|INTERRES
    95   49   50 1    
    96   49  105 1    
    97   50   51 1    
    98   50   52 1    
    99   50  106 1    
   100   51  107 1    
   101   51  108 1    
   102   51  109 1    
   103   52   53 2    
   104   52   54 am   BACKBONE|DICT|INTERRES
   105   54   55 1    
   106   54  110 1    
   107   55   56 1    
   108   55   59 1    
   109   55  111 1    
   110   56   57 am   BACKBONE|DICT|INTERRES
   111   56   58 2    
   112   57  112 1    
   113   57  113 1    
   114   59   60 1    
   115   59  114 1    
   116   59  115 1    
   117   60   61 1    
   118   61  116 1    
   119   61  117 1    
@<TRIPOS>SUBSTRUCTURE
     1 UNK         1 GROUP             0       ****    0 ROOT    
