@<TRIPOS>MOLECULE
3R8
117   119    1
SMALL
USER_CHARGES


@<TRIPOS>ATOM
      1 CA         15.4813  -23.3718  -43.8513 C.3       0 UNK        -0.2013 
      2 C          16.5284  -24.4713  -43.9392 C.2       0 UNK         0.4866 
      3 O          17.1882  -24.6080  -44.9676 O.2       0 UNK        -0.5176 
      4 N          16.7083  -25.2402  -42.8582 N.am      1 UNK        -0.4884 
      5 CA         17.6049  -26.4037  -42.7473 C.3       1 UNK         0.0853 
      6 C6         17.1409  -27.3460  -41.6020 C.3       10 UNK        -0.0849 
      7 S7         15.6035  -28.2203  -42.0620 S.3       10 UNK        -0.2776 
      8 C8         16.1785  -29.9342  -42.3419 C.3       10 UNK         0.0316 
      9 C9         17.4396  -30.0074  -43.1955 C.ar      10 UNK        -0.0863 
     10 C10        18.6399  -30.4559  -42.6323 C.ar      10 UNK        -0.1009 
     11 C11        19.8158  -30.4679  -43.3871 C.ar      10 UNK        -0.0712 
     12 C12        19.7803  -30.0398  -44.7152 C.ar      10 UNK        -0.0894 
     13 C13        18.5945  -29.5831  -45.2883 C.ar      10 UNK        -0.0745 
     14 C14        17.4190  -29.5888  -44.5306 C.ar      10 UNK        -0.0972 
     15 C15        18.5983  -29.0457  -46.7098 C.3       10 UNK         0.0209 
     16 S16        18.8452  -27.2410  -46.7116 S.3       10 UNK        -0.2568 
     17 C17        20.5568  -27.0098  -47.3320 C.3       10 UNK        -0.0983 
     18 CA         21.6263  -26.5548  -46.2890 C.3       3 UNK         0.0876 
     19 N          21.0447  -25.7441  -45.2172 N.am      3 UNK        -0.4424 
     20 C          21.7127  -25.0259  -44.3061 C.2       2 UNK         0.4918 
     21 O          22.9316  -24.8530  -44.3325 O.2       2 UNK        -0.4875 
     22 CA         20.8861  -24.3710  -43.1794 C.3       2 UNK         0.0481 
     23 CB         20.8733  -22.8422  -43.3393 C.3       2 UNK        -0.1831 
     24 N          19.5011  -24.8496  -43.1076 N.am      2 UNK        -0.4498 
     25 C          19.1098  -26.0479  -42.6523 C.2       1 UNK         0.5027 
     26 O          19.8982  -26.8706  -42.1895 O.2       1 UNK        -0.4969 
     27 C          22.4643  -27.7365  -45.7502 C.2       3 UNK         0.5005 
     28 O          22.2966  -28.1496  -44.6006 O.2       3 UNK        -0.5279 
     29 N          23.3478  -28.2666  -46.6114 N.am      4 UNK        -0.4463 
     30 CA         24.2283  -29.4226  -46.3959 C.3       4 UNK         0.0283 
     31 CB         23.4280  -30.7385  -46.5226 C.3       4 UNK        -0.1875 
     32 C          25.0493  -29.3128  -45.0950 C.2       4 UNK         0.4949 
     33 O          25.9323  -28.4585  -45.0147 O.2       4 UNK        -0.5039 
     34 N          24.7469  -30.1670  -44.1081 N.am      5 UNK        -0.4663 
     35 CA         25.4098  -30.2147  -42.8035 C.3       5 UNK         0.0242 
     36 CB         25.1901  -31.6076  -42.1872 C.3       5 UNK        -0.1982 
     37 C          24.9612  -29.1127  -41.8231 C.2       5 UNK         0.5017 
     38 O          25.5571  -29.0235  -40.7500 O.2       5 UNK        -0.5012 
     39 N          23.9383  -28.3186  -42.1847 N.am      6 UNK        -0.4439 
     40 CA         23.3032  -27.2543  -41.3981 C.3       6 UNK         0.0297 
     41 CB         24.2859  -26.1019  -41.1061 C.3       6 UNK        -0.2006 
     42 C          22.6406  -27.8101  -40.1260 C.2       6 UNK         0.4892 
     43 O          23.2533  -27.8194  -39.0575 O.2       6 UNK        -0.5089 
     44 N          21.4088  -28.3114  -40.2876 N.am      7 UNK        -0.4243 
     45 CA         20.5112  -28.9155  -39.2888 C.3       7 UNK         0.0196 
     46 CB         20.1378  -27.8925  -38.1982 C.3       7 UNK        -0.2007 
     47 C          20.9827  -30.2463  -38.6647 C.2       7 UNK         0.5020 
     48 O          20.1536  -30.9640  -38.1071 O.2       7 UNK        -0.5147 
     49 N          22.2733  -30.5811  -38.7817 N.am      8 UNK        -0.4734 
     50 CA         22.9024  -31.7876  -38.2302 C.3       8 UNK         0.0238 
     51 CB         24.4201  -31.5495  -38.1520 C.3       8 UNK        -0.1912 
     52 C          22.5891  -33.0921  -38.9933 C.2       8 UNK         0.5038 
     53 O          23.0370  -34.1549  -38.5601 O.2       8 UNK        -0.5046 
     54 N          21.8571  -32.9952  -40.1102 N.am      9 UNK        -0.4200 
     55 CA         21.4028  -34.1105  -40.9551 C.3       9 UNK         0.0839 
     56 C          20.5288  -35.1379  -40.1841 C.2       9 UNK         0.5513 
     57 N          20.7059  -36.4251  -40.4483 N.am      9 UNK        -0.7519 
     58 O          19.6627  -34.7753  -39.3911 O.2       9 UNK        -0.4960 
     59 C59        20.6392  -33.5979  -42.2048 C.3       10 UNK        -0.0876 
     60 S60        21.6674  -32.5395  -43.2769 S.3       10 UNK        -0.2414 
     61 C61        21.1391  -30.8787  -42.7615 C.3       10 UNK         0.0169 
     62 H62        15.9451  -22.3980  -44.0055 H         1 UNK         0.0903 
     63 H63        14.7243  -23.5144  -44.6219 H         1 UNK         0.0903 
     64 H64        14.9810  -23.3606  -42.8832 H         1 UNK         0.0903 
     65 H65        16.1457  -25.0605  -42.0384 H         1 UNK         0.3096 
     66 H66        17.5287  -26.9577  -43.6850 H         1 UNK         0.1121 
     67 H67        16.9680  -26.7799  -40.6854 H         1 UNK         0.0849 
     68 H68        17.8961  -28.0870  -41.3410 H         1 UNK         0.0849 
     69 H69        16.3417  -30.4091  -41.3731 H         1 UNK         0.0865 
     70 H70        15.3827  -30.5012  -42.8268 H         1 UNK         0.0865 
     71 H71        18.6645  -30.7690  -41.5978 H         1 UNK         0.1346 
     72 H72        20.6868  -30.0294  -45.2981 H         1 UNK         0.1412 
     73 H73        16.4977  -29.2233  -44.9638 H         1 UNK         0.1426 
     74 H74        17.6441  -29.2695  -47.1889 H         1 UNK         0.0716 
     75 H75        19.3621  -29.5437  -47.3083 H         1 UNK         0.0716 
     76 H76        20.4829  -26.2318  -48.0934 H         1 UNK         0.0695 
     77 H77        20.8732  -27.8967  -47.8836 H         1 UNK         0.0695 
     78 H78        22.3343  -25.9047  -46.8080 H         1 UNK         0.0983 
     79 H79        20.0457  -25.8428  -45.1085 H         1 UNK         0.3095 
     80 H80        21.3787  -24.6088  -42.2345 H         1 UNK         0.0454 
     81 H81        21.8881  -22.4421  -43.3572 H         1 UNK         0.0851 
     82 H82        20.3528  -22.3604  -42.5116 H         1 UNK         0.0851 
     83 H83        20.3866  -22.5374  -44.2666 H         1 UNK         0.0851 
     84 H84        18.7921  -24.2690  -43.5377 H         1 UNK         0.2976 
     85 H85        23.4418  -27.8278  -47.5172 H         1 UNK         0.3116 
     86 H86        24.9542  -29.4075  -47.2103 H         1 UNK         0.0646 
     87 H87        22.6792  -30.8480  -45.7405 H         1 UNK         0.0847 
     88 H88        22.9119  -30.7936  -47.4811 H         1 UNK         0.0847 
     89 H89        24.0882  -31.6052  -46.4678 H         1 UNK         0.0847 
     90 H90        23.9937  -30.8233  -44.2567 H         1 UNK         0.3040 
     91 H91        26.4823  -30.0816  -42.9630 H         1 UNK         0.1015 
     92 H92        25.8176  -31.7437  -41.3060 H         1 UNK         0.0786 
     93 H93        25.4480  -32.4026  -42.8871 H         1 UNK         0.0786 
     94 H94        24.1564  -31.7547  -41.8743 H         1 UNK         0.0786 
     95 H95        23.5143  -28.4706  -43.0978 H         1 UNK         0.3172 
     96 H96        22.5145  -26.8477  -42.0301 H         1 UNK         0.0595 
     97 H97        25.1190  -26.4180  -40.4779 H         1 UNK         0.0839 
     98 H98        23.7803  -25.2874  -40.5863 H         1 UNK         0.0839 
     99 H99        24.6964  -25.6923  -42.0291 H         1 UNK         0.0839 
    100 H100       20.9774  -28.1558  -41.1963 H         1 UNK         0.2998 
    101 H101       19.5969  -29.1533  -39.8342 H         1 UNK         0.0822 
    102 H102       19.3840  -28.2990  -37.5227 H         1 UNK         0.0787 
    103 H103       19.7238  -26.9833  -38.6351 H         1 UNK         0.0787 
    104 H104       20.9991  -27.6123  -37.5906 H         1 UNK         0.0787 
    105 H105       22.8943  -29.8841  -39.1774 H         1 UNK         0.3055 
    106 H106       22.5290  -31.9280  -37.2133 H         1 UNK         0.1106 
    107 H107       24.6537  -30.6834  -37.5322 H         1 UNK         0.0828 
    108 H108       24.9342  -32.4059  -37.7136 H         1 UNK         0.0828 
    109 H109       24.8518  -31.3780  -39.1377 H         1 UNK         0.0828 
    110 H110       21.5232  -32.0811  -40.3659 H         1 UNK         0.2931 
    111 H111       22.3032  -34.6252  -41.2972 H         1 UNK         0.0412 
    112 H112       21.4067  -36.7308  -41.1060 H         1 UNK         0.3472 
    113 H113       20.1363  -37.1070  -39.9714 H         1 UNK         0.3472 
    114 H114       20.3077  -34.4405  -42.8147 H         1 UNK         0.0970 
    115 H115       19.7306  -33.0675  -41.9156 H         1 UNK         0.0970 
    116 H116       21.0833  -30.8266  -41.6758 H         1 UNK         0.0612 
    117 H117       21.9100  -30.1676  -43.0525 H         1 UNK         0.0612 
@<TRIPOS>BOND
     1    1    2 1    
     2    1   62 1    
     3    1   63 1    
     4    1   64 1    
     5    2    3 2    
     6    2    4 am   BACKBONE|DICT|INTERRES
     7    4    5 1    
     8    4   65 1    
     9    5    6 1    
    10    5   25 1    
    11    5   66 1    
    12    6    7 1    
    13    6   67 1    
    14    6   68 1    
    15    7    8 1    
    16    8    9 1    
    17    8   69 1    
    18    8   70 1    
    19    9   10 ar   
    20    9   14 ar   
    21   10   11 ar   
    22   10   71 1    
    23   11   12 ar   
    24   11   61 1    
    25   12   13 ar   
    26   12   72 1    
    27   13   14 ar   
    28   13   15 1    
    29   14   73 1    
    30   15   16 1    
    31   15   74 1    
    32   15   75 1    
    33   16   17 1    
    34   17   18 1    
    35   17   76 1    
    36   17   77 1    
    37   18   19 1    
    38   18   27 1    
    39   18   78 1    
    40   19   20 am   BACKBONE|DICT|INTERRES
    41   19   79 1    
    42   20   21 2    
    43   20   22 1    
    44   22   23 1    
    45   22   24 1    
    46   22   80 1    
    47   23   81 1    
    48   23   82 1    
    49   23   83 1    
    50   24   25 am   BACKBONE|DICT|INTERRES
    51   24   84 1    
    52   25   26 2    
    53   27   28 2    
    54   27   29 am   BACKBONE|DICT|INTERRES
    55   29   30 1    
    56   29   85 1    
    57   30   31 1    
    58   30   32 1    
    59   30   86 1    
    60   31   87 1    
    61   31   88 1    
    62   31   89 1    
    63   32   33 2    
    64   32   34 am   BACKBONE|DICT|INTERRES
    65   34   35 1    
    66   34   90 1    
    67   35   36 1    
    68   35   37 1    
    69   35   91 1    
    70   36   92 1    
    71   36   93 1    
    72   36   94 1    
    73   37   38 2    
    74   37   39 am   BACKBONE|DICT|INTERRES
    75   39   40 1    
    76   39   95 1    
    77   40   41 1    
    78   40   42 1    
    79   40   96 1    
    80   41   97 1    
    81   41   98 1    
    82   41   99 1    
    83   42   43 2    
    84   42   44 am   BACKBONE|DICT|INTERRES
    85   44   45 1    
    86   44  100 1    
    87   45   46 1    
    88   45   47 1    
    89   45  101 1    
    90   46  102 1    
    91   46  103 1    
    92   46  104 1    
    93   47   48 2    
    94   47   49 am   BACKBONE|DICT|INTERRES
    95   49   50 1    
    96   49  105 1    
    97   50   51 1    
    98   50   52 1    
    99   50  106 1    
   100   51  107 1    
   101   51  108 1    
   102   51  109 1    
   103   52   53 2    
   104   52   54 am   BACKBONE|DICT|INTERRES
   105   54   55 1    
   106   54  110 1    
   107   55   56 1    
   108   55   59 1    
   109   55  111 1    
   110   56   57 am   BACKBONE|DICT|INTERRES
   111   56   58 2    
   112   57  112 1    
   113   57  113 1    
   114   59   60 1    
   115   59  114 1    
   116   59  115 1    
   117   60   61 1    
   118   61  116 1    
   119   61  117 1    
@<TRIPOS>SUBSTRUCTURE
     1 UNK         1 GROUP             0       ****    0 ROOT    
