@<TRIPOS>MOLECULE
3R8
117   119    1
SMALL
USER_CHARGES


@<TRIPOS>ATOM
      1 CA         16.5332  -23.6130  -47.7821 C.3       0 UNK        -0.2013 
      2 C          16.9193  -24.8071  -46.9228 C.2       0 UNK         0.4866 
      3 O          18.0053  -24.8207  -46.3435 O.2       0 UNK        -0.5176 
      4 N          16.0367  -25.8096  -46.8238 N.am      1 UNK        -0.4884 
      5 CA         16.2187  -27.0348  -46.0361 C.3       1 UNK         0.0853 
      6 C6         15.3700  -28.1881  -46.6296 C.3       10 UNK        -0.0849 
      7 S7         15.7938  -29.8435  -45.9884 S.3       10 UNK        -0.2776 
      8 C8         17.3475  -30.2233  -46.8623 C.3       10 UNK         0.0316 
      9 C9         18.5627  -30.0255  -45.9651 C.ar      10 UNK        -0.0863 
     10 C10        18.7513  -30.8620  -44.8608 C.ar      10 UNK        -0.1009 
     11 C11        19.8801  -30.7287  -44.0483 C.ar      10 UNK        -0.0712 
     12 C12        20.8359  -29.7568  -44.3544 C.ar      10 UNK        -0.0894 
     13 C13        20.6488  -28.8964  -45.4412 C.ar      10 UNK        -0.0745 
     14 C14        19.5132  -29.0384  -46.2467 C.ar      10 UNK        -0.0972 
     15 C15        21.6810  -27.8236  -45.7577 C.3       10 UNK         0.0209 
     16 S16        21.2000  -26.1974  -45.0928 S.3       10 UNK        -0.2568 
     17 C17        21.5860  -26.4054  -43.3228 C.3       10 UNK        -0.0983 
     18 CA         20.6876  -25.5579  -42.3913 C.3       3 UNK         0.0876 
     19 N          19.2663  -25.8402  -42.5997 N.am      3 UNK        -0.4424 
     20 C          18.2592  -25.0801  -42.1521 C.2       2 UNK         0.4918 
     21 O          18.4203  -24.0419  -41.5076 O.2       2 UNK        -0.4875 
     22 CA         16.8439  -25.5383  -42.5391 C.3       2 UNK         0.0481 
     23 CB         15.7670  -24.4647  -42.2794 C.3       2 UNK        -0.1831 
     24 N          16.8378  -25.9375  -43.9449 N.am      2 UNK        -0.4498 
     25 C          15.9682  -26.7637  -44.5340 C.2       1 UNK         0.5027 
     26 O          15.0006  -27.2614  -43.9548 O.2       1 UNK        -0.4969 
     27 C          21.0969  -25.7867  -40.9217 C.2       3 UNK         0.5005 
     28 O          20.5076  -26.6268  -40.2373 O.2       3 UNK        -0.5279 
     29 N          22.1368  -25.0666  -40.4831 N.am      4 UNK        -0.4463 
     30 CA         22.7494  -25.2027  -39.1568 C.3       4 UNK         0.0283 
     31 CB         23.2490  -23.8192  -38.7035 C.3       4 UNK        -0.1875 
     32 C          23.8972  -26.2333  -39.1254 C.2       4 UNK         0.4949 
     33 O          24.5140  -26.4074  -38.0737 O.2       4 UNK        -0.5039 
     34 N          24.1914  -26.8702  -40.2648 N.am      5 UNK        -0.4663 
     35 CA         25.2583  -27.8477  -40.4586 C.3       5 UNK         0.0242 
     36 CB         26.6116  -27.1176  -40.5932 C.3       5 UNK        -0.1982 
     37 C          24.9440  -28.6919  -41.7041 C.2       5 UNK         0.5017 
     38 O          23.9529  -28.4187  -42.3854 O.2       5 UNK        -0.5012 
     39 N          25.8240  -29.6652  -41.9811 N.am      6 UNK        -0.4439 
     40 CA         25.8222  -30.6294  -43.0904 C.3       6 UNK         0.0297 
     41 CB         25.6587  -29.9448  -44.4629 C.3       6 UNK        -0.2006 
     42 C          24.7965  -31.7597  -42.9083 C.2       6 UNK         0.4892 
     43 O          23.6823  -31.5274  -42.4380 O.2       6 UNK        -0.5089 
     44 N          25.2020  -32.9749  -43.3062 N.am      7 UNK        -0.4243 
     45 CA         24.4412  -34.2275  -43.2183 C.3       7 UNK         0.0196 
     46 CB         23.3066  -34.2366  -44.2703 C.3       7 UNK        -0.2007 
     47 C          23.9745  -34.5089  -41.7743 C.2       7 UNK         0.5020 
     48 O          24.7845  -34.4173  -40.8500 O.2       7 UNK        -0.5147 
     49 N          22.6849  -34.8186  -41.5941 N.am      8 UNK        -0.4734 
     50 CA         22.0499  -35.0207  -40.2881 C.3       8 UNK         0.0238 
     51 CB         20.7161  -35.7577  -40.4970 C.3       8 UNK        -0.1912 
     52 C          21.8227  -33.7168  -39.4970 C.2       8 UNK         0.5038 
     53 O          21.5251  -33.7925  -38.3040 O.2       8 UNK        -0.5046 
     54 N          21.9419  -32.5605  -40.1617 N.am      9 UNK        -0.4200 
     55 CA         21.7248  -31.2262  -39.5841 C.3       9 UNK         0.0839 
     56 C          22.9874  -30.6340  -38.8966 C.2       9 UNK         0.5513 
     57 N          24.1543  -31.2647  -38.9790 N.am      9 UNK        -0.7519 
     58 O          22.8994  -29.5954  -38.2492 O.2       9 UNK        -0.4960 
     59 C59        21.1193  -30.2436  -40.6231 C.3       10 UNK        -0.0876 
     60 S60        19.5327  -30.8469  -41.3022 S.3       10 UNK        -0.2414 
     61 C61        20.0652  -31.6455  -42.8503 C.3       10 UNK         0.0169 
     62 H62        15.5504  -23.7371  -48.2365 H         1 UNK         0.0903 
     63 H63        16.5159  -22.7066  -47.1776 H         1 UNK         0.0903 
     64 H64        17.2613  -23.4759  -48.5810 H         1 UNK         0.0903 
     65 H65        15.1457  -25.7245  -47.2933 H         1 UNK         0.3096 
     66 H66        17.2662  -27.3282  -46.1235 H         1 UNK         0.1121 
     67 H67        14.3072  -28.0121  -46.4525 H         1 UNK         0.0849 
     68 H68        15.4830  -28.2150  -47.7147 H         1 UNK         0.0849 
     69 H69        17.3184  -31.2648  -47.1862 H         1 UNK         0.0865 
     70 H70        17.4288  -29.6285  -47.7733 H         1 UNK         0.0865 
     71 H71        18.0141  -31.6208  -44.6352 H         1 UNK         0.1346 
     72 H72        21.7218  -29.6655  -43.7397 H         1 UNK         0.1412 
     73 H73        19.3777  -28.3825  -47.0962 H         1 UNK         0.1426 
     74 H74        21.7993  -27.7399  -46.8390 H         1 UNK         0.0716 
     75 H75        22.6606  -28.1017  -45.3650 H         1 UNK         0.0716 
     76 H76        22.6365  -26.1409  -43.1895 H         1 UNK         0.0695 
     77 H77        21.5019  -27.4581  -43.0544 H         1 UNK         0.0695 
     78 H78        20.8481  -24.5032  -42.6269 H         1 UNK         0.0983 
     79 H79        19.0542  -26.6879  -43.1043 H         1 UNK         0.3095 
     80 H80        16.6190  -26.4125  -41.9249 H         1 UNK         0.0454 
     81 H81        15.7537  -24.1686  -41.2298 H         1 UNK         0.0851 
     82 H82        15.9463  -23.5668  -42.8716 H         1 UNK         0.0851 
     83 H83        14.7693  -24.8311  -42.5203 H         1 UNK         0.0851 
     84 H84        17.5575  -25.5215  -44.5324 H         1 UNK         0.2976 
     85 H85        22.5751  -24.4059  -41.1103 H         1 UNK         0.3116 
     86 H86        21.9968  -25.5388  -38.4402 H         1 UNK         0.0646 
     87 H87        23.6598  -23.8617  -37.6938 H         1 UNK         0.0847 
     88 H88        22.4391  -23.0896  -38.6883 H         1 UNK         0.0847 
     89 H89        24.0341  -23.4380  -39.3575 H         1 UNK         0.0847 
     90 H90        23.5995  -26.7456  -41.0758 H         1 UNK         0.3040 
     91 H91        25.2830  -28.5167  -39.5959 H         1 UNK         0.1015 
     92 H92        26.8261  -26.5084  -39.7150 H         1 UNK         0.0786 
     93 H93        26.6264  -26.4614  -41.4644 H         1 UNK         0.0786 
     94 H94        27.4389  -27.8198  -40.6984 H         1 UNK         0.0786 
     95 H95        26.5803  -29.7948  -41.3239 H         1 UNK         0.3172 
     96 H96        26.8157  -31.0804  -43.0697 H         1 UNK         0.0595 
     97 H97        26.3628  -29.1220  -44.5860 H         1 UNK         0.0839 
     98 H98        24.6518  -29.5515  -44.6050 H         1 UNK         0.0839 
     99 H99        25.8401  -30.6520  -45.2730 H         1 UNK         0.0839 
    100 H100       26.1455  -33.0680  -43.6559 H         1 UNK         0.2998 
    101 H101       25.1348  -35.0307  -43.4715 H         1 UNK         0.0822 
    102 H102       23.7035  -34.0572  -45.2696 H         1 UNK         0.0787 
    103 H103       22.7995  -35.2017  -44.3038 H         1 UNK         0.0787 
    104 H104       22.5578  -33.4679  -44.0769 H         1 UNK         0.0787 
    105 H105       22.0862  -34.8715  -42.4058 H         1 UNK         0.3055 
    106 H106       22.7015  -35.6539  -39.6814 H         1 UNK         0.1106 
    107 H107       20.0190  -35.1696  -41.0955 H         1 UNK         0.0828 
    108 H108       20.8642  -36.7159  -40.9954 H         1 UNK         0.0828 
    109 H109       20.2299  -35.9646  -39.5425 H         1 UNK         0.0828 
    110 H110       22.2747  -32.5690  -41.1175 H         1 UNK         0.2931 
    111 H111       20.9859  -31.3260  -38.7866 H         1 UNK         0.0412 
    112 H112       24.9545  -30.8926  -38.4940 H         1 UNK         0.3472 
    113 H113       24.2336  -32.1194  -39.5091 H         1 UNK         0.3472 
    114 H114       21.8234  -30.0417  -41.4304 H         1 UNK         0.0970 
    115 H115       20.9250  -29.2772  -40.1551 H         1 UNK         0.0970 
    116 H116       21.1049  -31.9617  -42.7812 H         1 UNK         0.0612 
    117 H117       19.4836  -32.5589  -42.9838 H         1 UNK         0.0612 
@<TRIPOS>BOND
     1    1    2 1    
     2    1   62 1    
     3    1   63 1    
     4    1   64 1    
     5    2    3 2    
     6    2    4 am   BACKBONE|DICT|INTERRES
     7    4    5 1    
     8    4   65 1    
     9    5    6 1    
    10    5   25 1    
    11    5   66 1    
    12    6    7 1    
    13    6   67 1    
    14    6   68 1    
    15    7    8 1    
    16    8    9 1    
    17    8   69 1    
    18    8   70 1    
    19    9   10 ar   
    20    9   14 ar   
    21   10   11 ar   
    22   10   71 1    
    23   11   12 ar   
    24   11   61 1    
    25   12   13 ar   
    26   12   72 1    
    27   13   14 ar   
    28   13   15 1    
    29   14   73 1    
    30   15   16 1    
    31   15   74 1    
    32   15   75 1    
    33   16   17 1    
    34   17   18 1    
    35   17   76 1    
    36   17   77 1    
    37   18   19 1    
    38   18   27 1    
    39   18   78 1    
    40   19   20 am   BACKBONE|DICT|INTERRES
    41   19   79 1    
    42   20   21 2    
    43   20   22 1    
    44   22   23 1    
    45   22   24 1    
    46   22   80 1    
    47   23   81 1    
    48   23   82 1    
    49   23   83 1    
    50   24   25 am   BACKBONE|DICT|INTERRES
    51   24   84 1    
    52   25   26 2    
    53   27   28 2    
    54   27   29 am   BACKBONE|DICT|INTERRES
    55   29   30 1    
    56   29   85 1    
    57   30   31 1    
    58   30   32 1    
    59   30   86 1    
    60   31   87 1    
    61   31   88 1    
    62   31   89 1    
    63   32   33 2    
    64   32   34 am   BACKBONE|DICT|INTERRES
    65   34   35 1    
    66   34   90 1    
    67   35   36 1    
    68   35   37 1    
    69   35   91 1    
    70   36   92 1    
    71   36   93 1    
    72   36   94 1    
    73   37   38 2    
    74   37   39 am   BACKBONE|DICT|INTERRES
    75   39   40 1    
    76   39   95 1    
    77   40   41 1    
    78   40   42 1    
    79   40   96 1    
    80   41   97 1    
    81   41   98 1    
    82   41   99 1    
    83   42   43 2    
    84   42   44 am   BACKBONE|DICT|INTERRES
    85   44   45 1    
    86   44  100 1    
    87   45   46 1    
    88   45   47 1    
    89   45  101 1    
    90   46  102 1    
    91   46  103 1    
    92   46  104 1    
    93   47   48 2    
    94   47   49 am   BACKBONE|DICT|INTERRES
    95   49   50 1    
    96   49  105 1    
    97   50   51 1    
    98   50   52 1    
    99   50  106 1    
   100   51  107 1    
   101   51  108 1    
   102   51  109 1    
   103   52   53 2    
   104   52   54 am   BACKBONE|DICT|INTERRES
   105   54   55 1    
   106   54  110 1    
   107   55   56 1    
   108   55   59 1    
   109   55  111 1    
   110   56   57 am   BACKBONE|DICT|INTERRES
   111   56   58 2    
   112   57  112 1    
   113   57  113 1    
   114   59   60 1    
   115   59  114 1    
   116   59  115 1    
   117   60   61 1    
   118   61  116 1    
   119   61  117 1    
@<TRIPOS>SUBSTRUCTURE
     1 UNK         1 GROUP             0       ****    0 ROOT    
