@<TRIPOS>MOLECULE
3R8
117   119    1
SMALL
USER_CHARGES


@<TRIPOS>ATOM
      1 CA         15.7880  -21.8251  -44.8313 C.3       0 UNK        -0.2013 
      2 C          16.4227  -23.0321  -45.5057 C.2       0 UNK         0.4866 
      3 O          17.5216  -22.9210  -46.0492 O.2       0 UNK        -0.5176 
      4 N          15.7366  -24.1829  -45.4790 N.am      1 UNK        -0.4884 
      5 CA         16.2046  -25.4519  -46.0531 C.3       1 UNK         0.0853 
      6 C6         15.0460  -26.4799  -46.1429 C.3       10 UNK        -0.0849 
      7 S7         15.3471  -27.8061  -47.3603 S.3       10 UNK        -0.2776 
      8 C8         15.2684  -29.3183  -46.3355 C.3       10 UNK         0.0316 
      9 C9         16.5796  -29.6604  -45.6309 C.ar      10 UNK        -0.0863 
     10 C10        16.5942  -29.9463  -44.2601 C.ar      10 UNK        -0.1009 
     11 C11        17.7793  -30.3413  -43.6282 C.ar      10 UNK        -0.0712 
     12 C12        18.9541  -30.4489  -44.3760 C.ar      10 UNK        -0.0894 
     13 C13        18.9620  -30.1418  -45.7390 C.ar      10 UNK        -0.0745 
     14 C14        17.7696  -29.7595  -46.3609 C.ar      10 UNK        -0.0972 
     15 C15        20.2479  -30.2457  -46.5489 C.3       10 UNK         0.0209 
     16 S16        21.2509  -28.7243  -46.4538 S.3       10 UNK        -0.2568 
     17 C17        22.0732  -28.9137  -44.8349 C.3       10 UNK        -0.0983 
     18 CA         21.7222  -27.8108  -43.8001 C.3       3 UNK         0.0876 
     19 N          20.2740  -27.5910  -43.6804 N.am      3 UNK        -0.4424 
     20 C          19.6894  -26.4905  -43.1912 C.2       2 UNK         0.4918 
     21 O          20.2982  -25.4710  -42.8642 O.2       2 UNK        -0.4875 
     22 CA         18.1735  -26.5952  -42.9461 C.3       2 UNK         0.0481 
     23 CB         17.8039  -26.0774  -41.5453 C.3       2 UNK        -0.1831 
     24 N          17.3307  -25.9294  -43.9385 N.am      2 UNK        -0.4498 
     25 C          17.3991  -26.0386  -45.2744 C.2       1 UNK         0.5027 
     26 O          18.3159  -26.5780  -45.8913 O.2       1 UNK        -0.4969 
     27 C          22.3711  -28.1587  -42.4378 C.2       3 UNK         0.5005 
     28 O          23.5858  -28.3629  -42.3785 O.2       3 UNK        -0.5279 
     29 N          21.5568  -28.2605  -41.3740 N.am      4 UNK        -0.4463 
     30 CA         21.8910  -28.7236  -40.0236 C.3       4 UNK         0.0283 
     31 CB         20.6355  -28.6552  -39.1403 C.3       4 UNK        -0.1875 
     32 C          23.0715  -28.0162  -39.3379 C.2       4 UNK         0.4949 
     33 O          23.7018  -28.6194  -38.4708 O.2       4 UNK        -0.5039 
     34 N          23.3786  -26.7831  -39.7588 N.am      5 UNK        -0.4663 
     35 CA         24.5521  -26.0218  -39.3250 C.3       5 UNK         0.0242 
     36 CB         24.4323  -24.5813  -39.8487 C.3       5 UNK        -0.1982 
     37 C          25.8970  -26.6405  -39.7583 C.2       5 UNK         0.5017 
     38 O          26.9110  -26.3419  -39.1260 O.2       5 UNK        -0.5012 
     39 N          25.8909  -27.4689  -40.8137 N.am      6 UNK        -0.4439 
     40 CA         27.0777  -28.1301  -41.3605 C.3       6 UNK         0.0297 
     41 CB         27.4130  -27.5206  -42.7325 C.3       6 UNK        -0.2006 
     42 C          26.8972  -29.6506  -41.4779 C.2       6 UNK         0.4892 
     43 O          27.8132  -30.3905  -41.1178 O.2       6 UNK        -0.5089 
     44 N          25.7437  -30.0947  -41.9946 N.am      7 UNK        -0.4243 
     45 CA         25.4767  -31.4956  -42.3382 C.3       7 UNK         0.0196 
     46 CB         24.6552  -31.5252  -43.6384 C.3       7 UNK        -0.2007 
     47 C          24.7382  -32.2740  -41.2374 C.2       7 UNK         0.5020 
     48 O          24.5275  -33.4761  -41.4034 O.2       7 UNK        -0.5147 
     49 N          24.2929  -31.5866  -40.1732 N.am      8 UNK        -0.4734 
     50 CA         23.4879  -32.1084  -39.0515 C.3       8 UNK         0.0238 
     51 CB         24.3185  -33.0982  -38.2073 C.3       8 UNK        -0.1912 
     52 C          22.1219  -32.7057  -39.4661 C.2       8 UNK         0.5038 
     53 O          21.5207  -33.4451  -38.6857 O.2       8 UNK        -0.5046 
     54 N          21.6628  -32.3804  -40.6841 N.am      9 UNK        -0.4200 
     55 CA         20.5045  -32.9741  -41.3684 C.3       9 UNK         0.0839 
     56 C          20.6952  -34.4792  -41.7413 C.2       9 UNK         0.5513 
     57 N          21.9220  -34.9831  -41.8318 N.am      9 UNK        -0.7519 
     58 O          19.7291  -35.2005  -41.9745 O.2       9 UNK        -0.4960 
     59 C59        19.1574  -32.6521  -40.6541 C.3       10 UNK        -0.0876 
     60 S60        17.7702  -32.4359  -41.8252 S.3       10 UNK        -0.2414 
     61 C61        17.8059  -30.6422  -42.1366 C.3       10 UNK         0.0169 
     62 H62        16.4336  -21.4589  -44.0334 H         1 UNK         0.0903 
     63 H63        15.6504  -21.0211  -45.5539 H         1 UNK         0.0903 
     64 H64        14.8160  -22.0618  -44.3990 H         1 UNK         0.0903 
     65 H65        14.8298  -24.2055  -45.0330 H         1 UNK         0.3096 
     66 H66        16.5537  -25.2365  -47.0660 H         1 UNK         0.1121 
     67 H67        14.1328  -25.9764  -46.4649 H         1 UNK         0.0849 
     68 H68        14.8151  -26.9045  -45.1638 H         1 UNK         0.0849 
     69 H69        14.4475  -29.2324  -45.6218 H         1 UNK         0.0865 
     70 H70        15.0103  -30.1554  -46.9855 H         1 UNK         0.0865 
     71 H71        15.6802  -29.8791  -43.6857 H         1 UNK         0.1346 
     72 H72        19.8621  -30.7743  -43.8905 H         1 UNK         0.1412 
     73 H73        17.7661  -29.5380  -47.4195 H         1 UNK         0.1426 
     74 H74        20.8368  -31.1039  -46.2215 H         1 UNK         0.0716 
     75 H75        20.0081  -30.4330  -47.5967 H         1 UNK         0.0716 
     76 H76        21.8504  -29.9030  -44.4369 H         1 UNK         0.0695 
     77 H77        23.1488  -28.9133  -45.0226 H         1 UNK         0.0695 
     78 H78        22.1774  -26.8770  -44.1373 H         1 UNK         0.0983 
     79 H79        19.6845  -28.3344  -44.0317 H         1 UNK         0.3095 
     80 H80        17.9026  -27.6502  -42.9739 H         1 UNK         0.0454 
     81 H81        17.9623  -25.0016  -41.4582 H         1 UNK         0.0851 
     82 H82        16.7604  -26.2832  -41.3065 H         1 UNK         0.0851 
     83 H83        18.4086  -26.5577  -40.7750 H         1 UNK         0.0851 
     84 H84        16.5503  -25.4077  -43.5681 H         1 UNK         0.2976 
     85 H85        20.5840  -28.0518  -41.5358 H         1 UNK         0.3116 
     86 H86        22.1727  -29.7683  -40.1233 H         1 UNK         0.0646 
     87 H87        20.2724  -27.6322  -39.0346 H         1 UNK         0.0847 
     88 H88        19.8254  -29.2607  -39.5462 H         1 UNK         0.0847 
     89 H89        20.8422  -29.0311  -38.1370 H         1 UNK         0.0847 
     90 H90        22.8030  -26.3672  -40.4769 H         1 UNK         0.3040 
     91 H91        24.5485  -25.9932  -38.2329 H         1 UNK         0.1015 
     92 H92        24.4143  -24.5483  -40.9389 H         1 UNK         0.0786 
     93 H93        25.2763  -23.9739  -39.5184 H         1 UNK         0.0786 
     94 H94        23.5261  -24.0988  -39.4818 H         1 UNK         0.0786 
     95 H95        25.0050  -27.6625  -41.2729 H         1 UNK         0.3172 
     96 H96        27.9367  -27.9680  -40.7060 H         1 UNK         0.0595 
     97 H97        27.6404  -26.4580  -42.6466 H         1 UNK         0.0839 
     98 H98        26.5875  -27.6295  -43.4373 H         1 UNK         0.0839 
     99 H99        28.2862  -28.0038  -43.1732 H         1 UNK         0.0839 
    100 H100       25.0196  -29.4247  -42.2489 H         1 UNK         0.2998 
    101 H101       26.4190  -32.0157  -42.5240 H         1 UNK         0.0822 
    102 H102       25.1599  -30.9871  -44.4410 H         1 UNK         0.0787 
    103 H103       24.5011  -32.5486  -43.9837 H         1 UNK         0.0787 
    104 H104       23.6720  -31.0773  -43.4999 H         1 UNK         0.0787 
    105 H105       24.5310  -30.6051  -40.1221 H         1 UNK         0.3055 
    106 H106       23.2550  -31.2562  -38.4118 H         1 UNK         0.1106 
    107 H107       25.2703  -32.6608  -37.9062 H         1 UNK         0.0828 
    108 H108       23.7904  -33.3763  -37.2944 H         1 UNK         0.0828 
    109 H109       24.5293  -34.0189  -38.7521 H         1 UNK         0.0828 
    110 H110       22.2491  -31.7919  -41.2551 H         1 UNK         0.2931 
    111 H111       20.4922  -32.4622  -42.3305 H         1 UNK         0.0412 
    112 H112       22.0350  -35.9531  -42.0803 H         1 UNK         0.3472 
    113 H113       22.7415  -34.4138  -41.6488 H         1 UNK         0.3472 
    114 H114       18.9014  -33.4385  -39.9417 H         1 UNK         0.0970 
    115 H115       19.2442  -31.7450  -40.0549 H         1 UNK         0.0970 
    116 H116       16.9566  -30.1770  -41.6339 H         1 UNK         0.0612 
    117 H117       18.7006  -30.1959  -41.7008 H         1 UNK         0.0612 
@<TRIPOS>BOND
     1    1    2 1    
     2    1   62 1    
     3    1   63 1    
     4    1   64 1    
     5    2    3 2    
     6    2    4 am   BACKBONE|DICT|INTERRES
     7    4    5 1    
     8    4   65 1    
     9    5    6 1    
    10    5   25 1    
    11    5   66 1    
    12    6    7 1    
    13    6   67 1    
    14    6   68 1    
    15    7    8 1    
    16    8    9 1    
    17    8   69 1    
    18    8   70 1    
    19    9   10 ar   
    20    9   14 ar   
    21   10   11 ar   
    22   10   71 1    
    23   11   12 ar   
    24   11   61 1    
    25   12   13 ar   
    26   12   72 1    
    27   13   14 ar   
    28   13   15 1    
    29   14   73 1    
    30   15   16 1    
    31   15   74 1    
    32   15   75 1    
    33   16   17 1    
    34   17   18 1    
    35   17   76 1    
    36   17   77 1    
    37   18   19 1    
    38   18   27 1    
    39   18   78 1    
    40   19   20 am   BACKBONE|DICT|INTERRES
    41   19   79 1    
    42   20   21 2    
    43   20   22 1    
    44   22   23 1    
    45   22   24 1    
    46   22   80 1    
    47   23   81 1    
    48   23   82 1    
    49   23   83 1    
    50   24   25 am   BACKBONE|DICT|INTERRES
    51   24   84 1    
    52   25   26 2    
    53   27   28 2    
    54   27   29 am   BACKBONE|DICT|INTERRES
    55   29   30 1    
    56   29   85 1    
    57   30   31 1    
    58   30   32 1    
    59   30   86 1    
    60   31   87 1    
    61   31   88 1    
    62   31   89 1    
    63   32   33 2    
    64   32   34 am   BACKBONE|DICT|INTERRES
    65   34   35 1    
    66   34   90 1    
    67   35   36 1    
    68   35   37 1    
    69   35   91 1    
    70   36   92 1    
    71   36   93 1    
    72   36   94 1    
    73   37   38 2    
    74   37   39 am   BACKBONE|DICT|INTERRES
    75   39   40 1    
    76   39   95 1    
    77   40   41 1    
    78   40   42 1    
    79   40   96 1    
    80   41   97 1    
    81   41   98 1    
    82   41   99 1    
    83   42   43 2    
    84   42   44 am   BACKBONE|DICT|INTERRES
    85   44   45 1    
    86   44  100 1    
    87   45   46 1    
    88   45   47 1    
    89   45  101 1    
    90   46  102 1    
    91   46  103 1    
    92   46  104 1    
    93   47   48 2    
    94   47   49 am   BACKBONE|DICT|INTERRES
    95   49   50 1    
    96   49  105 1    
    97   50   51 1    
    98   50   52 1    
    99   50  106 1    
   100   51  107 1    
   101   51  108 1    
   102   51  109 1    
   103   52   53 2    
   104   52   54 am   BACKBONE|DICT|INTERRES
   105   54   55 1    
   106   54  110 1    
   107   55   56 1    
   108   55   59 1    
   109   55  111 1    
   110   56   57 am   BACKBONE|DICT|INTERRES
   111   56   58 2    
   112   57  112 1    
   113   57  113 1    
   114   59   60 1    
   115   59  114 1    
   116   59  115 1    
   117   60   61 1    
   118   61  116 1    
   119   61  117 1    
@<TRIPOS>SUBSTRUCTURE
     1 UNK         1 GROUP             0       ****    0 ROOT    
