@<TRIPOS>MOLECULE
3R8
117   119    1
SMALL
USER_CHARGES


@<TRIPOS>ATOM
      1 CA         11.7128  -26.3607  -44.2260 C.3       0 UNK        -0.2013 
      2 C          13.1786  -25.9639  -44.3186 C.2       0 UNK         0.4866 
      3 O          13.5602  -24.9060  -43.8164 O.2       0 UNK        -0.5176 
      4 N          14.0011  -26.7984  -44.9650 N.am      1 UNK        -0.4884 
      5 CA         15.4522  -26.6250  -45.0818 C.3       1 UNK         0.0853 
      6 C6         16.0395  -27.4711  -46.2418 C.3       10 UNK        -0.0849 
      7 S7         15.6221  -29.2501  -46.1545 S.3       10 UNK        -0.2776 
      8 C8         17.0622  -30.0167  -46.9627 C.3       10 UNK         0.0316 
      9 C9         18.3413  -29.8868  -46.1450 C.ar      10 UNK        -0.0863 
     10 C10        18.4613  -30.5332  -44.9111 C.ar      10 UNK        -0.1009 
     11 C11        19.6549  -30.4659  -44.1854 C.ar      10 UNK        -0.0712 
     12 C12        20.7387  -29.7535  -44.7068 C.ar      10 UNK        -0.0894 
     13 C13        20.6217  -29.0817  -45.9273 C.ar      10 UNK        -0.0745 
     14 C14        19.4220  -29.1525  -46.6415 C.ar      10 UNK        -0.0972 
     15 C15        21.7918  -28.2923  -46.4922 C.3       10 UNK         0.0209 
     16 S16        21.6975  -26.5350  -46.0271 S.3       10 UNK        -0.2568 
     17 C17        22.4534  -26.5642  -44.3696 C.3       10 UNK        -0.0983 
     18 CA         21.6925  -25.6919  -43.3429 C.3       3 UNK         0.0876 
     19 N          20.3420  -26.2072  -43.0958 N.am      3 UNK        -0.4424 
     20 C          19.3603  -25.5067  -42.5198 C.2       2 UNK         0.4918 
     21 O          19.4401  -24.3081  -42.2432 O.2       2 UNK        -0.4875 
     22 CA         18.0533  -26.2617  -42.2631 C.3       2 UNK         0.0481 
     23 CB         17.3023  -25.7174  -41.0294 C.3       2 UNK        -0.1831 
     24 N          17.2322  -26.1556  -43.4650 N.am      2 UNK        -0.4498 
     25 C          16.1585  -26.9060  -43.7370 C.2       1 UNK         0.5027 
     26 O          15.7274  -27.7859  -42.9860 O.2       1 UNK        -0.4969 
     27 C          22.5004  -25.5745  -42.0298 C.2       3 UNK         0.5005 
     28 O          22.1033  -26.1167  -40.9946 O.2       3 UNK        -0.5279 
     29 N          23.6499  -24.8898  -42.1042 N.am      4 UNK        -0.4463 
     30 CA         24.6021  -24.7418  -40.9976 C.3       4 UNK         0.0283 
     31 CB         25.5591  -23.5800  -41.3121 C.3       4 UNK        -0.1875 
     32 C          25.4020  -26.0231  -40.6863 C.2       4 UNK         0.4949 
     33 O          25.9768  -26.1185  -39.6017 O.2       4 UNK        -0.5039 
     34 N          25.4317  -26.9787  -41.6221 N.am      5 UNK        -0.4663 
     35 CA         26.1220  -28.2621  -41.5186 C.3       5 UNK         0.0242 
     36 CB         27.6184  -28.0669  -41.8419 C.3       5 UNK        -0.1982 
     37 C          25.4576  -29.2729  -42.4678 C.2       5 UNK         0.5017 
     38 O          24.5211  -28.9074  -43.1816 O.2       5 UNK        -0.5012 
     39 N          25.9940  -30.5017  -42.4739 N.am      6 UNK        -0.4439 
     40 CA         25.6095  -31.6804  -43.2627 C.3       6 UNK         0.0297 
     41 CB         25.4481  -31.3655  -44.7645 C.3       6 UNK        -0.2006 
     42 C          24.3703  -32.3993  -42.7057 C.2       6 UNK         0.4892 
     43 O          23.3993  -31.7574  -42.3017 O.2       6 UNK        -0.5089 
     44 N          24.4345  -33.7394  -42.7194 N.am      7 UNK        -0.4243 
     45 CA         23.4291  -34.6790  -42.2099 C.3       7 UNK         0.0196 
     46 CB         22.1941  -34.7055  -43.1407 C.3       7 UNK        -0.2007 
     47 C          23.1102  -34.4130  -40.7243 C.2       7 UNK         0.5020 
     48 O          24.0367  -34.3550  -39.9142 O.2       7 UNK        -0.5147 
     49 N          21.8249  -34.2505  -40.3901 N.am      8 UNK        -0.4734 
     50 CA         21.3534  -33.8940  -39.0489 C.3       8 UNK         0.0238 
     51 CB         19.9211  -34.4290  -38.8759 C.3       8 UNK        -0.1912 
     52 C          21.3980  -32.3785  -38.7687 C.2       8 UNK         0.5038 
     53 O          21.1614  -31.9819  -37.6262 O.2       8 UNK        -0.5046 
     54 N          21.6564  -31.5638  -39.7991 N.am      9 UNK        -0.4200 
     55 CA         21.6767  -30.0964  -39.7356 C.3       9 UNK         0.0839 
     56 C          23.0686  -29.5442  -39.3118 C.2       9 UNK         0.5513 
     57 N          23.2372  -28.2304  -39.2724 N.am      9 UNK        -0.7519 
     58 O          23.9999  -30.2817  -38.9942 O.2       9 UNK        -0.4960 
     59 C59        21.1440  -29.4706  -41.0535 C.3       10 UNK        -0.0876 
     60 S60        19.4563  -30.0401  -41.4622 S.3       10 UNK        -0.2414 
     61 C61        19.7715  -31.1763  -42.8465 C.3       10 UNK         0.0169 
     62 H62        11.5150  -27.3097  -44.7243 H         1 UNK         0.0903 
     63 H63        11.4162  -26.4579  -43.1820 H         1 UNK         0.0903 
     64 H64        11.0872  -25.5979  -44.6888 H         1 UNK         0.0903 
     65 H65        13.6492  -27.6750  -45.3248 H         1 UNK         0.3096 
     66 H66        15.6292  -25.5748  -45.3265 H         1 UNK         0.1121 
     67 H67        15.6632  -27.0908  -47.1928 H         1 UNK         0.0849 
     68 H68        17.1226  -27.3452  -46.2874 H         1 UNK         0.0849 
     69 H69        16.8522  -31.0757  -47.1191 H         1 UNK         0.0865 
     70 H70        17.1857  -29.5835  -47.9566 H         1 UNK         0.0865 
     71 H71        17.6233  -31.0935  -44.5189 H         1 UNK         0.1346 
     72 H72        21.6725  -29.7228  -44.1624 H         1 UNK         0.1412 
     73 H73        19.3376  -28.6440  -47.5925 H         1 UNK         0.1426 
     74 H74        21.7918  -28.3659  -47.5808 H         1 UNK         0.0716 
     75 H75        22.7416  -28.7167  -46.1617 H         1 UNK         0.0716 
     76 H76        22.5074  -27.5899  -44.0086 H         1 UNK         0.0695 
     77 H77        23.4860  -26.2323  -44.4907 H         1 UNK         0.0695 
     78 H78        21.5984  -24.6830  -43.7515 H         1 UNK         0.0983 
     79 H79        20.1878  -27.1797  -43.3179 H         1 UNK         0.3095 
     80 H80        18.2934  -27.3121  -42.0879 H         1 UNK         0.0454 
     81 H81        17.9488  -25.7166  -40.1509 H         1 UNK         0.0851 
     82 H82        16.9583  -24.6942  -41.1840 H         1 UNK         0.0851 
     83 H83        16.4332  -26.3283  -40.7863 H         1 UNK         0.0851 
     84 H84        17.5356  -25.4589  -44.1327 H         1 UNK         0.2976 
     85 H85        23.9127  -24.4663  -42.9833 H         1 UNK         0.3116 
     86 H86        24.0409  -24.4840  -40.0967 H         1 UNK         0.0646 
     87 H87        26.2588  -23.4178  -40.4909 H         1 UNK         0.0847 
     88 H88        25.0169  -22.6459  -41.4601 H         1 UNK         0.0847 
     89 H89        26.1502  -23.7735  -42.2081 H         1 UNK         0.0847 
     90 H90        24.8676  -26.8808  -42.4562 H         1 UNK         0.3040 
     91 H91        26.0125  -28.6449  -40.5014 H         1 UNK         0.1015 
     92 H92        28.0769  -27.3339  -41.1779 H         1 UNK         0.0786 
     93 H93        27.7640  -27.7235  -42.8669 H         1 UNK         0.0786 
     94 H94        28.1807  -28.9935  -41.7236 H         1 UNK         0.0786 
     95 H95        26.7420  -30.6727  -41.8164 H         1 UNK         0.3172 
     96 H96        26.4561  -32.3626  -43.1682 H         1 UNK         0.0595 
     97 H97        26.3099  -30.8246  -45.1550 H         1 UNK         0.0839 
     98 H98        24.5565  -30.7699  -44.9637 H         1 UNK         0.0839 
     99 H99        25.3508  -32.2843  -45.3439 H         1 UNK         0.0839 
    100 H100       25.2874  -34.1660  -43.0541 H         1 UNK         0.2998 
    101 H101       23.8864  -35.6691  -42.2437 H         1 UNK         0.0822 
    102 H102       22.4857  -34.9438  -44.1637 H         1 UNK         0.0787 
    103 H103       21.4784  -35.4689  -42.8329 H         1 UNK         0.0787 
    104 H104       21.6754  -33.7477  -43.1675 H         1 UNK         0.0787 
    105 H105       21.1266  -34.3152  -41.1169 H         1 UNK         0.3055 
    106 H106       21.9905  -34.3769  -38.3041 H         1 UNK         0.1106 
    107 H107       19.2292  -33.9672  -39.5815 H         1 UNK         0.0828 
    108 H108       19.8796  -35.5088  -39.0201 H         1 UNK         0.0828 
    109 H109       19.5455  -34.2249  -37.8721 H         1 UNK         0.0828 
    110 H110       21.9543  -31.9617  -40.6806 H         1 UNK         0.2931 
    111 H111       20.9921  -29.7889  -38.9427 H         1 UNK         0.0412 
    112 H112       24.1307  -27.8670  -38.9804 H         1 UNK         0.3472 
    113 H113       22.5348  -27.5882  -39.6212 H         1 UNK         0.3472 
    114 H114       21.8315  -29.6632  -41.8774 H         1 UNK         0.0970 
    115 H115       21.0831  -28.3888  -40.9602 H         1 UNK         0.0970 
    116 H116       20.7564  -31.6302  -42.7433 H         1 UNK         0.0612 
    117 H117       19.0535  -31.9959  -42.7933 H         1 UNK         0.0612 
@<TRIPOS>BOND
     1    1    2 1    
     2    1   62 1    
     3    1   63 1    
     4    1   64 1    
     5    2    3 2    
     6    2    4 am   BACKBONE|DICT|INTERRES
     7    4    5 1    
     8    4   65 1    
     9    5    6 1    
    10    5   25 1    
    11    5   66 1    
    12    6    7 1    
    13    6   67 1    
    14    6   68 1    
    15    7    8 1    
    16    8    9 1    
    17    8   69 1    
    18    8   70 1    
    19    9   10 ar   
    20    9   14 ar   
    21   10   11 ar   
    22   10   71 1    
    23   11   12 ar   
    24   11   61 1    
    25   12   13 ar   
    26   12   72 1    
    27   13   14 ar   
    28   13   15 1    
    29   14   73 1    
    30   15   16 1    
    31   15   74 1    
    32   15   75 1    
    33   16   17 1    
    34   17   18 1    
    35   17   76 1    
    36   17   77 1    
    37   18   19 1    
    38   18   27 1    
    39   18   78 1    
    40   19   20 am   BACKBONE|DICT|INTERRES
    41   19   79 1    
    42   20   21 2    
    43   20   22 1    
    44   22   23 1    
    45   22   24 1    
    46   22   80 1    
    47   23   81 1    
    48   23   82 1    
    49   23   83 1    
    50   24   25 am   BACKBONE|DICT|INTERRES
    51   24   84 1    
    52   25   26 2    
    53   27   28 2    
    54   27   29 am   BACKBONE|DICT|INTERRES
    55   29   30 1    
    56   29   85 1    
    57   30   31 1    
    58   30   32 1    
    59   30   86 1    
    60   31   87 1    
    61   31   88 1    
    62   31   89 1    
    63   32   33 2    
    64   32   34 am   BACKBONE|DICT|INTERRES
    65   34   35 1    
    66   34   90 1    
    67   35   36 1    
    68   35   37 1    
    69   35   91 1    
    70   36   92 1    
    71   36   93 1    
    72   36   94 1    
    73   37   38 2    
    74   37   39 am   BACKBONE|DICT|INTERRES
    75   39   40 1    
    76   39   95 1    
    77   40   41 1    
    78   40   42 1    
    79   40   96 1    
    80   41   97 1    
    81   41   98 1    
    82   41   99 1    
    83   42   43 2    
    84   42   44 am   BACKBONE|DICT|INTERRES
    85   44   45 1    
    86   44  100 1    
    87   45   46 1    
    88   45   47 1    
    89   45  101 1    
    90   46  102 1    
    91   46  103 1    
    92   46  104 1    
    93   47   48 2    
    94   47   49 am   BACKBONE|DICT|INTERRES
    95   49   50 1    
    96   49  105 1    
    97   50   51 1    
    98   50   52 1    
    99   50  106 1    
   100   51  107 1    
   101   51  108 1    
   102   51  109 1    
   103   52   53 2    
   104   52   54 am   BACKBONE|DICT|INTERRES
   105   54   55 1    
   106   54  110 1    
   107   55   56 1    
   108   55   59 1    
   109   55  111 1    
   110   56   57 am   BACKBONE|DICT|INTERRES
   111   56   58 2    
   112   57  112 1    
   113   57  113 1    
   114   59   60 1    
   115   59  114 1    
   116   59  115 1    
   117   60   61 1    
   118   61  116 1    
   119   61  117 1    
@<TRIPOS>SUBSTRUCTURE
     1 UNK         1 GROUP             0       ****    0 ROOT    
