@<TRIPOS>MOLECULE
3R8
117   119    1
SMALL
USER_CHARGES


@<TRIPOS>ATOM
      1 CA         15.8624  -29.0282  -41.3894 C.3       0 UNK        -0.2013 
      2 C          15.3438  -28.0578  -42.4391 C.2       0 UNK         0.4866 
      3 O          14.8692  -26.9760  -42.0917 O.2       0 UNK        -0.5176 
      4 N          15.4183  -28.4408  -43.7202 N.am      1 UNK        -0.4884 
      5 CA         14.9793  -27.6407  -44.8707 C.3       1 UNK         0.0853 
      6 C6         14.8029  -28.4852  -46.1680 C.3       10 UNK        -0.0849 
      7 S7         15.9451  -29.9001  -46.3819 S.3       10 UNK        -0.2776 
      8 C8         17.4799  -29.1247  -47.0085 C.3       10 UNK         0.0316 
      9 C9         18.7229  -29.3186  -46.1301 C.ar      10 UNK        -0.0863 
     10 C10        18.7087  -30.0482  -44.9313 C.ar      10 UNK        -0.1009 
     11 C11        19.8704  -30.2074  -44.1712 C.ar      10 UNK        -0.0712 
     12 C12        21.0650  -29.6331  -44.6110 C.ar      10 UNK        -0.0894 
     13 C13        21.0987  -28.8923  -45.7965 C.ar      10 UNK        -0.0745 
     14 C14        19.9302  -28.7497  -46.5527 C.ar      10 UNK        -0.0972 
     15 C15        22.4005  -28.2549  -46.2657 C.3       10 UNK         0.0209 
     16 S16        22.4028  -26.4422  -46.0644 S.3       10 UNK        -0.2568 
     17 C17        22.4615  -26.2755  -44.2463 C.3       10 UNK        -0.0983 
     18 CA         21.7501  -24.9945  -43.7137 C.3       3 UNK         0.0876 
     19 N          20.3783  -24.8372  -44.2151 N.am      3 UNK        -0.4424 
     20 C          19.3655  -25.7076  -44.1047 C.2       2 UNK         0.4918 
     21 O          19.3951  -26.7431  -43.4357 O.2       2 UNK        -0.4875 
     22 CA         18.1096  -25.3640  -44.9207 C.3       2 UNK         0.0481 
     23 CB         18.4456  -25.1669  -46.4181 C.3       2 UNK        -0.1831 
     24 N          17.1291  -26.4346  -44.7551 N.am      2 UNK        -0.4498 
     25 C          15.8428  -26.3862  -45.1195 C.2       1 UNK         0.5027 
     26 O          15.3198  -25.3992  -45.6407 O.2       1 UNK        -0.4969 
     27 C          21.8563  -24.8909  -42.1739 C.2       3 UNK         0.5005 
     28 O          20.8516  -24.7865  -41.4640 O.2       3 UNK        -0.5279 
     29 N          23.1027  -24.9145  -41.6889 N.am      4 UNK        -0.4463 
     30 CA         23.4759  -25.0303  -40.2773 C.3       4 UNK         0.0283 
     31 CB         23.7914  -23.6353  -39.7040 C.3       4 UNK        -0.1875 
     32 C          24.6491  -26.0191  -40.1335 C.2       4 UNK         0.4949 
     33 O          25.4770  -25.8724  -39.2330 O.2       4 UNK        -0.5039 
     34 N          24.7113  -26.9936  -41.0485 N.am      5 UNK        -0.4663 
     35 CA         25.7151  -28.0442  -41.1625 C.3       5 UNK         0.0242 
     36 CB         27.0433  -27.4592  -41.6868 C.3       5 UNK        -0.1982 
     37 C          25.1652  -29.1102  -42.1217 C.2       5 UNK         0.5017 
     38 O          24.1835  -28.8411  -42.8207 O.2       5 UNK        -0.5012 
     39 N          25.8390  -30.2688  -42.1502 N.am      6 UNK        -0.4439 
     40 CA         25.5587  -31.4783  -42.9372 C.3       6 UNK         0.0297 
     41 CB         25.4218  -31.1760  -44.4445 C.3       6 UNK        -0.2006 
     42 C          24.3441  -32.2685  -42.4193 C.2       6 UNK         0.4892 
     43 O          23.3281  -31.6838  -42.0406 O.2       6 UNK        -0.5089 
     44 N          24.4761  -33.6035  -42.4328 N.am      7 UNK        -0.4243 
     45 CA         23.4843  -34.5890  -41.9836 C.3       7 UNK         0.0196 
     46 CB         22.3275  -34.6825  -43.0075 C.3       7 UNK        -0.2007 
     47 C          23.0315  -34.3224  -40.5320 C.2       7 UNK         0.5020 
     48 O          23.8823  -34.1587  -39.6551 O.2       7 UNK        -0.5147 
     49 N          21.7147  -34.2618  -40.3014 N.am      8 UNK        -0.4734 
     50 CA         21.1103  -33.9292  -39.0087 C.3       8 UNK         0.0238 
     51 CB         19.6635  -34.4547  -38.9927 C.3       8 UNK        -0.1912 
     52 C          21.1371  -32.4219  -38.6818 C.2       8 UNK         0.5038 
     53 O          20.8631  -32.0634  -37.5350 O.2       8 UNK        -0.5046 
     54 N          21.4325  -31.5704  -39.6746 N.am      9 UNK        -0.4200 
     55 CA         21.4307  -30.1030  -39.5472 C.3       9 UNK         0.0839 
     56 C          22.7470  -29.5185  -38.9617 C.2       9 UNK         0.5513 
     57 N          23.8135  -30.2965  -38.8043 N.am      9 UNK        -0.7519 
     58 O          22.7884  -28.3412  -38.6140 O.2       9 UNK        -0.4960 
     59 C59        21.0326  -29.4058  -40.8764 C.3       10 UNK        -0.0876 
     60 S60        19.3887  -29.9526  -41.4598 S.3       10 UNK        -0.2414 
     61 C61        19.8238  -31.0069  -42.8781 C.3       10 UNK         0.0169 
     62 H62        16.2566  -29.9407  -41.8369 H         1 UNK         0.0903 
     63 H63        16.6609  -28.5621  -40.8124 H         1 UNK         0.0903 
     64 H64        15.0622  -29.3044  -40.7035 H         1 UNK         0.0903 
     65 H65        15.8066  -29.3434  -43.9575 H         1 UNK         0.3096 
     66 H66        13.9913  -27.2498  -44.6146 H         1 UNK         0.1121 
     67 H67        13.8003  -28.9157  -46.1550 H         1 UNK         0.0849 
     68 H68        14.8212  -27.8648  -47.0672 H         1 UNK         0.0849 
     69 H69        17.6864  -29.5458  -47.9937 H         1 UNK         0.0865 
     70 H70        17.3171  -28.0581  -47.1666 H         1 UNK         0.0865 
     71 H71        17.8005  -30.5068  -44.5709 H         1 UNK         0.1346 
     72 H72        21.9654  -29.7533  -44.0232 H         1 UNK         0.1412 
     73 H73        19.9642  -28.1842  -47.4744 H         1 UNK         0.1426 
     74 H74        22.5566  -28.4927  -47.3191 H         1 UNK         0.0716 
     75 H75        23.2531  -28.6733  -45.7279 H         1 UNK         0.0716 
     76 H76        22.0263  -27.1629  -43.7849 H         1 UNK         0.0695 
     77 H77        23.5163  -26.2846  -43.9689 H         1 UNK         0.0695 
     78 H78        22.2937  -24.1327  -44.1050 H         1 UNK         0.0983 
     79 H79        20.2209  -23.9981  -44.7535 H         1 UNK         0.3095 
     80 H80        17.6884  -24.4417  -44.5157 H         1 UNK         0.0454 
     81 H81        19.1187  -24.3231  -46.5710 H         1 UNK         0.0851 
     82 H82        18.9326  -26.0472  -46.8368 H         1 UNK         0.0851 
     83 H83        17.5571  -24.9639  -47.0151 H         1 UNK         0.0851 
     84 H84        17.4914  -27.2588  -44.2878 H         1 UNK         0.2976 
     85 H85        23.8769  -24.9561  -42.3394 H         1 UNK         0.3116 
     86 H86        22.6463  -25.4596  -39.7104 H         1 UNK         0.0646 
     87 H87        24.0261  -23.6923  -38.6401 H         1 UNK         0.0847 
     88 H88        22.9405  -22.9617  -39.8098 H         1 UNK         0.0847 
     89 H89        24.6460  -23.1789  -40.2050 H         1 UNK         0.0847 
     90 H90        23.9565  -27.1033  -41.7161 H         1 UNK         0.3040 
     91 H91        25.8638  -28.4969  -40.1794 H         1 UNK         0.1015 
     92 H92        27.4438  -26.7036  -41.0106 H         1 UNK         0.0786 
     93 H93        26.9176  -26.9971  -42.6675 H         1 UNK         0.0786 
     94 H94        27.8064  -28.2323  -41.7859 H         1 UNK         0.0786 
     95 H95        26.6192  -30.3597  -41.5136 H         1 UNK         0.3172 
     96 H96        26.4422  -32.1069  -42.8106 H         1 UNK         0.0595 
     97 H97        26.2622  -30.5867  -44.8124 H         1 UNK         0.0839 
     98 H98        24.5035  -30.6324  -44.6696 H         1 UNK         0.0839 
     99 H99        25.3935  -32.0995  -45.0242 H         1 UNK         0.0839 
    100 H100       25.3593  -33.9887  -42.7376 H         1 UNK         0.2998 
    101 H101       23.9912  -35.5552  -41.9670 H         1 UNK         0.0822 
    102 H102       22.7092  -34.9017  -44.0051 H         1 UNK         0.0787 
    103 H103       21.6333  -35.4856  -42.7546 H         1 UNK         0.0787 
    104 H104       21.7604  -33.7535  -43.0750 H         1 UNK         0.0787 
    105 H105       21.0838  -34.4019  -41.0781 H         1 UNK         0.3055 
    106 H106       21.6688  -34.4389  -38.2185 H         1 UNK         0.1106 
    107 H107       19.0503  -33.9744  -39.7579 H         1 UNK         0.0828 
    108 H108       19.6284  -35.5324  -39.1590 H         1 UNK         0.0828 
    109 H109       19.1890  -34.2640  -38.0288 H         1 UNK         0.0828 
    110 H110       21.7345  -31.9310  -40.5712 H         1 UNK         0.2931 
    111 H111       20.6576  -29.8392  -38.8222 H         1 UNK         0.0412 
    112 H112       24.6468  -29.9160  -38.3847 H         1 UNK         0.3472 
    113 H113       23.7809  -31.2641  -39.0892 H         1 UNK         0.3472 
    114 H114       21.7850  -29.5801  -41.6464 H         1 UNK         0.0970 
    115 H115       20.9886  -28.3219  -40.7438 H         1 UNK         0.0970 
    116 H116       20.7758  -31.5070  -42.7005 H         1 UNK         0.0612 
    117 H117       19.0787  -31.8003  -42.9618 H         1 UNK         0.0612 
@<TRIPOS>BOND
     1    1    2 1    
     2    1   62 1    
     3    1   63 1    
     4    1   64 1    
     5    2    3 2    
     6    2    4 am   BACKBONE|DICT|INTERRES
     7    4    5 1    
     8    4   65 1    
     9    5    6 1    
    10    5   25 1    
    11    5   66 1    
    12    6    7 1    
    13    6   67 1    
    14    6   68 1    
    15    7    8 1    
    16    8    9 1    
    17    8   69 1    
    18    8   70 1    
    19    9   10 ar   
    20    9   14 ar   
    21   10   11 ar   
    22   10   71 1    
    23   11   12 ar   
    24   11   61 1    
    25   12   13 ar   
    26   12   72 1    
    27   13   14 ar   
    28   13   15 1    
    29   14   73 1    
    30   15   16 1    
    31   15   74 1    
    32   15   75 1    
    33   16   17 1    
    34   17   18 1    
    35   17   76 1    
    36   17   77 1    
    37   18   19 1    
    38   18   27 1    
    39   18   78 1    
    40   19   20 am   BACKBONE|DICT|INTERRES
    41   19   79 1    
    42   20   21 2    
    43   20   22 1    
    44   22   23 1    
    45   22   24 1    
    46   22   80 1    
    47   23   81 1    
    48   23   82 1    
    49   23   83 1    
    50   24   25 am   BACKBONE|DICT|INTERRES
    51   24   84 1    
    52   25   26 2    
    53   27   28 2    
    54   27   29 am   BACKBONE|DICT|INTERRES
    55   29   30 1    
    56   29   85 1    
    57   30   31 1    
    58   30   32 1    
    59   30   86 1    
    60   31   87 1    
    61   31   88 1    
    62   31   89 1    
    63   32   33 2    
    64   32   34 am   BACKBONE|DICT|INTERRES
    65   34   35 1    
    66   34   90 1    
    67   35   36 1    
    68   35   37 1    
    69   35   91 1    
    70   36   92 1    
    71   36   93 1    
    72   36   94 1    
    73   37   38 2    
    74   37   39 am   BACKBONE|DICT|INTERRES
    75   39   40 1    
    76   39   95 1    
    77   40   41 1    
    78   40   42 1    
    79   40   96 1    
    80   41   97 1    
    81   41   98 1    
    82   41   99 1    
    83   42   43 2    
    84   42   44 am   BACKBONE|DICT|INTERRES
    85   44   45 1    
    86   44  100 1    
    87   45   46 1    
    88   45   47 1    
    89   45  101 1    
    90   46  102 1    
    91   46  103 1    
    92   46  104 1    
    93   47   48 2    
    94   47   49 am   BACKBONE|DICT|INTERRES
    95   49   50 1    
    96   49  105 1    
    97   50   51 1    
    98   50   52 1    
    99   50  106 1    
   100   51  107 1    
   101   51  108 1    
   102   51  109 1    
   103   52   53 2    
   104   52   54 am   BACKBONE|DICT|INTERRES
   105   54   55 1    
   106   54  110 1    
   107   55   56 1    
   108   55   59 1    
   109   55  111 1    
   110   56   57 am   BACKBONE|DICT|INTERRES
   111   56   58 2    
   112   57  112 1    
   113   57  113 1    
   114   59   60 1    
   115   59  114 1    
   116   59  115 1    
   117   60   61 1    
   118   61  116 1    
   119   61  117 1    
@<TRIPOS>SUBSTRUCTURE
     1 UNK         1 GROUP             0       ****    0 ROOT    
