@<TRIPOS>MOLECULE
3R8
117   119    1
SMALL
USER_CHARGES


@<TRIPOS>ATOM
      1 CA         13.8892  -22.4081  -41.9629 C.3       0 UNK        -0.2013 
      2 C          14.8338  -23.2593  -42.7985 C.2       0 UNK         0.4866 
      3 O          15.5083  -22.7346  -43.6852 O.2       0 UNK        -0.5176 
      4 N          14.8824  -24.5701  -42.5294 N.am      1 UNK        -0.4884 
      5 CA         15.7836  -25.5221  -43.1843 C.3       1 UNK         0.0853 
      6 C6         15.3150  -26.9809  -42.9458 C.3       10 UNK        -0.0849 
      7 S7         16.0811  -28.1721  -44.0962 S.3       10 UNK        -0.2776 
      8 C8         17.3840  -28.8823  -43.0309 C.3       10 UNK         0.0316 
      9 C9         18.3968  -29.7443  -43.7789 C.ar      10 UNK        -0.0863 
     10 C10        18.9335  -30.8724  -43.1516 C.ar      10 UNK        -0.1009 
     11 C11        19.9167  -31.6439  -43.7804 C.ar      10 UNK        -0.0712 
     12 C12        20.3527  -31.2874  -45.0596 C.ar      10 UNK        -0.0894 
     13 C13        19.8231  -30.1658  -45.7045 C.ar      10 UNK        -0.0745 
     14 C14        18.8500  -29.3981  -45.0571 C.ar      10 UNK        -0.0972 
     15 C15        20.3002  -29.7954  -47.1045 C.3       10 UNK         0.0209 
     16 S16        20.8086  -28.0514  -47.2564 S.3       10 UNK        -0.2568 
     17 C17        22.2354  -27.9767  -46.1270 C.3       10 UNK        -0.0983 
     18 CA         22.4863  -26.5507  -45.5587 C.3       3 UNK         0.0876 
     19 N          21.5288  -26.1731  -44.5195 N.am      3 UNK        -0.4424 
     20 C          20.3563  -25.5569  -44.6794 C.2       2 UNK         0.4918 
     21 O          19.8655  -25.2479  -45.7674 O.2       2 UNK        -0.4875 
     22 CA         19.6197  -25.1846  -43.3882 C.3       2 UNK         0.0481 
     23 CB         20.0271  -23.7762  -42.9149 C.3       2 UNK        -0.1831 
     24 N          18.1829  -25.2548  -43.6353 N.am      2 UNK        -0.4498 
     25 C          17.2318  -25.3061  -42.6966 C.2       1 UNK         0.5027 
     26 O          17.4564  -25.2350  -41.4854 O.2       1 UNK        -0.4969 
     27 C          23.8817  -26.4643  -44.9121 C.2       3 UNK         0.5005 
     28 O          23.9838  -26.3112  -43.6895 O.2       3 UNK        -0.5279 
     29 N          24.9379  -26.6359  -45.7219 N.am      4 UNK        -0.4463 
     30 CA         26.3456  -26.6886  -45.2931 C.3       4 UNK         0.0283 
     31 CB         27.2462  -26.8186  -46.5321 C.3       4 UNK        -0.1875 
     32 C          26.6701  -27.8040  -44.2756 C.2       4 UNK         0.4949 
     33 O          27.6693  -27.7017  -43.5648 O.2       4 UNK        -0.5039 
     34 N          25.8025  -28.8228  -44.1941 N.am      5 UNK        -0.4663 
     35 CA         25.8043  -29.8753  -43.1742 C.3       5 UNK         0.0242 
     36 CB         24.9080  -31.0280  -43.6634 C.3       5 UNK        -0.1982 
     37 C          25.3484  -29.4005  -41.7772 C.2       5 UNK         0.5017 
     38 O          25.3590  -30.2096  -40.8503 O.2       5 UNK        -0.5012 
     39 N          24.9100  -28.1363  -41.6474 N.am      6 UNK        -0.4439 
     40 CA         24.3930  -27.4896  -40.4314 C.3       6 UNK         0.0297 
     41 CB         25.4876  -27.3875  -39.3478 C.3       6 UNK        -0.2006 
     42 C          23.0922  -28.1322  -39.9091 C.2       6 UNK         0.4892 
     43 O          22.8218  -28.0885  -38.7082 O.2       6 UNK        -0.5089 
     44 N          22.3224  -28.7240  -40.8351 N.am      7 UNK        -0.4243 
     45 CA         21.0782  -29.4723  -40.6310 C.3       7 UNK         0.0196 
     46 CB         19.9465  -28.5445  -40.1411 C.3       7 UNK        -0.2007 
     47 C          21.2333  -30.7383  -39.7613 C.2       7 UNK         0.5020 
     48 O          20.2497  -31.2063  -39.1843 O.2       7 UNK        -0.5147 
     49 N          22.4501  -31.2983  -39.6940 N.am      8 UNK        -0.4734 
     50 CA         22.8043  -32.4673  -38.8829 C.3       8 UNK         0.0238 
     51 CB         24.3232  -32.4506  -38.6283 C.3       8 UNK        -0.1912 
     52 C          22.3231  -33.7991  -39.4959 C.2       8 UNK         0.5038 
     53 O          23.1400  -34.6783  -39.7780 O.2       8 UNK        -0.5046 
     54 N          21.0067  -33.9281  -39.6842 N.am      9 UNK        -0.4200 
     55 CA         20.3279  -35.1485  -40.1456 C.3       9 UNK         0.0839 
     56 C          18.9373  -35.3812  -39.4873 C.2       9 UNK         0.5513 
     57 N          18.5089  -34.5715  -38.5246 N.am      9 UNK        -0.7519 
     58 O          18.2426  -36.3334  -39.8336 O.2       9 UNK        -0.4960 
     59 C59        20.3270  -35.2856  -41.6941 C.3       10 UNK        -0.0876 
     60 S60        19.2894  -34.0562  -42.5588 S.3       10 UNK        -0.2414 
     61 C61        20.5384  -32.8354  -43.0640 C.3       10 UNK         0.0169 
     62 H62        14.4485  -21.6370  -41.4338 H         1 UNK         0.0903 
     63 H63        13.1577  -21.9185  -42.6053 H         1 UNK         0.0903 
     64 H64        13.3490  -23.0014  -41.2253 H         1 UNK         0.0903 
     65 H65        14.3312  -24.9396  -41.7675 H         1 UNK         0.3096 
     66 H66        15.7421  -25.3214  -44.2579 H         1 UNK         0.1121 
     67 H67        14.2373  -27.0483  -43.1041 H         1 UNK         0.0849 
     68 H68        15.4795  -27.2899  -41.9112 H         1 UNK         0.0849 
     69 H69        16.9023  -29.4625  -42.2421 H         1 UNK         0.0865 
     70 H70        17.9320  -28.0820  -42.5344 H         1 UNK         0.0865 
     71 H71        18.6058  -31.1419  -42.1563 H         1 UNK         0.1346 
     72 H72        21.1118  -31.8803  -45.5515 H         1 UNK         0.1412 
     73 H73        18.4567  -28.5202  -45.5509 H         1 UNK         0.1426 
     74 H74        19.4903  -29.9859  -47.8097 H         1 UNK         0.0716 
     75 H75        21.1334  -30.4286  -47.4136 H         1 UNK         0.0716 
     76 H76        23.0907  -28.3380  -46.7003 H         1 UNK         0.0695 
     77 H77        22.0995  -28.6869  -45.3096 H         1 UNK         0.0695 
     78 H78        22.4535  -25.8144  -46.3650 H         1 UNK         0.0983 
     79 H79        21.9058  -26.2882  -43.5870 H         1 UNK         0.3095 
     80 H80        19.8764  -25.9151  -42.6180 H         1 UNK         0.0454 
     81 H81        19.7494  -23.0133  -43.6431 H         1 UNK         0.0851 
     82 H82        21.1056  -23.7091  -42.7660 H         1 UNK         0.0851 
     83 H83        19.5567  -23.5190  -41.9661 H         1 UNK         0.0851 
     84 H84        17.9367  -25.3317  -44.6150 H         1 UNK         0.2976 
     85 H85        24.7714  -26.7554  -46.7117 H         1 UNK         0.3116 
     86 H86        26.5719  -25.7382  -44.8052 H         1 UNK         0.0646 
     87 H87        27.0486  -27.7403  -47.0809 H         1 UNK         0.0847 
     88 H88        28.3001  -26.8285  -46.2499 H         1 UNK         0.0847 
     89 H89        27.1066  -25.9815  -47.2165 H         1 UNK         0.0847 
     90 H90        25.0283  -28.8274  -44.8408 H         1 UNK         0.3040 
     91 H91        26.8249  -30.2495  -43.0666 H         1 UNK         0.1015 
     92 H92        23.8700  -30.7136  -43.7815 H         1 UNK         0.0786 
     93 H93        24.9170  -31.8604  -42.9579 H         1 UNK         0.0786 
     94 H94        25.2518  -31.4188  -44.6214 H         1 UNK         0.0786 
     95 H95        24.8764  -27.5540  -42.4807 H         1 UNK         0.3172 
     96 H96        24.1271  -26.4731  -40.7251 H         1 UNK         0.0595 
     97 H97        25.1538  -26.7720  -38.5116 H         1 UNK         0.0839 
     98 H98        26.3952  -26.9307  -39.7423 H         1 UNK         0.0839 
     99 H99        25.7515  -28.3653  -38.9437 H         1 UNK         0.0839 
    100 H100       22.6608  -28.6973  -41.7861 H         1 UNK         0.2998 
    101 H101       20.8043  -29.8287  -41.6211 H         1 UNK         0.0822 
    102 H102       18.9871  -29.0633  -40.1389 H         1 UNK         0.0787 
    103 H103       20.1262  -28.1911  -39.1254 H         1 UNK         0.0787 
    104 H104       19.8389  -27.6723  -40.7855 H         1 UNK         0.0787 
    105 H105       23.2128  -30.8613  -40.1966 H         1 UNK         0.3055 
    106 H106       22.3116  -32.3724  -37.9124 H         1 UNK         0.1106 
    107 H107       24.6180  -33.2617  -37.9613 H         1 UNK         0.0828 
    108 H108       24.8884  -32.5678  -39.5538 H         1 UNK         0.0828 
    109 H109       24.6384  -31.5172  -38.1613 H         1 UNK         0.0828 
    110 H110       20.4149  -33.1281  -39.4818 H         1 UNK         0.2931 
    111 H111       20.9139  -35.9888  -39.7681 H         1 UNK         0.0412 
    112 H112       19.0684  -33.8022  -38.1940 H         1 UNK         0.3472 
    113 H113       17.6084  -34.7481  -38.1066 H         1 UNK         0.3472 
    114 H114       19.9704  -36.2778  -41.9760 H         1 UNK         0.0970 
    115 H115       21.3488  -35.2329  -42.0726 H         1 UNK         0.0970 
    116 H116       21.2745  -33.3287  -43.7007 H         1 UNK         0.0612 
    117 H117       21.0762  -32.4805  -42.1855 H         1 UNK         0.0612 
@<TRIPOS>BOND
     1    1    2 1    
     2    1   62 1    
     3    1   63 1    
     4    1   64 1    
     5    2    3 2    
     6    2    4 am   BACKBONE|DICT|INTERRES
     7    4    5 1    
     8    4   65 1    
     9    5    6 1    
    10    5   25 1    
    11    5   66 1    
    12    6    7 1    
    13    6   67 1    
    14    6   68 1    
    15    7    8 1    
    16    8    9 1    
    17    8   69 1    
    18    8   70 1    
    19    9   10 ar   
    20    9   14 ar   
    21   10   11 ar   
    22   10   71 1    
    23   11   12 ar   
    24   11   61 1    
    25   12   13 ar   
    26   12   72 1    
    27   13   14 ar   
    28   13   15 1    
    29   14   73 1    
    30   15   16 1    
    31   15   74 1    
    32   15   75 1    
    33   16   17 1    
    34   17   18 1    
    35   17   76 1    
    36   17   77 1    
    37   18   19 1    
    38   18   27 1    
    39   18   78 1    
    40   19   20 am   BACKBONE|DICT|INTERRES
    41   19   79 1    
    42   20   21 2    
    43   20   22 1    
    44   22   23 1    
    45   22   24 1    
    46   22   80 1    
    47   23   81 1    
    48   23   82 1    
    49   23   83 1    
    50   24   25 am   BACKBONE|DICT|INTERRES
    51   24   84 1    
    52   25   26 2    
    53   27   28 2    
    54   27   29 am   BACKBONE|DICT|INTERRES
    55   29   30 1    
    56   29   85 1    
    57   30   31 1    
    58   30   32 1    
    59   30   86 1    
    60   31   87 1    
    61   31   88 1    
    62   31   89 1    
    63   32   33 2    
    64   32   34 am   BACKBONE|DICT|INTERRES
    65   34   35 1    
    66   34   90 1    
    67   35   36 1    
    68   35   37 1    
    69   35   91 1    
    70   36   92 1    
    71   36   93 1    
    72   36   94 1    
    73   37   38 2    
    74   37   39 am   BACKBONE|DICT|INTERRES
    75   39   40 1    
    76   39   95 1    
    77   40   41 1    
    78   40   42 1    
    79   40   96 1    
    80   41   97 1    
    81   41   98 1    
    82   41   99 1    
    83   42   43 2    
    84   42   44 am   BACKBONE|DICT|INTERRES
    85   44   45 1    
    86   44  100 1    
    87   45   46 1    
    88   45   47 1    
    89   45  101 1    
    90   46  102 1    
    91   46  103 1    
    92   46  104 1    
    93   47   48 2    
    94   47   49 am   BACKBONE|DICT|INTERRES
    95   49   50 1    
    96   49  105 1    
    97   50   51 1    
    98   50   52 1    
    99   50  106 1    
   100   51  107 1    
   101   51  108 1    
   102   51  109 1    
   103   52   53 2    
   104   52   54 am   BACKBONE|DICT|INTERRES
   105   54   55 1    
   106   54  110 1    
   107   55   56 1    
   108   55   59 1    
   109   55  111 1    
   110   56   57 am   BACKBONE|DICT|INTERRES
   111   56   58 2    
   112   57  112 1    
   113   57  113 1    
   114   59   60 1    
   115   59  114 1    
   116   59  115 1    
   117   60   61 1    
   118   61  116 1    
   119   61  117 1    
@<TRIPOS>SUBSTRUCTURE
     1 UNK         1 GROUP             0       ****    0 ROOT    
