@<TRIPOS>MOLECULE
3R8
117   119    1
SMALL
USER_CHARGES


@<TRIPOS>ATOM
      1 CA         15.7322  -23.0662  -47.6485 C.3       0 UNK        -0.2013 
      2 C          17.0703  -23.1920  -46.9354 C.2       0 UNK         0.4866 
      3 O          17.4744  -22.2717  -46.2235 O.2       0 UNK        -0.5176 
      4 N          17.7652  -24.3194  -47.1279 N.am      1 UNK        -0.4884 
      5 CA         19.0280  -24.6511  -46.4608 C.3       1 UNK         0.0853 
      6 C6         19.8111  -25.7334  -47.2514 C.3       10 UNK        -0.0849 
      7 S7         18.9154  -27.3165  -47.4636 S.3       10 UNK        -0.2776 
      8 C8         19.8440  -28.3740  -46.3066 C.3       10 UNK         0.0316 
      9 C9         18.9988  -29.4741  -45.6786 C.ar      10 UNK        -0.0863 
     10 C10        19.4853  -30.7840  -45.6245 C.ar      10 UNK        -0.1009 
     11 C11        18.7965  -31.7705  -44.9128 C.ar      10 UNK        -0.0712 
     12 C12        17.5858  -31.4509  -44.2932 C.ar      10 UNK        -0.0894 
     13 C13        17.0890  -30.1470  -44.3373 C.ar      10 UNK        -0.0745 
     14 C14        17.7907  -29.1663  -45.0444 C.ar      10 UNK        -0.0972 
     15 C15        15.8366  -29.7869  -43.5536 C.3       10 UNK         0.0209 
     16 S16        16.1757  -28.5683  -42.2400 S.3       10 UNK        -0.2568 
     17 C17        17.5509  -29.3280  -41.2958 C.3       10 UNK        -0.0983 
     18 CA         18.9626  -28.8251  -41.7164 C.3       3 UNK         0.0876 
     19 N          18.9977  -27.3752  -41.9375 N.am      3 UNK        -0.4424 
     20 C          19.9900  -26.7045  -42.5334 C.2       2 UNK         0.4918 
     21 O          21.0338  -27.2192  -42.9415 O.2       2 UNK        -0.4875 
     22 CA         19.7636  -25.1950  -42.7126 C.3       2 UNK         0.0481 
     23 CB         20.7988  -24.3734  -41.9284 C.3       2 UNK        -0.1831 
     24 N          19.8038  -24.8299  -44.1300 N.am      2 UNK        -0.4498 
     25 C          18.7914  -25.0425  -44.9828 C.2       1 UNK         0.5027 
     26 O          17.7100  -25.5305  -44.6416 O.2       1 UNK        -0.4969 
     27 C          20.0332  -29.2655  -40.6980 C.2       3 UNK         0.5005 
     28 O          20.7265  -30.2610  -40.9139 O.2       3 UNK        -0.5279 
     29 N          20.1686  -28.4838  -39.6201 N.am      4 UNK        -0.4463 
     30 CA         21.2160  -28.6187  -38.6125 C.3       4 UNK         0.0283 
     31 CB         20.6502  -28.1872  -37.2496 C.3       4 UNK        -0.1875 
     32 C          22.4222  -27.7460  -38.9861 C.2       4 UNK         0.4949 
     33 O          22.2681  -26.7570  -39.7069 O.2       4 UNK        -0.5039 
     34 N          23.5923  -28.1129  -38.4491 N.am      5 UNK        -0.4663 
     35 CA         24.8940  -27.4345  -38.5343 C.3       5 UNK         0.0242 
     36 CB         24.8406  -26.0304  -37.8986 C.3       5 UNK        -0.1982 
     37 C          25.5153  -27.3847  -39.9415 C.2       5 UNK         0.5017 
     38 O          26.6531  -27.8271  -40.1012 O.2       5 UNK        -0.5012 
     39 N          24.7832  -26.8410  -40.9225 N.am      6 UNK        -0.4439 
     40 CA         25.2233  -26.7149  -42.3131 C.3       6 UNK         0.0297 
     41 CB         24.3754  -25.6701  -43.0554 C.3       6 UNK        -0.2006 
     42 C          25.1973  -28.0731  -43.0256 C.2       6 UNK         0.4892 
     43 O          26.2448  -28.5357  -43.4792 O.2       6 UNK        -0.5089 
     44 N          24.0105  -28.6931  -43.0903 N.am      7 UNK        -0.4243 
     45 CA         23.8419  -30.0566  -43.5909 C.3       7 UNK         0.0196 
     46 CB         22.4090  -30.2593  -44.1010 C.3       7 UNK        -0.2007 
     47 C          24.2096  -31.0809  -42.5101 C.2       7 UNK         0.5020 
     48 O          25.0783  -31.9204  -42.7461 O.2       7 UNK        -0.5147 
     49 N          23.5488  -30.9772  -41.3456 N.am      8 UNK        -0.4734 
     50 CA         23.7038  -31.8349  -40.1619 C.3       8 UNK         0.0238 
     51 CB         25.0938  -31.6386  -39.5197 C.3       8 UNK        -0.1912 
     52 C          23.3684  -33.3130  -40.4481 C.2       8 UNK         0.5038 
     53 O          24.0321  -34.2133  -39.9306 O.2       8 UNK        -0.5046 
     54 N          22.3426  -33.5257  -41.2808 N.am      9 UNK        -0.4200 
     55 CA         21.8415  -34.8390  -41.7143 C.3       9 UNK         0.0839 
     56 C          21.0468  -35.6341  -40.6363 C.2       9 UNK         0.5513 
     57 N          20.6831  -35.0446  -39.5034 N.am      9 UNK        -0.7519 
     58 O          20.7679  -36.8149  -40.8289 O.2       9 UNK        -0.4960 
     59 C59        21.0620  -34.7266  -43.0532 C.3       10 UNK        -0.0876 
     60 S60        19.7185  -33.4932  -42.9815 S.3       10 UNK        -0.2414 
     61 C61        19.3950  -33.1592  -44.7428 C.3       10 UNK         0.0169 
     62 H62        15.5084  -23.9449  -48.2534 H         1 UNK         0.0903 
     63 H63        14.9303  -22.9423  -46.9212 H         1 UNK         0.0903 
     64 H64        15.7361  -22.1956  -48.3039 H         1 UNK         0.0903 
     65 H65        17.3717  -25.0629  -47.6881 H         1 UNK         0.3096 
     66 H66        19.6395  -23.7454  -46.4563 H         1 UNK         0.1121 
     67 H67        20.0360  -25.3518  -48.2487 H         1 UNK         0.0849 
     68 H68        20.7861  -25.9102  -46.7937 H         1 UNK         0.0849 
     69 H69        20.7027  -28.7915  -46.8346 H         1 UNK         0.0865 
     70 H70        20.2477  -27.7717  -45.4925 H         1 UNK         0.0865 
     71 H71        20.4303  -31.0246  -46.0911 H         1 UNK         0.1346 
     72 H72        17.0631  -32.2089  -43.7257 H         1 UNK         0.1412 
     73 H73        17.4253  -28.1481  -45.0478 H         1 UNK         0.1426 
     74 H74        15.3871  -30.6735  -43.1036 H         1 UNK         0.0716 
     75 H75        15.0922  -29.3754  -44.2365 H         1 UNK         0.0716 
     76 H76        17.4951  -30.4145  -41.3855 H         1 UNK         0.0695 
     77 H77        17.3638  -29.1056  -40.2435 H         1 UNK         0.0695 
     78 H78        19.2249  -29.3008  -42.6628 H         1 UNK         0.0983 
     79 H79        18.1532  -26.8785  -41.6928 H         1 UNK         0.3095 
     80 H80        18.7798  -24.9357  -42.3146 H         1 UNK         0.0454 
     81 H81        20.8082  -24.6603  -40.8759 H         1 UNK         0.0851 
     82 H82        20.5720  -23.3081  -41.9707 H         1 UNK         0.0851 
     83 H83        21.8080  -24.5135  -42.3098 H         1 UNK         0.0851 
     84 H84        20.6773  -24.4598  -44.4760 H         1 UNK         0.2976 
     85 H85        19.6121  -27.6427  -39.5737 H         1 UNK         0.3116 
     86 H86        21.5339  -29.6610  -38.5450 H         1 UNK         0.0646 
     87 H87        19.7875  -28.7918  -36.9692 H         1 UNK         0.0847 
     88 H88        20.3398  -27.1413  -37.2522 H         1 UNK         0.0847 
     89 H89        21.3941  -28.3026  -36.4601 H         1 UNK         0.0847 
     90 H90        23.5963  -28.9493  -37.8814 H         1 UNK         0.3040 
     91 H91        25.5729  -28.0335  -37.9242 H         1 UNK         0.1015 
     92 H92        25.8297  -25.5705  -37.8891 H         1 UNK         0.0786 
     93 H93        24.4962  -26.0771  -36.8655 H         1 UNK         0.0786 
     94 H94        24.1773  -25.3565  -38.4415 H         1 UNK         0.0786 
     95 H95        23.8320  -26.5616  -40.6895 H         1 UNK         0.3172 
     96 H96        26.2551  -26.3563  -42.3097 H         1 UNK         0.0595 
     97 H97        24.7548  -25.5127  -44.0658 H         1 UNK         0.0839 
     98 H98        24.3973  -24.7058  -42.5476 H         1 UNK         0.0839 
     99 H99        23.3364  -25.9809  -43.1482 H         1 UNK         0.0839 
    100 H100       23.1885  -28.2289  -42.7247 H         1 UNK         0.2998 
    101 H101       24.5145  -30.2122  -44.4377 H         1 UNK         0.0822 
    102 H102       22.2483  -31.2920  -44.4134 H         1 UNK         0.0787 
    103 H103       22.2148  -29.6216  -44.9622 H         1 UNK         0.0787 
    104 H104       21.6607  -30.0261  -43.3450 H         1 UNK         0.0787 
    105 H105       22.7742  -30.3233  -41.2971 H         1 UNK         0.3055 
    106 H106       22.9579  -31.4985  -39.4407 H         1 UNK         0.1106 
    107 H107       25.2994  -30.5856  -39.3289 H         1 UNK         0.0828 
    108 H108       25.1608  -32.1608  -38.5646 H         1 UNK         0.0828 
    109 H109       25.8914  -32.0236  -40.1557 H         1 UNK         0.0828 
    110 H110       21.8316  -32.7269  -41.6313 H         1 UNK         0.2931 
    111 H111       22.7213  -35.4512  -41.9219 H         1 UNK         0.0412 
    112 H112       20.8980  -34.0741  -39.3425 H         1 UNK         0.3472 
    113 H113       20.1742  -35.5725  -38.8119 H         1 UNK         0.3472 
    114 H114       20.6513  -35.6913  -43.3574 H         1 UNK         0.0970 
    115 H115       21.7572  -34.4382  -43.8430 H         1 UNK         0.0970 
    116 H116       20.3217  -33.2468  -45.3117 H         1 UNK         0.0612 
    117 H117       18.7092  -33.9104  -45.1366 H         1 UNK         0.0612 
@<TRIPOS>BOND
     1    1    2 1    
     2    1   62 1    
     3    1   63 1    
     4    1   64 1    
     5    2    3 2    
     6    2    4 am   BACKBONE|DICT|INTERRES
     7    4    5 1    
     8    4   65 1    
     9    5    6 1    
    10    5   25 1    
    11    5   66 1    
    12    6    7 1    
    13    6   67 1    
    14    6   68 1    
    15    7    8 1    
    16    8    9 1    
    17    8   69 1    
    18    8   70 1    
    19    9   10 ar   
    20    9   14 ar   
    21   10   11 ar   
    22   10   71 1    
    23   11   12 ar   
    24   11   61 1    
    25   12   13 ar   
    26   12   72 1    
    27   13   14 ar   
    28   13   15 1    
    29   14   73 1    
    30   15   16 1    
    31   15   74 1    
    32   15   75 1    
    33   16   17 1    
    34   17   18 1    
    35   17   76 1    
    36   17   77 1    
    37   18   19 1    
    38   18   27 1    
    39   18   78 1    
    40   19   20 am   BACKBONE|DICT|INTERRES
    41   19   79 1    
    42   20   21 2    
    43   20   22 1    
    44   22   23 1    
    45   22   24 1    
    46   22   80 1    
    47   23   81 1    
    48   23   82 1    
    49   23   83 1    
    50   24   25 am   BACKBONE|DICT|INTERRES
    51   24   84 1    
    52   25   26 2    
    53   27   28 2    
    54   27   29 am   BACKBONE|DICT|INTERRES
    55   29   30 1    
    56   29   85 1    
    57   30   31 1    
    58   30   32 1    
    59   30   86 1    
    60   31   87 1    
    61   31   88 1    
    62   31   89 1    
    63   32   33 2    
    64   32   34 am   BACKBONE|DICT|INTERRES
    65   34   35 1    
    66   34   90 1    
    67   35   36 1    
    68   35   37 1    
    69   35   91 1    
    70   36   92 1    
    71   36   93 1    
    72   36   94 1    
    73   37   38 2    
    74   37   39 am   BACKBONE|DICT|INTERRES
    75   39   40 1    
    76   39   95 1    
    77   40   41 1    
    78   40   42 1    
    79   40   96 1    
    80   41   97 1    
    81   41   98 1    
    82   41   99 1    
    83   42   43 2    
    84   42   44 am   BACKBONE|DICT|INTERRES
    85   44   45 1    
    86   44  100 1    
    87   45   46 1    
    88   45   47 1    
    89   45  101 1    
    90   46  102 1    
    91   46  103 1    
    92   46  104 1    
    93   47   48 2    
    94   47   49 am   BACKBONE|DICT|INTERRES
    95   49   50 1    
    96   49  105 1    
    97   50   51 1    
    98   50   52 1    
    99   50  106 1    
   100   51  107 1    
   101   51  108 1    
   102   51  109 1    
   103   52   53 2    
   104   52   54 am   BACKBONE|DICT|INTERRES
   105   54   55 1    
   106   54  110 1    
   107   55   56 1    
   108   55   59 1    
   109   55  111 1    
   110   56   57 am   BACKBONE|DICT|INTERRES
   111   56   58 2    
   112   57  112 1    
   113   57  113 1    
   114   59   60 1    
   115   59  114 1    
   116   59  115 1    
   117   60   61 1    
   118   61  116 1    
   119   61  117 1    
@<TRIPOS>SUBSTRUCTURE
     1 UNK         1 GROUP             0       ****    0 ROOT    
