@<TRIPOS>MOLECULE
3R8
117   119    1
SMALL
USER_CHARGES


@<TRIPOS>ATOM
      1 CA         14.8022  -21.6410  -46.6532 C.3       0 UNK        -0.2013 
      2 C          15.9857  -22.5816  -46.8253 C.2       0 UNK         0.4866 
      3 O          17.0428  -22.1563  -47.2930 O.2       0 UNK        -0.5176 
      4 N          15.8156  -23.8583  -46.4591 N.am      1 UNK        -0.4884 
      5 CA         16.8675  -24.8795  -46.4877 C.3       1 UNK         0.0853 
      6 C6         16.2600  -26.3037  -46.4356 C.3       10 UNK        -0.0849 
      7 S7         17.3757  -27.5644  -47.1393 S.3       10 UNK        -0.2776 
      8 C8         16.4484  -29.0937  -46.7984 C.3       10 UNK         0.0316 
      9 C9         16.7235  -29.6287  -45.3997 C.ar      10 UNK        -0.0863 
     10 C10        17.7614  -30.5438  -45.1919 C.ar      10 UNK        -0.1009 
     11 C11        17.9958  -31.0717  -43.9190 C.ar      10 UNK        -0.0712 
     12 C12        17.1882  -30.6765  -42.8503 C.ar      10 UNK        -0.0894 
     13 C13        16.1716  -29.7360  -43.0371 C.ar      10 UNK        -0.0745 
     14 C14        15.9324  -29.2282  -44.3178 C.ar      10 UNK        -0.0972 
     15 C15        15.3449  -29.2599  -41.8506 C.3       10 UNK         0.0209 
     16 S16        16.3794  -28.4986  -40.5548 S.3       10 UNK        -0.2568 
     17 C17        17.1047  -27.0684  -41.4293 C.3       10 UNK        -0.0983 
     18 CA         18.5438  -27.3265  -41.9478 C.3       3 UNK         0.0876 
     19 N          18.9586  -26.2723  -42.8730 N.am      3 UNK        -0.4424 
     20 C          20.0985  -26.2205  -43.5735 C.2       2 UNK         0.4918 
     21 O          21.0029  -27.0528  -43.4779 O.2       2 UNK        -0.4875 
     22 CA         20.2178  -25.0502  -44.5737 C.3       2 UNK         0.0481 
     23 CB         21.5562  -25.0462  -45.3343 C.3       2 UNK        -0.1831 
     24 N          19.1288  -25.0715  -45.5544 N.am      2 UNK        -0.4498 
     25 C          17.8726  -24.6616  -45.3374 C.2       1 UNK         0.5027 
     26 O          17.4889  -24.1866  -44.2637 O.2       1 UNK        -0.4969 
     27 C          19.5660  -27.5120  -40.8069 C.2       3 UNK         0.5005 
     28 O          19.7224  -26.6139  -39.9763 O.2       3 UNK        -0.5279 
     29 N          20.2548  -28.6634  -40.8207 N.am      4 UNK        -0.4463 
     30 CA         21.2917  -29.1062  -39.8810 C.3       4 UNK         0.0283 
     31 CB         20.7008  -29.3157  -38.4715 C.3       4 UNK        -0.1875 
     32 C          22.5603  -28.2295  -39.8600 C.2       4 UNK         0.4949 
     33 O          23.3408  -28.3316  -38.9132 O.2       4 UNK        -0.5039 
     34 N          22.7863  -27.4144  -40.9028 N.am      5 UNK        -0.4663 
     35 CA         23.9329  -26.4994  -41.0002 C.3       5 UNK         0.0242 
     36 CB         23.7386  -25.5624  -42.1999 C.3       5 UNK        -0.1982 
     37 C          25.2896  -27.2183  -41.0990 C.2       5 UNK         0.5017 
     38 O          26.2914  -26.6952  -40.6112 O.2       5 UNK        -0.5012 
     39 N          25.2843  -28.4143  -41.7013 N.am      6 UNK        -0.4439 
     40 CA         26.4357  -29.3133  -41.8102 C.3       6 UNK         0.0297 
     41 CB         26.3623  -30.0447  -43.1633 C.3       6 UNK        -0.2006 
     42 C          26.5257  -30.3156  -40.6411 C.2       6 UNK         0.4892 
     43 O          27.3389  -31.2379  -40.7158 O.2       6 UNK        -0.5089 
     44 N          25.6754  -30.1606  -39.6119 N.am      7 UNK        -0.4243 
     45 CA         25.4846  -31.0166  -38.4311 C.3       7 UNK         0.0196 
     46 CB         26.7699  -31.1389  -37.5881 C.3       7 UNK        -0.2007 
     47 C          24.8873  -32.3935  -38.7666 C.2       7 UNK         0.5020 
     48 O          23.8196  -32.7312  -38.2566 O.2       7 UNK        -0.5147 
     49 N          25.5652  -33.1497  -39.6384 N.am      8 UNK        -0.4734 
     50 CA         25.1027  -34.4318  -40.1783 C.3       8 UNK         0.0238 
     51 CB         26.3000  -35.1869  -40.7777 C.3       8 UNK        -0.1912 
     52 C          23.9888  -34.2685  -41.2280 C.2       8 UNK         0.5038 
     53 O          23.1970  -35.1931  -41.4125 O.2       8 UNK        -0.5046 
     54 N          23.9476  -33.0990  -41.8834 N.am      9 UNK        -0.4200 
     55 CA         22.9594  -32.7035  -42.9008 C.3       9 UNK         0.0839 
     56 C          23.0606  -33.4832  -44.2488 C.2       9 UNK         0.5513 
     57 N          24.1812  -34.1296  -44.5485 N.am      9 UNK        -0.7519 
     58 O          22.1281  -33.4869  -45.0477 O.2       9 UNK        -0.4960 
     59 C59        21.5173  -32.6413  -42.3165 C.3       10 UNK        -0.0876 
     60 S60        20.5601  -31.2229  -42.9471 S.3       10 UNK        -0.2414 
     61 C61        19.1242  -32.0604  -43.6811 C.3       10 UNK         0.0169 
     62 H62        13.9304  -22.1520  -46.2450 H         1 UNK         0.0903 
     63 H63        15.0654  -20.8276  -45.9776 H         1 UNK         0.0903 
     64 H64        14.5228  -21.2095  -47.6140 H         1 UNK         0.0903 
     65 H65        14.9378  -24.1415  -46.0470 H         1 UNK         0.3096 
     66 H66        17.4017  -24.7618  -47.4340 H         1 UNK         0.1121 
     67 H67        15.9805  -26.5742  -45.4163 H         1 UNK         0.0849 
     68 H68        15.3387  -26.3380  -47.0199 H         1 UNK         0.0849 
     69 H69        15.3799  -28.9235  -46.9400 H         1 UNK         0.0865 
     70 H70        16.7307  -29.8435  -47.5391 H         1 UNK         0.0865 
     71 H71        18.3849  -30.8480  -46.0218 H         1 UNK         0.1346 
     72 H72        17.3738  -31.0756  -41.8621 H         1 UNK         0.1412 
     73 H73        15.1310  -28.5192  -44.4717 H         1 UNK         0.1426 
     74 H74        14.8133  -30.1114  -41.4238 H         1 UNK         0.0716 
     75 H75        14.5823  -28.5450  -42.1634 H         1 UNK         0.0716 
     76 H76        17.0859  -26.2073  -40.7586 H         1 UNK         0.0695 
     77 H77        16.4490  -26.8076  -42.2620 H         1 UNK         0.0695 
     78 H78        18.5257  -28.2418  -42.5414 H         1 UNK         0.0983 
     79 H79        18.2889  -25.5277  -43.0355 H         1 UNK         0.3095 
     80 H80        20.1585  -24.1221  -44.0013 H         1 UNK         0.0454 
     81 H81        21.7145  -25.9752  -45.8835 H         1 UNK         0.0851 
     82 H82        22.3943  -24.9226  -44.6506 H         1 UNK         0.0851 
     83 H83        21.6059  -24.2228  -46.0468 H         1 UNK         0.0851 
     84 H84        19.3387  -25.5153  -46.4378 H         1 UNK         0.2976 
     85 H85        20.0805  -29.3065  -41.5842 H         1 UNK         0.3116 
     86 H86        21.6203  -30.0822  -40.2401 H         1 UNK         0.0646 
     87 H87        20.4148  -28.3710  -38.0082 H         1 UNK         0.0847 
     88 H88        21.4233  -29.7958  -37.8101 H         1 UNK         0.0847 
     89 H89        19.8190  -29.9556  -38.5017 H         1 UNK         0.0847 
     90 H90        22.1098  -27.3869  -41.6586 H         1 UNK         0.3040 
     91 H91        23.9519  -25.8929  -40.0917 H         1 UNK         0.1015 
     92 H92        23.7183  -26.1191  -43.1374 H         1 UNK         0.0786 
     93 H93        24.5513  -24.8378  -42.2672 H         1 UNK         0.0786 
     94 H94        22.8085  -24.9997  -42.1177 H         1 UNK         0.0786 
     95 H95        24.4054  -28.7467  -42.0721 H         1 UNK         0.3172 
     96 H96        27.3572  -28.7276  -41.7973 H         1 UNK         0.0595 
     97 H97        27.2336  -30.6835  -43.3145 H         1 UNK         0.0839 
     98 H98        26.3393  -29.3381  -43.9932 H         1 UNK         0.0839 
     99 H99        25.4782  -30.6770  -43.2388 H         1 UNK         0.0839 
    100 H100       25.0419  -29.3695  -39.6465 H         1 UNK         0.2998 
    101 H101       24.7460  -30.5003  -37.8152 H         1 UNK         0.0822 
    102 H102       26.5786  -31.6969  -36.6706 H         1 UNK         0.0787 
    103 H103       27.5679  -31.6579  -38.1193 H         1 UNK         0.0787 
    104 H104       27.1453  -30.1576  -37.2977 H         1 UNK         0.0787 
    105 H105       26.4204  -32.7555  -40.0242 H         1 UNK         0.3055 
    106 H106       24.6937  -35.0269  -39.3584 H         1 UNK         0.1106 
    107 H107       25.9915  -36.1530  -41.1800 H         1 UNK         0.0828 
    108 H108       26.7666  -34.6280  -41.5900 H         1 UNK         0.0828 
    109 H109       27.0629  -35.3810  -40.0236 H         1 UNK         0.0828 
    110 H110       24.6586  -32.4182  -41.6665 H         1 UNK         0.2931 
    111 H111       23.2530  -31.6853  -43.1575 H         1 UNK         0.0412 
    112 H112       24.2440  -34.6251  -45.4241 H         1 UNK         0.3472 
    113 H113       24.9594  -34.1335  -43.9095 H         1 UNK         0.3472 
    114 H114       21.5514  -32.5219  -41.2324 H         1 UNK         0.0970 
    115 H115       20.9865  -33.5805  -42.4833 H         1 UNK         0.0970 
    116 H116       18.7750  -32.8501  -43.0140 H         1 UNK         0.0612 
    117 H117       19.4233  -32.5447  -44.6120 H         1 UNK         0.0612 
@<TRIPOS>BOND
     1    1    2 1    
     2    1   62 1    
     3    1   63 1    
     4    1   64 1    
     5    2    3 2    
     6    2    4 am   BACKBONE|DICT|INTERRES
     7    4    5 1    
     8    4   65 1    
     9    5    6 1    
    10    5   25 1    
    11    5   66 1    
    12    6    7 1    
    13    6   67 1    
    14    6   68 1    
    15    7    8 1    
    16    8    9 1    
    17    8   69 1    
    18    8   70 1    
    19    9   10 ar   
    20    9   14 ar   
    21   10   11 ar   
    22   10   71 1    
    23   11   12 ar   
    24   11   61 1    
    25   12   13 ar   
    26   12   72 1    
    27   13   14 ar   
    28   13   15 1    
    29   14   73 1    
    30   15   16 1    
    31   15   74 1    
    32   15   75 1    
    33   16   17 1    
    34   17   18 1    
    35   17   76 1    
    36   17   77 1    
    37   18   19 1    
    38   18   27 1    
    39   18   78 1    
    40   19   20 am   BACKBONE|DICT|INTERRES
    41   19   79 1    
    42   20   21 2    
    43   20   22 1    
    44   22   23 1    
    45   22   24 1    
    46   22   80 1    
    47   23   81 1    
    48   23   82 1    
    49   23   83 1    
    50   24   25 am   BACKBONE|DICT|INTERRES
    51   24   84 1    
    52   25   26 2    
    53   27   28 2    
    54   27   29 am   BACKBONE|DICT|INTERRES
    55   29   30 1    
    56   29   85 1    
    57   30   31 1    
    58   30   32 1    
    59   30   86 1    
    60   31   87 1    
    61   31   88 1    
    62   31   89 1    
    63   32   33 2    
    64   32   34 am   BACKBONE|DICT|INTERRES
    65   34   35 1    
    66   34   90 1    
    67   35   36 1    
    68   35   37 1    
    69   35   91 1    
    70   36   92 1    
    71   36   93 1    
    72   36   94 1    
    73   37   38 2    
    74   37   39 am   BACKBONE|DICT|INTERRES
    75   39   40 1    
    76   39   95 1    
    77   40   41 1    
    78   40   42 1    
    79   40   96 1    
    80   41   97 1    
    81   41   98 1    
    82   41   99 1    
    83   42   43 2    
    84   42   44 am   BACKBONE|DICT|INTERRES
    85   44   45 1    
    86   44  100 1    
    87   45   46 1    
    88   45   47 1    
    89   45  101 1    
    90   46  102 1    
    91   46  103 1    
    92   46  104 1    
    93   47   48 2    
    94   47   49 am   BACKBONE|DICT|INTERRES
    95   49   50 1    
    96   49  105 1    
    97   50   51 1    
    98   50   52 1    
    99   50  106 1    
   100   51  107 1    
   101   51  108 1    
   102   51  109 1    
   103   52   53 2    
   104   52   54 am   BACKBONE|DICT|INTERRES
   105   54   55 1    
   106   54  110 1    
   107   55   56 1    
   108   55   59 1    
   109   55  111 1    
   110   56   57 am   BACKBONE|DICT|INTERRES
   111   56   58 2    
   112   57  112 1    
   113   57  113 1    
   114   59   60 1    
   115   59  114 1    
   116   59  115 1    
   117   60   61 1    
   118   61  116 1    
   119   61  117 1    
@<TRIPOS>SUBSTRUCTURE
     1 UNK         1 GROUP             0       ****    0 ROOT    
