@<TRIPOS>MOLECULE
3R8
117   119    1
SMALL
USER_CHARGES


@<TRIPOS>ATOM
      1 CA         18.2955  -29.3081  -40.4806 C.3       0 UNK        -0.2013 
      2 C          18.0680  -27.8509  -40.8517 C.2       0 UNK         0.4866 
      3 O          17.4502  -27.1121  -40.0850 O.2       0 UNK        -0.5176 
      4 N          18.5755  -27.4303  -42.0139 N.am      1 UNK        -0.4884 
      5 CA         18.5706  -26.0456  -42.4841 C.3       1 UNK         0.0853 
      6 C6         17.2088  -25.6063  -43.0947 C.3       10 UNK        -0.0849 
      7 S7         16.8472  -26.2220  -44.7779 S.3       10 UNK        -0.2776 
      8 C8         15.8358  -27.7072  -44.4654 C.3       10 UNK         0.0316 
      9 C9         16.5982  -28.9846  -44.7898 C.ar      10 UNK        -0.0863 
     10 C10        16.7706  -29.9804  -43.8245 C.ar      10 UNK        -0.1009 
     11 C11        17.4412  -31.1673  -44.1402 C.ar      10 UNK        -0.0712 
     12 C12        17.9696  -31.3403  -45.4240 C.ar      10 UNK        -0.0894 
     13 C13        17.8075  -30.3484  -46.3965 C.ar      10 UNK        -0.0745 
     14 C14        17.1000  -29.1868  -46.0780 C.ar      10 UNK        -0.0972 
     15 C15        18.3686  -30.5398  -47.7988 C.3       10 UNK         0.0209 
     16 S16        20.1241  -30.0641  -47.9142 S.3       10 UNK        -0.2568 
     17 C17        20.0522  -28.2319  -47.8376 C.3       10 UNK        -0.0983 
     18 CA         21.2468  -27.4552  -47.1911 C.3       3 UNK         0.0876 
     19 N          20.7766  -26.3222  -46.3807 N.am      3 UNK        -0.4424 
     20 C          21.5445  -25.2966  -45.9849 C.2       2 UNK         0.4918 
     21 O          22.7093  -25.1385  -46.3494 O.2       2 UNK        -0.4875 
     22 CA         20.9329  -24.2746  -45.0043 C.3       2 UNK         0.0481 
     23 CB         20.4899  -23.0147  -45.7651 C.3       2 UNK        -0.1831 
     24 N          19.8144  -24.7498  -44.1770 N.am      2 UNK        -0.4498 
     25 C          19.8154  -25.8178  -43.3659 C.2       1 UNK         0.5027 
     26 O          20.7553  -26.6144  -43.2980 O.2       1 UNK        -0.4969 
     27 C          22.2685  -28.3168  -46.4086 C.2       3 UNK         0.5005 
     28 O          23.2811  -28.7277  -46.9797 O.2       3 UNK        -0.5279 
     29 N          21.9995  -28.5458  -45.1154 N.am      4 UNK        -0.4463 
     30 CA         22.8929  -29.2473  -44.1928 C.3       4 UNK         0.0283 
     31 CB         22.0562  -29.9178  -43.0923 C.3       4 UNK        -0.1875 
     32 C          23.9338  -28.2969  -43.5800 C.2       4 UNK         0.4949 
     33 O          25.0516  -28.7284  -43.2981 O.2       4 UNK        -0.5039 
     34 N          23.5401  -27.0316  -43.3664 N.am      5 UNK        -0.4663 
     35 CA         24.2946  -25.8821  -42.8438 C.3       5 UNK         0.0242 
     36 CB         25.5111  -25.5535  -43.7299 C.3       5 UNK        -0.1982 
     37 C          24.6930  -26.0079  -41.3639 C.2       5 UNK         0.5017 
     38 O          24.4388  -25.0876  -40.5875 O.2       5 UNK        -0.5012 
     39 N          25.2746  -27.1534  -40.9953 N.am      6 UNK        -0.4439 
     40 CA         25.6556  -27.5251  -39.6306 C.3       6 UNK         0.0297 
     41 CB         26.8664  -28.4719  -39.7073 C.3       6 UNK        -0.2006 
     42 C          24.5047  -28.1787  -38.8387 C.2       6 UNK         0.4892 
     43 O          24.7255  -28.5777  -37.6949 O.2       6 UNK        -0.5089 
     44 N          23.3213  -28.3103  -39.4627 N.am      7 UNK        -0.4243 
     45 CA         22.1293  -29.0223  -38.9777 C.3       7 UNK         0.0196 
     46 CB         21.5285  -28.3343  -37.7342 C.3       7 UNK        -0.2007 
     47 C          22.3875  -30.5294  -38.7739 C.2       7 UNK         0.5020 
     48 O          21.8619  -31.1358  -37.8389 O.2       7 UNK        -0.5147 
     49 N          23.1842  -31.1106  -39.6837 N.am      8 UNK        -0.4734 
     50 CA         23.6281  -32.5108  -39.6940 C.3       8 UNK         0.0238 
     51 CB         24.6590  -32.6908  -40.8216 C.3       8 UNK        -0.1912 
     52 C          22.5047  -33.5597  -39.8163 C.2       8 UNK         0.5038 
     53 O          22.7643  -34.7405  -39.5801 O.2       8 UNK        -0.5046 
     54 N          21.2898  -33.1202  -40.1683 N.am      9 UNK        -0.4200 
     55 CA         20.0584  -33.9234  -40.1761 C.3       9 UNK         0.0839 
     56 C          19.6419  -34.4669  -38.7771 C.2       9 UNK         0.5513 
     57 N          20.0695  -33.8562  -37.6767 N.am      9 UNK        -0.7519 
     58 O          18.9151  -35.4533  -38.6940 O.2       9 UNK        -0.4960 
     59 C59        18.8695  -33.1503  -40.8040 C.3       10 UNK        -0.0876 
     60 S60        19.2358  -32.4115  -42.4314 S.3       10 UNK        -0.2414 
     61 C61        17.5540  -32.2774  -43.1062 C.3       10 UNK         0.0169 
     62 H62        17.3557  -29.8580  -40.5131 H         1 UNK         0.0903 
     63 H63        18.9984  -29.7877  -41.1599 H         1 UNK         0.0903 
     64 H64        18.6988  -29.3818  -39.4710 H         1 UNK         0.0903 
     65 H65        19.1110  -28.0588  -42.5973 H         1 UNK         0.3096 
     66 H66        18.7463  -25.4137  -41.6102 H         1 UNK         0.1121 
     67 H67        16.3935  -25.8772  -42.4227 H         1 UNK         0.0849 
     68 H68        17.1697  -24.5168  -43.1392 H         1 UNK         0.0849 
     69 H69        15.4762  -27.7171  -43.4357 H         1 UNK         0.0865 
     70 H70        14.9465  -27.6627  -45.0957 H         1 UNK         0.0865 
     71 H71        16.3605  -29.8424  -42.8338 H         1 UNK         0.1346 
     72 H72        18.4987  -32.2517  -45.6675 H         1 UNK         0.1412 
     73 H73        16.9448  -28.4272  -46.8319 H         1 UNK         0.1426 
     74 H74        18.2710  -31.5871  -48.0885 H         1 UNK         0.0716 
     75 H75        17.7897  -29.9698  -48.5273 H         1 UNK         0.0716 
     76 H76        19.1338  -27.9651  -47.3197 H         1 UNK         0.0695 
     77 H77        19.9037  -27.8711  -48.8565 H         1 UNK         0.0695 
     78 H78        21.8174  -27.0267  -48.0188 H         1 UNK         0.0983 
     79 H79        19.8257  -26.3638  -46.0444 H         1 UNK         0.3095 
     80 H80        21.7301  -23.9868  -44.3163 H         1 UNK         0.0454 
     81 H81        19.6582  -23.2227  -46.4394 H         1 UNK         0.0851 
     82 H82        20.1800  -22.2241  -45.0815 H         1 UNK         0.0851 
     83 H83        21.3054  -22.6133  -46.3686 H         1 UNK         0.0851 
     84 H84        18.9808  -24.1800  -44.1999 H         1 UNK         0.2976 
     85 H85        21.1815  -28.1098  -44.7088 H         1 UNK         0.3116 
     86 H86        23.4273  -30.0302  -44.7355 H         1 UNK         0.0646 
     87 H87        21.3071  -30.5812  -43.5240 H         1 UNK         0.0847 
     88 H88        22.6859  -30.5256  -42.4440 H         1 UNK         0.0847 
     89 H89        21.5384  -29.1894  -42.4676 H         1 UNK         0.0847 
     90 H90        22.5556  -26.8366  -43.5361 H         1 UNK         0.3040 
     91 H91        23.6107  -25.0338  -42.9063 H         1 UNK         0.1015 
     92 H92        26.2538  -26.3516  -43.7224 H         1 UNK         0.0786 
     93 H93        26.0082  -24.6453  -43.3867 H         1 UNK         0.0786 
     94 H94        25.2096  -25.3868  -44.7644 H         1 UNK         0.0786 
     95 H95        25.4182  -27.8479  -41.7274 H         1 UNK         0.3172 
     96 H96        25.9574  -26.6283  -39.0857 H         1 UNK         0.0595 
     97 H97        26.6205  -29.4012  -40.2230 H         1 UNK         0.0839 
     98 H98        27.2238  -28.7366  -38.7111 H         1 UNK         0.0839 
     99 H99        27.7005  -28.0071  -40.2334 H         1 UNK         0.0839 
    100 H100       23.2523  -27.9163  -40.3898 H         1 UNK         0.2998 
    101 H101       21.3883  -28.9510  -39.7751 H         1 UNK         0.0822 
    102 H102       20.5728  -28.7843  -37.4627 H         1 UNK         0.0787 
    103 H103       22.1832  -28.4187  -36.8663 H         1 UNK         0.0787 
    104 H104       21.3464  -27.2751  -37.9163 H         1 UNK         0.0787 
    105 H105       23.5813  -30.5191  -40.3976 H         1 UNK         0.3055 
    106 H106       24.1256  -32.6998  -38.7402 H         1 UNK         0.1106 
    107 H107       25.5093  -32.0201  -40.6961 H         1 UNK         0.0828 
    108 H108       25.0537  -33.7079  -40.8323 H         1 UNK         0.0828 
    109 H109       24.2223  -32.5026  -41.8031 H         1 UNK         0.0828 
    110 H110       21.1772  -32.1374  -40.3592 H         1 UNK         0.2931 
    111 H111       20.2570  -34.7934  -40.8050 H         1 UNK         0.0412 
    112 H112       19.7960  -34.2135  -36.7749 H         1 UNK         0.3472 
    113 H113       20.6596  -33.0360  -37.7376 H         1 UNK         0.3472 
    114 H114       18.0144  -33.8210  -40.9124 H         1 UNK         0.0970 
    115 H115       18.5425  -32.3481  -40.1396 H         1 UNK         0.0970 
    116 H116       16.8486  -32.0989  -42.2928 H         1 UNK         0.0612 
    117 H117       17.2710  -33.2309  -43.5544 H         1 UNK         0.0612 
@<TRIPOS>BOND
     1    1    2 1    
     2    1   62 1    
     3    1   63 1    
     4    1   64 1    
     5    2    3 2    
     6    2    4 am   BACKBONE|DICT|INTERRES
     7    4    5 1    
     8    4   65 1    
     9    5    6 1    
    10    5   25 1    
    11    5   66 1    
    12    6    7 1    
    13    6   67 1    
    14    6   68 1    
    15    7    8 1    
    16    8    9 1    
    17    8   69 1    
    18    8   70 1    
    19    9   10 ar   
    20    9   14 ar   
    21   10   11 ar   
    22   10   71 1    
    23   11   12 ar   
    24   11   61 1    
    25   12   13 ar   
    26   12   72 1    
    27   13   14 ar   
    28   13   15 1    
    29   14   73 1    
    30   15   16 1    
    31   15   74 1    
    32   15   75 1    
    33   16   17 1    
    34   17   18 1    
    35   17   76 1    
    36   17   77 1    
    37   18   19 1    
    38   18   27 1    
    39   18   78 1    
    40   19   20 am   BACKBONE|DICT|INTERRES
    41   19   79 1    
    42   20   21 2    
    43   20   22 1    
    44   22   23 1    
    45   22   24 1    
    46   22   80 1    
    47   23   81 1    
    48   23   82 1    
    49   23   83 1    
    50   24   25 am   BACKBONE|DICT|INTERRES
    51   24   84 1    
    52   25   26 2    
    53   27   28 2    
    54   27   29 am   BACKBONE|DICT|INTERRES
    55   29   30 1    
    56   29   85 1    
    57   30   31 1    
    58   30   32 1    
    59   30   86 1    
    60   31   87 1    
    61   31   88 1    
    62   31   89 1    
    63   32   33 2    
    64   32   34 am   BACKBONE|DICT|INTERRES
    65   34   35 1    
    66   34   90 1    
    67   35   36 1    
    68   35   37 1    
    69   35   91 1    
    70   36   92 1    
    71   36   93 1    
    72   36   94 1    
    73   37   38 2    
    74   37   39 am   BACKBONE|DICT|INTERRES
    75   39   40 1    
    76   39   95 1    
    77   40   41 1    
    78   40   42 1    
    79   40   96 1    
    80   41   97 1    
    81   41   98 1    
    82   41   99 1    
    83   42   43 2    
    84   42   44 am   BACKBONE|DICT|INTERRES
    85   44   45 1    
    86   44  100 1    
    87   45   46 1    
    88   45   47 1    
    89   45  101 1    
    90   46  102 1    
    91   46  103 1    
    92   46  104 1    
    93   47   48 2    
    94   47   49 am   BACKBONE|DICT|INTERRES
    95   49   50 1    
    96   49  105 1    
    97   50   51 1    
    98   50   52 1    
    99   50  106 1    
   100   51  107 1    
   101   51  108 1    
   102   51  109 1    
   103   52   53 2    
   104   52   54 am   BACKBONE|DICT|INTERRES
   105   54   55 1    
   106   54  110 1    
   107   55   56 1    
   108   55   59 1    
   109   55  111 1    
   110   56   57 am   BACKBONE|DICT|INTERRES
   111   56   58 2    
   112   57  112 1    
   113   57  113 1    
   114   59   60 1    
   115   59  114 1    
   116   59  115 1    
   117   60   61 1    
   118   61  116 1    
   119   61  117 1    
@<TRIPOS>SUBSTRUCTURE
     1 UNK         1 GROUP             0       ****    0 ROOT    
