@<TRIPOS>MOLECULE
3R8
117   119    1
SMALL
USER_CHARGES


@<TRIPOS>ATOM
      1 CA         20.3951  -27.8449  -42.3371 C.3       0 UNK        -0.2013 
      2 C          19.4706  -26.6717  -42.6165 C.2       0 UNK         0.4866 
      3 O          19.7218  -25.5665  -42.1347 O.2       0 UNK        -0.5176 
      4 N          18.4079  -26.8860  -43.4039 N.am      1 UNK        -0.4884 
      5 CA         17.4184  -25.8676  -43.7860 C.3       1 UNK         0.0853 
      6 C6         16.0378  -26.4812  -44.1454 C.3       10 UNK        -0.0849 
      7 S7         15.3438  -27.5368  -42.8247 S.3       10 UNK        -0.2776 
      8 C8         15.2248  -29.1590  -43.6507 C.3       10 UNK         0.0316 
      9 C9         16.5914  -29.8023  -43.8372 C.ar      10 UNK        -0.0863 
     10 C10        17.1516  -30.5726  -42.8138 C.ar      10 UNK        -0.1009 
     11 C11        18.4139  -31.1534  -42.9712 C.ar      10 UNK        -0.0712 
     12 C12        19.1187  -30.9581  -44.1629 C.ar      10 UNK        -0.0894 
     13 C13        18.5741  -30.1743  -45.1848 C.ar      10 UNK        -0.0745 
     14 C14        17.3021  -29.6197  -45.0265 C.ar      10 UNK        -0.0972 
     15 C15        19.3809  -29.8664  -46.4337 C.3       10 UNK         0.0209 
     16 S16        20.5063  -28.4819  -46.0917 S.3       10 UNK        -0.2568 
     17 C17        20.6624  -27.6873  -47.7307 C.3       10 UNK        -0.0983 
     18 CA         21.2819  -26.2655  -47.6600 C.3       3 UNK         0.0876 
     19 N          20.5392  -25.4092  -46.7287 N.am      3 UNK        -0.4424 
     20 C          20.6113  -24.0747  -46.6589 C.2       2 UNK         0.4918 
     21 O          21.2785  -23.3940  -47.4386 O.2       2 UNK        -0.4875 
     22 CA         19.8489  -23.3741  -45.5131 C.3       2 UNK         0.0481 
     23 CB         18.9794  -22.2100  -46.0317 C.3       2 UNK        -0.1831 
     24 N          19.0779  -24.2707  -44.6364 N.am      2 UNK        -0.4498 
     25 C          17.9704  -24.9729  -44.9204 C.2       1 UNK         0.5027 
     26 O          17.4275  -24.9697  -46.0262 O.2       1 UNK        -0.4969 
     27 C          22.7879  -26.3326  -47.3216 C.2       3 UNK         0.5005 
     28 O          23.6119  -26.4960  -48.2233 O.2       3 UNK        -0.5279 
     29 N          23.1063  -26.2182  -46.0280 N.am      4 UNK        -0.4463 
     30 CA         24.4179  -26.3411  -45.4048 C.3       4 UNK         0.0283 
     31 CB         24.9289  -27.7965  -45.5115 C.3       4 UNK        -0.1875 
     32 C          24.2654  -25.8907  -43.9421 C.2       4 UNK         0.4949 
     33 O          23.2331  -25.3153  -43.5831 O.2       4 UNK        -0.5039 
     34 N          25.2826  -26.1719  -43.1184 N.am      5 UNK        -0.4663 
     35 CA         25.2540  -25.9951  -41.6633 C.3       5 UNK         0.0242 
     36 CB         26.6742  -26.2167  -41.1148 C.3       5 UNK        -0.1982 
     37 C          24.2564  -26.9499  -40.9773 C.2       5 UNK         0.5017 
     38 O          23.8489  -27.9520  -41.5720 O.2       5 UNK        -0.5012 
     39 N          23.9036  -26.6346  -39.7238 N.am      6 UNK        -0.4439 
     40 CA         22.9740  -27.3893  -38.8765 C.3       6 UNK         0.0297 
     41 CB         22.5241  -26.4917  -37.7086 C.3       6 UNK        -0.2006 
     42 C          23.5607  -28.7329  -38.3940 C.2       6 UNK         0.4892 
     43 O          23.8672  -28.8909  -37.2104 O.2       6 UNK        -0.5089 
     44 N          23.7209  -29.6677  -39.3359 N.am      7 UNK        -0.4243 
     45 CA         24.1621  -31.0453  -39.1233 C.3       7 UNK         0.0196 
     46 CB         24.5357  -31.6453  -40.4907 C.3       7 UNK        -0.2007 
     47 C          23.0904  -31.9052  -38.4280 C.2       7 UNK         0.5020 
     48 O          21.9273  -31.5061  -38.3349 O.2       7 UNK        -0.5147 
     49 N          23.5002  -33.1040  -37.9909 N.am      8 UNK        -0.4734 
     50 CA         22.6480  -34.1000  -37.3258 C.3       8 UNK         0.0238 
     51 CB         23.5372  -35.2150  -36.7500 C.3       8 UNK        -0.1912 
     52 C          21.5418  -34.7011  -38.2166 C.2       8 UNK         0.5038 
     53 O          20.5920  -35.2726  -37.6798 O.2       8 UNK        -0.5046 
     54 N          21.6745  -34.5576  -39.5432 N.am      9 UNK        -0.4200 
     55 CA         20.7084  -34.9907  -40.5671 C.3       9 UNK         0.0839 
     56 C          20.6373  -36.5328  -40.7906 C.2       9 UNK         0.5513 
     57 N          21.5956  -37.3134  -40.3051 N.am      9 UNK        -0.7519 
     58 O          19.7190  -37.0319  -41.4358 O.2       9 UNK        -0.4960 
     59 C59        19.3103  -34.3230  -40.3801 C.3       10 UNK        -0.0876 
     60 S60        18.5937  -33.7137  -41.9432 S.3       10 UNK        -0.2414 
     61 C61        19.0312  -31.9522  -41.8350 C.3       10 UNK         0.0169 
     62 H62        21.4104  -27.5983  -42.6467 H         1 UNK         0.0903 
     63 H63        20.4057  -28.0743  -41.2724 H         1 UNK         0.0903 
     64 H64        20.0899  -28.7390  -42.8756 H         1 UNK         0.0903 
     65 H65        18.2379  -27.8151  -43.7677 H         1 UNK         0.3096 
     66 H66        17.2565  -25.2120  -42.9269 H         1 UNK         0.1121 
     67 H67        15.3172  -25.6825  -44.3315 H         1 UNK         0.0849 
     68 H68        16.0919  -27.0430  -45.0775 H         1 UNK         0.0849 
     69 H69        14.5926  -29.8132  -43.0484 H         1 UNK         0.0865 
     70 H70        14.7150  -29.0502  -44.6093 H         1 UNK         0.0865 
     71 H71        16.6087  -30.7117  -41.8885 H         1 UNK         0.1346 
     72 H72        20.1063  -31.3833  -44.2807 H         1 UNK         0.1412 
     73 H73        16.8802  -29.0228  -45.8232 H         1 UNK         0.1426 
     74 H74        18.7153  -29.6188  -47.2620 H         1 UNK         0.0716 
     75 H75        19.9569  -30.7392  -46.7445 H         1 UNK         0.0716 
     76 H76        19.6690  -27.6195  -48.1768 H         1 UNK         0.0695 
     77 H77        21.2427  -28.3368  -48.3892 H         1 UNK         0.0695 
     78 H78        21.2048  -25.8177  -48.6533 H         1 UNK         0.0983 
     79 H79        19.9536  -25.8925  -46.0638 H         1 UNK         0.3095 
     80 H80        20.6190  -22.9419  -44.8726 H         1 UNK         0.0454 
     81 H81        19.5894  -21.4654  -46.5446 H         1 UNK         0.0851 
     82 H82        18.4696  -21.6997  -45.2148 H         1 UNK         0.0851 
     83 H83        18.2240  -22.5488  -46.7410 H         1 UNK         0.0851 
     84 H84        19.4681  -24.4142  -43.7074 H         1 UNK         0.2976 
     85 H85        22.3701  -26.0219  -45.3602 H         1 UNK         0.3116 
     86 H86        25.1122  -25.6634  -45.9048 H         1 UNK         0.0646 
     87 H87        25.9397  -27.8980  -45.1165 H         1 UNK         0.0847 
     88 H88        24.9661  -28.1383  -46.5456 H         1 UNK         0.0847 
     89 H89        24.2883  -28.4851  -44.9583 H         1 UNK         0.0847 
     90 H90        26.0791  -26.6661  -43.4923 H         1 UNK         0.3040 
     91 H91        24.9449  -24.9687  -41.4526 H         1 UNK         0.1015 
     92 H92        26.7147  -26.0470  -40.0381 H         1 UNK         0.0786 
     93 H93        27.3882  -25.5318  -41.5729 H         1 UNK         0.0786 
     94 H94        27.0217  -27.2349  -41.2960 H         1 UNK         0.0786 
     95 H95        24.3197  -25.8166  -39.3019 H         1 UNK         0.3172 
     96 H96        22.0867  -27.6207  -39.4694 H         1 UNK         0.0595 
     97 H97        23.3643  -26.1870  -37.0834 H         1 UNK         0.0839 
     98 H98        21.8139  -27.0149  -37.0667 H         1 UNK         0.0839 
     99 H99        22.0275  -25.5903  -38.0684 H         1 UNK         0.0839 
    100 H100       23.5078  -29.3968  -40.2910 H         1 UNK         0.2998 
    101 H101       25.0501  -31.0247  -38.4878 H         1 UNK         0.0822 
    102 H102       25.2966  -31.0451  -40.9907 H         1 UNK         0.0787 
    103 H103       23.6712  -31.7048  -41.1538 H         1 UNK         0.0787 
    104 H104       24.9408  -32.6527  -40.3889 H         1 UNK         0.0787 
    105 H105       24.4713  -33.3558  -38.1135 H         1 UNK         0.3055 
    106 H106       22.1433  -33.6015  -36.4950 H         1 UNK         0.1106 
    107 H107       24.0895  -35.7374  -37.5320 H         1 UNK         0.0828 
    108 H108       24.2587  -34.8190  -36.0350 H         1 UNK         0.0828 
    109 H109       22.9392  -35.9592  -36.2217 H         1 UNK         0.0828 
    110 H110       22.5016  -34.0934  -39.8869 H         1 UNK         0.2931 
    111 H111       21.1392  -34.6073  -41.4927 H         1 UNK         0.0412 
    112 H112       22.3607  -36.9195  -39.7817 H         1 UNK         0.3472 
    113 H113       21.5487  -38.3084  -40.4613 H         1 UNK         0.3472 
    114 H114       18.6035  -35.0104  -39.9113 H         1 UNK         0.0970 
    115 H115       19.3736  -33.4803  -39.6900 H         1 UNK         0.0970 
    116 H116       20.1177  -31.8489  -41.8455 H         1 UNK         0.0612 
    117 H117       18.6929  -31.5490  -40.8791 H         1 UNK         0.0612 
@<TRIPOS>BOND
     1    1    2 1    
     2    1   62 1    
     3    1   63 1    
     4    1   64 1    
     5    2    3 2    
     6    2    4 am   BACKBONE|DICT|INTERRES
     7    4    5 1    
     8    4   65 1    
     9    5    6 1    
    10    5   25 1    
    11    5   66 1    
    12    6    7 1    
    13    6   67 1    
    14    6   68 1    
    15    7    8 1    
    16    8    9 1    
    17    8   69 1    
    18    8   70 1    
    19    9   10 ar   
    20    9   14 ar   
    21   10   11 ar   
    22   10   71 1    
    23   11   12 ar   
    24   11   61 1    
    25   12   13 ar   
    26   12   72 1    
    27   13   14 ar   
    28   13   15 1    
    29   14   73 1    
    30   15   16 1    
    31   15   74 1    
    32   15   75 1    
    33   16   17 1    
    34   17   18 1    
    35   17   76 1    
    36   17   77 1    
    37   18   19 1    
    38   18   27 1    
    39   18   78 1    
    40   19   20 am   BACKBONE|DICT|INTERRES
    41   19   79 1    
    42   20   21 2    
    43   20   22 1    
    44   22   23 1    
    45   22   24 1    
    46   22   80 1    
    47   23   81 1    
    48   23   82 1    
    49   23   83 1    
    50   24   25 am   BACKBONE|DICT|INTERRES
    51   24   84 1    
    52   25   26 2    
    53   27   28 2    
    54   27   29 am   BACKBONE|DICT|INTERRES
    55   29   30 1    
    56   29   85 1    
    57   30   31 1    
    58   30   32 1    
    59   30   86 1    
    60   31   87 1    
    61   31   88 1    
    62   31   89 1    
    63   32   33 2    
    64   32   34 am   BACKBONE|DICT|INTERRES
    65   34   35 1    
    66   34   90 1    
    67   35   36 1    
    68   35   37 1    
    69   35   91 1    
    70   36   92 1    
    71   36   93 1    
    72   36   94 1    
    73   37   38 2    
    74   37   39 am   BACKBONE|DICT|INTERRES
    75   39   40 1    
    76   39   95 1    
    77   40   41 1    
    78   40   42 1    
    79   40   96 1    
    80   41   97 1    
    81   41   98 1    
    82   41   99 1    
    83   42   43 2    
    84   42   44 am   BACKBONE|DICT|INTERRES
    85   44   45 1    
    86   44  100 1    
    87   45   46 1    
    88   45   47 1    
    89   45  101 1    
    90   46  102 1    
    91   46  103 1    
    92   46  104 1    
    93   47   48 2    
    94   47   49 am   BACKBONE|DICT|INTERRES
    95   49   50 1    
    96   49  105 1    
    97   50   51 1    
    98   50   52 1    
    99   50  106 1    
   100   51  107 1    
   101   51  108 1    
   102   51  109 1    
   103   52   53 2    
   104   52   54 am   BACKBONE|DICT|INTERRES
   105   54   55 1    
   106   54  110 1    
   107   55   56 1    
   108   55   59 1    
   109   55  111 1    
   110   56   57 am   BACKBONE|DICT|INTERRES
   111   56   58 2    
   112   57  112 1    
   113   57  113 1    
   114   59   60 1    
   115   59  114 1    
   116   59  115 1    
   117   60   61 1    
   118   61  116 1    
   119   61  117 1    
@<TRIPOS>SUBSTRUCTURE
     1 UNK         1 GROUP             0       ****    0 ROOT    
