@<TRIPOS>MOLECULE
3R8
117   119    1
SMALL
USER_CHARGES


@<TRIPOS>ATOM
      1 CA         20.0575  -29.5776  -42.9838 C.3       0 UNK        -0.2013 
      2 C          19.6186  -28.1571  -42.6708 C.2       0 UNK         0.4866 
      3 O          20.4132  -27.3873  -42.1343 O.2       0 UNK        -0.5176 
      4 N          18.3738  -27.7956  -43.0205 N.am      1 UNK        -0.4884 
      5 CA         17.7611  -26.4809  -42.7547 C.3       1 UNK         0.0853 
      6 C6         16.2752  -26.4230  -43.1872 C.3       10 UNK        -0.0849 
      7 S7         15.2520  -27.6835  -42.3538 S.3       10 UNK        -0.2776 
      8 C8         14.6074  -28.6466  -43.7605 C.3       10 UNK         0.0316 
      9 C9         15.6794  -29.5136  -44.4060 C.ar      10 UNK        -0.0863 
     10 C10        16.1276  -30.6672  -43.7562 C.ar      10 UNK        -0.1009 
     11 C11        17.1039  -31.4823  -44.3395 C.ar      10 UNK        -0.0712 
     12 C12        17.6127  -31.1440  -45.5979 C.ar      10 UNK        -0.0894 
     13 C13        17.1612  -30.0023  -46.2662 C.ar      10 UNK        -0.0745 
     14 C14        16.1992  -29.1865  -45.6624 C.ar      10 UNK        -0.0972 
     15 C15        17.6783  -29.6748  -47.6604 C.3       10 UNK         0.0209 
     16 S16        18.8267  -28.2654  -47.6614 S.3       10 UNK        -0.2568 
     17 C17        20.3241  -29.0043  -46.9231 C.3       10 UNK        -0.0983 
     18 CA         21.4543  -27.9625  -46.6973 C.3       3 UNK         0.0876 
     19 N          20.9854  -26.8509  -45.8625 N.am      3 UNK        -0.4424 
     20 C          20.8116  -25.5878  -46.2737 C.2       2 UNK         0.4918 
     21 O          21.2343  -25.1466  -47.3430 O.2       2 UNK        -0.4875 
     22 CA         19.9648  -24.6937  -45.3493 C.3       2 UNK         0.0481 
     23 CB         19.2342  -23.5679  -46.1059 C.3       2 UNK        -0.1831 
     24 N          18.9981  -25.5253  -44.6303 N.am      2 UNK        -0.4498 
     25 C          18.5486  -25.3148  -43.3888 C.2       1 UNK         0.5027 
     26 O          18.7623  -24.2897  -42.7399 O.2       1 UNK        -0.4969 
     27 C          22.7128  -28.6295  -46.1025 C.2       3 UNK         0.5005 
     28 O          23.1894  -29.6202  -46.6588 O.2       3 UNK        -0.5279 
     29 N          23.2310  -28.0966  -44.9892 N.am      4 UNK        -0.4463 
     30 CA         24.4122  -28.5697  -44.2760 C.3       4 UNK         0.0283 
     31 CB         24.0374  -29.7488  -43.3572 C.3       4 UNK        -0.1875 
     32 C          24.9798  -27.4000  -43.4655 C.2       4 UNK         0.4949 
     33 O          24.2973  -26.3860  -43.2895 O.2       4 UNK        -0.5039 
     34 N          26.2033  -27.5677  -42.9497 N.am      5 UNK        -0.4663 
     35 CA         26.9117  -26.5968  -42.1067 C.3       5 UNK         0.0242 
     36 CB         28.4209  -26.9014  -42.1619 C.3       5 UNK        -0.1982 
     37 C          26.3637  -26.5707  -40.6641 C.2       5 UNK         0.5017 
     38 O          27.0975  -26.8605  -39.7180 O.2       5 UNK        -0.5012 
     39 N          25.0661  -26.2583  -40.5374 N.am      6 UNK        -0.4439 
     40 CA         24.2587  -26.1948  -39.3108 C.3       6 UNK         0.0297 
     41 CB         24.7801  -25.0936  -38.3626 C.3       6 UNK        -0.2006 
     42 C          24.0728  -27.5489  -38.5916 C.2       6 UNK         0.4892 
     43 O          23.6626  -27.5624  -37.4294 O.2       6 UNK        -0.5089 
     44 N          24.3524  -28.6617  -39.2839 N.am      7 UNK        -0.4243 
     45 CA         24.1182  -30.0213  -38.7991 C.3       7 UNK         0.0196 
     46 CB         24.9911  -31.0030  -39.5972 C.3       7 UNK        -0.2007 
     47 C          22.6346  -30.3883  -38.9394 C.2       7 UNK         0.5020 
     48 O          22.0039  -30.0154  -39.9313 O.2       7 UNK        -0.5147 
     49 N          22.1102  -31.1513  -37.9738 N.am      8 UNK        -0.4734 
     50 CA         20.7163  -31.6060  -37.9201 C.3       8 UNK         0.0238 
     51 CB         20.3539  -31.9221  -36.4561 C.3       8 UNK        -0.1912 
     52 C          20.4450  -32.7917  -38.8695 C.2       8 UNK         0.5038 
     53 O          20.0052  -33.8517  -38.4185 O.2       8 UNK        -0.5046 
     54 N          20.7167  -32.5834  -40.1639 N.am      9 UNK        -0.4200 
     55 CA         20.5566  -33.5472  -41.2659 C.3       9 UNK         0.0839 
     56 C          21.5063  -34.7797  -41.1432 C.2       9 UNK         0.5513 
     57 N          21.2684  -35.8501  -41.8906 N.am      9 UNK        -0.7519 
     58 O          22.4992  -34.7606  -40.4178 O.2       9 UNK        -0.4960 
     59 C59        19.0622  -33.9150  -41.5188 C.3       10 UNK        -0.0876 
     60 S60        18.0528  -32.4396  -41.8924 S.3       10 UNK        -0.2414 
     61 C61        17.6034  -32.7386  -43.6336 C.3       10 UNK         0.0169 
     62 H62        20.1812  -30.1400  -42.0592 H         1 UNK         0.0903 
     63 H63        19.3334  -30.0980  -43.6048 H         1 UNK         0.0903 
     64 H64        21.0112  -29.5748  -43.5088 H         1 UNK         0.0903 
     65 H65        17.7541  -28.4814  -43.4335 H         1 UNK         0.3096 
     66 H66        17.8020  -26.3298  -41.6736 H         1 UNK         0.1121 
     67 H67        15.8486  -25.4474  -42.9450 H         1 UNK         0.0849 
     68 H68        16.1843  -26.5284  -44.2697 H         1 UNK         0.0849 
     69 H69        13.7993  -29.2873  -43.4043 H         1 UNK         0.0865 
     70 H70        14.1555  -27.9723  -44.4899 H         1 UNK         0.0865 
     71 H71        15.7190  -30.9269  -42.7888 H         1 UNK         0.1346 
     72 H72        18.3554  -31.7765  -46.0649 H         1 UNK         0.1412 
     73 H73        15.8460  -28.3060  -46.1823 H         1 UNK         0.1426 
     74 H74        16.8324  -29.4355  -48.3064 H         1 UNK         0.0716 
     75 H75        18.1669  -30.5404  -48.1106 H         1 UNK         0.0716 
     76 H76        20.6634  -29.8033  -47.5850 H         1 UNK         0.0695 
     77 H77        20.0487  -29.4800  -45.9811 H         1 UNK         0.0695 
     78 H78        21.7593  -27.5851  -47.6758 H         1 UNK         0.0983 
     79 H79        20.6516  -27.0979  -44.9430 H         1 UNK         0.3095 
     80 H80        20.6556  -24.2442  -44.6332 H         1 UNK         0.0454 
     81 H81        19.9419  -22.9132  -46.6158 H         1 UNK         0.0851 
     82 H82        18.6525  -22.9448  -45.4266 H         1 UNK         0.0851 
     83 H83        18.5550  -23.9677  -46.8596 H         1 UNK         0.0851 
     84 H84        18.7283  -26.3820  -45.0957 H         1 UNK         0.2976 
     85 H85        22.8574  -27.2285  -44.6239 H         1 UNK         0.3116 
     86 H86        25.1673  -28.8865  -44.9986 H         1 UNK         0.0646 
     87 H87        24.9221  -30.1613  -42.8724 H         1 UNK         0.0847 
     88 H88        23.5748  -30.5616  -43.9171 H         1 UNK         0.0847 
     89 H89        23.3425  -29.4461  -42.5720 H         1 UNK         0.0847 
     90 H90        26.6844  -28.4392  -43.1233 H         1 UNK         0.3040 
     91 H91        26.7617  -25.5973  -42.5221 H         1 UNK         0.1015 
     92 H92        28.9876  -26.1777  -41.5743 H         1 UNK         0.0786 
     93 H93        28.7988  -26.8514  -43.1833 H         1 UNK         0.0786 
     94 H94        28.6490  -27.8924  -41.7672 H         1 UNK         0.0786 
     95 H95        24.5617  -26.0896  -41.4056 H         1 UNK         0.3172 
     96 H96        23.2601  -25.8982  -39.6350 H         1 UNK         0.0595 
     97 H97        25.7494  -25.3520  -37.9351 H         1 UNK         0.0839 
     98 H98        24.0930  -24.9341  -37.5307 H         1 UNK         0.0839 
     99 H99        24.8841  -24.1398  -38.8798 H         1 UNK         0.0839 
    100 H100       24.6438  -28.5634  -40.2439 H         1 UNK         0.2998 
    101 H101       24.4062  -30.0745  -37.7467 H         1 UNK         0.0822 
    102 H102       26.0472  -30.7397  -39.5335 H         1 UNK         0.0787 
    103 H103       24.8859  -32.0182  -39.2120 H         1 UNK         0.0787 
    104 H104       24.7122  -31.0283  -40.6506 H         1 UNK         0.0787 
    105 H105       22.7087  -31.4572  -37.2193 H         1 UNK         0.3055 
    106 H106       20.0701  -30.7883  -38.2488 H         1 UNK         0.1106 
    107 H107       20.9599  -32.7359  -36.0556 H         1 UNK         0.0828 
    108 H108       20.4938  -31.0514  -35.8151 H         1 UNK         0.0828 
    109 H109       19.3082  -32.2202  -36.3676 H         1 UNK         0.0828 
    110 H110       21.1219  -31.6855  -40.4085 H         1 UNK         0.2931 
    111 H111       20.9144  -33.0184  -42.1503 H         1 UNK         0.0412 
    112 H112       20.4854  -35.8898  -42.5232 H         1 UNK         0.3472 
    113 H113       21.8961  -36.6366  -41.8251 H         1 UNK         0.3472 
    114 H114       18.9625  -34.6201  -42.3441 H         1 UNK         0.0970 
    115 H115       18.6361  -34.4176  -40.6494 H         1 UNK         0.0970 
    116 H116       18.4750  -33.1368  -44.1554 H         1 UNK         0.0612 
    117 H117       16.8307  -33.5070  -43.6780 H         1 UNK         0.0612 
@<TRIPOS>BOND
     1    1    2 1    
     2    1   62 1    
     3    1   63 1    
     4    1   64 1    
     5    2    3 2    
     6    2    4 am   BACKBONE|DICT|INTERRES
     7    4    5 1    
     8    4   65 1    
     9    5    6 1    
    10    5   25 1    
    11    5   66 1    
    12    6    7 1    
    13    6   67 1    
    14    6   68 1    
    15    7    8 1    
    16    8    9 1    
    17    8   69 1    
    18    8   70 1    
    19    9   10 ar   
    20    9   14 ar   
    21   10   11 ar   
    22   10   71 1    
    23   11   12 ar   
    24   11   61 1    
    25   12   13 ar   
    26   12   72 1    
    27   13   14 ar   
    28   13   15 1    
    29   14   73 1    
    30   15   16 1    
    31   15   74 1    
    32   15   75 1    
    33   16   17 1    
    34   17   18 1    
    35   17   76 1    
    36   17   77 1    
    37   18   19 1    
    38   18   27 1    
    39   18   78 1    
    40   19   20 am   BACKBONE|DICT|INTERRES
    41   19   79 1    
    42   20   21 2    
    43   20   22 1    
    44   22   23 1    
    45   22   24 1    
    46   22   80 1    
    47   23   81 1    
    48   23   82 1    
    49   23   83 1    
    50   24   25 am   BACKBONE|DICT|INTERRES
    51   24   84 1    
    52   25   26 2    
    53   27   28 2    
    54   27   29 am   BACKBONE|DICT|INTERRES
    55   29   30 1    
    56   29   85 1    
    57   30   31 1    
    58   30   32 1    
    59   30   86 1    
    60   31   87 1    
    61   31   88 1    
    62   31   89 1    
    63   32   33 2    
    64   32   34 am   BACKBONE|DICT|INTERRES
    65   34   35 1    
    66   34   90 1    
    67   35   36 1    
    68   35   37 1    
    69   35   91 1    
    70   36   92 1    
    71   36   93 1    
    72   36   94 1    
    73   37   38 2    
    74   37   39 am   BACKBONE|DICT|INTERRES
    75   39   40 1    
    76   39   95 1    
    77   40   41 1    
    78   40   42 1    
    79   40   96 1    
    80   41   97 1    
    81   41   98 1    
    82   41   99 1    
    83   42   43 2    
    84   42   44 am   BACKBONE|DICT|INTERRES
    85   44   45 1    
    86   44  100 1    
    87   45   46 1    
    88   45   47 1    
    89   45  101 1    
    90   46  102 1    
    91   46  103 1    
    92   46  104 1    
    93   47   48 2    
    94   47   49 am   BACKBONE|DICT|INTERRES
    95   49   50 1    
    96   49  105 1    
    97   50   51 1    
    98   50   52 1    
    99   50  106 1    
   100   51  107 1    
   101   51  108 1    
   102   51  109 1    
   103   52   53 2    
   104   52   54 am   BACKBONE|DICT|INTERRES
   105   54   55 1    
   106   54  110 1    
   107   55   56 1    
   108   55   59 1    
   109   55  111 1    
   110   56   57 am   BACKBONE|DICT|INTERRES
   111   56   58 2    
   112   57  112 1    
   113   57  113 1    
   114   59   60 1    
   115   59  114 1    
   116   59  115 1    
   117   60   61 1    
   118   61  116 1    
   119   61  117 1    
@<TRIPOS>SUBSTRUCTURE
     1 UNK         1 GROUP             0       ****    0 ROOT    
