@<TRIPOS>MOLECULE
3R8
117   119    1
SMALL
USER_CHARGES


@<TRIPOS>ATOM
      1 CA         14.1516  -23.3045  -44.2316 C.3       0 UNK        -0.2013 
      2 C          15.4075  -24.1263  -44.4774 C.2       0 UNK         0.4866 
      3 O          16.0950  -23.9148  -45.4775 O.2       0 UNK        -0.5176 
      4 N          15.7242  -25.0584  -43.5700 N.am      1 UNK        -0.4884 
      5 CA         16.8798  -25.9620  -43.6390 C.3       1 UNK         0.0853 
      6 C6         16.6555  -27.2527  -42.8052 C.3       10 UNK        -0.0849 
      7 S7         15.1531  -28.1916  -43.2545 S.3       10 UNK        -0.2776 
      8 C8         15.5535  -28.8646  -44.9030 C.3       10 UNK         0.0316 
      9 C9         16.9030  -29.5691  -44.9452 C.ar      10 UNK        -0.0863 
     10 C10        17.0909  -30.7832  -44.2813 C.ar      10 UNK        -0.1009 
     11 C11        18.3321  -31.4257  -44.3121 C.ar      10 UNK        -0.0712 
     12 C12        19.3898  -30.8391  -45.0173 C.ar      10 UNK        -0.0894 
     13 C13        19.2178  -29.6277  -45.6991 C.ar      10 UNK        -0.0745 
     14 C14        17.9621  -29.0069  -45.6616 C.ar      10 UNK        -0.0972 
     15 C15        20.3891  -29.0466  -46.4989 C.3       10 UNK         0.0209 
     16 S16        20.2796  -27.2475  -46.8090 S.3       10 UNK        -0.2568 
     17 C17        21.9870  -26.6501  -46.5221 C.3       10 UNK        -0.0983 
     18 CA         22.1818  -25.9152  -45.1663 C.3       3 UNK         0.0876 
     19 N          21.0713  -25.0042  -44.8735 N.am      3 UNK        -0.4424 
     20 C          21.0551  -24.0613  -43.9236 C.2       2 UNK         0.4918 
     21 O          22.0266  -23.7682  -43.2268 O.2       2 UNK        -0.4875 
     22 CA         19.7178  -23.3274  -43.7101 C.3       2 UNK         0.0481 
     23 CB         19.6447  -22.0735  -44.5952 C.3       2 UNK        -0.1831 
     24 N          18.5372  -24.1654  -43.9563 N.am      2 UNK        -0.4498 
     25 C          18.1867  -25.2398  -43.2350 C.2       1 UNK         0.5027 
     26 O          18.8447  -25.6506  -42.2790 O.2       1 UNK        -0.4969 
     27 C          22.4343  -26.9092  -44.0154 C.2       3 UNK         0.5005 
     28 O          23.5902  -27.1562  -43.6632 O.2       3 UNK        -0.5279 
     29 N          21.3442  -27.4788  -43.4752 N.am      4 UNK        -0.4463 
     30 CA         21.2678  -28.4102  -42.3397 C.3       4 UNK         0.0283 
     31 CB         21.5284  -27.6502  -41.0228 C.3       4 UNK        -0.1875 
     32 C          22.1630  -29.6613  -42.4525 C.2       4 UNK         0.4949 
     33 O          22.4713  -30.2700  -41.4291 O.2       4 UNK        -0.5039 
     34 N          22.5987  -30.0062  -43.6733 N.am      5 UNK        -0.4663 
     35 CA         23.6083  -31.0222  -44.0029 C.3       5 UNK         0.0242 
     36 CB         23.0447  -32.4429  -43.7846 C.3       5 UNK        -0.1982 
     37 C          24.9469  -30.7881  -43.2687 C.2       5 UNK         0.5017 
     38 O          25.5716  -31.7481  -42.8185 O.2       5 UNK        -0.5012 
     39 N          25.3353  -29.5103  -43.1144 N.am      6 UNK        -0.4439 
     40 CA         26.4652  -29.0331  -42.3036 C.3       6 UNK         0.0297 
     41 CB         27.8158  -29.4955  -42.8918 C.3       6 UNK        -0.2006 
     42 C          26.2949  -29.3881  -40.8110 C.2       6 UNK         0.4892 
     43 O          27.2379  -29.8509  -40.1681 O.2       6 UNK        -0.5089 
     44 N          25.0677  -29.1763  -40.3141 N.am      7 UNK        -0.4243 
     45 CA         24.5463  -29.4520  -38.9693 C.3       7 UNK         0.0196 
     46 CB         25.4072  -28.7985  -37.8680 C.3       7 UNK        -0.2007 
     47 C          24.2569  -30.9373  -38.6778 C.2       7 UNK         0.5020 
     48 O          23.7538  -31.2357  -37.5936 O.2       7 UNK        -0.5147 
     49 N          24.5138  -31.8464  -39.6308 N.am      8 UNK        -0.4734 
     50 CA         24.2181  -33.2788  -39.4974 C.3       8 UNK         0.0238 
     51 CB         24.9544  -34.0690  -40.5901 C.3       8 UNK        -0.1912 
     52 C          22.7125  -33.6054  -39.5115 C.2       8 UNK         0.5038 
     53 O          22.3284  -34.6522  -38.9882 O.2       8 UNK        -0.5046 
     54 N          21.8908  -32.7143  -40.0843 N.am      9 UNK        -0.4200 
     55 CA         20.4215  -32.7809  -40.0467 C.3       9 UNK         0.0839 
     56 C          19.8099  -32.3674  -38.6724 C.2       9 UNK         0.5513 
     57 N          20.5779  -31.8309  -37.7291 N.am      9 UNK        -0.7519 
     58 O          18.6169  -32.5496  -38.4468 O.2       9 UNK        -0.4960 
     59 C59        19.7952  -31.9883  -41.2297 C.3       10 UNK        -0.0876 
     60 S60        18.2285  -32.7031  -41.8294 S.3       10 UNK        -0.2414 
     61 C61        18.5039  -32.7795  -43.6307 C.3       10 UNK         0.0169 
     62 H62        13.4548  -23.4289  -45.0600 H         1 UNK         0.0903 
     63 H63        13.6435  -23.6005  -43.3140 H         1 UNK         0.0903 
     64 H64        14.4043  -22.2475  -44.1542 H         1 UNK         0.0903 
     65 H65        15.1298  -25.1830  -42.7623 H         1 UNK         0.3096 
     66 H66        17.0119  -26.2644  -44.6796 H         1 UNK         0.1121 
     67 H67        17.5176  -27.9181  -42.8806 H         1 UNK         0.0849 
     68 H68        16.5734  -27.0036  -41.7455 H         1 UNK         0.0849 
     69 H69        14.7728  -29.5686  -45.1945 H         1 UNK         0.0865 
     70 H70        15.5141  -28.0552  -45.6336 H         1 UNK         0.0865 
     71 H71        16.2688  -31.2294  -43.7379 H         1 UNK         0.1346 
     72 H72        20.3454  -31.3410  -45.0583 H         1 UNK         0.1412 
     73 H73        17.7945  -28.0850  -46.1990 H         1 UNK         0.1426 
     74 H74        20.4412  -29.5583  -47.4608 H         1 UNK         0.0716 
     75 H75        21.3240  -29.2679  -45.9875 H         1 UNK         0.0716 
     76 H76        22.2086  -25.9505  -47.3295 H         1 UNK         0.0695 
     77 H77        22.7044  -27.4633  -46.6494 H         1 UNK         0.0695 
     78 H78        23.0859  -25.3073  -45.2472 H         1 UNK         0.0983 
     79 H79        20.2318  -25.1560  -45.4140 H         1 UNK         0.3095 
     80 H80        19.6832  -23.0076  -42.6666 H         1 UNK         0.0454 
     81 H81        20.4982  -21.4182  -44.4157 H         1 UNK         0.0851 
     82 H82        18.7448  -21.4939  -44.3887 H         1 UNK         0.0851 
     83 H83        19.6450  -22.3261  -45.6562 H         1 UNK         0.0851 
     84 H84        17.9043  -23.8786  -44.6983 H         1 UNK         0.2976 
     85 H85        20.4514  -27.2043  -43.8597 H         1 UNK         0.3116 
     86 H86        20.2404  -28.7767  -42.3171 H         1 UNK         0.0646 
     87 H87        22.5545  -27.2868  -40.9625 H         1 UNK         0.0847 
     88 H88        20.8667  -26.7901  -40.9243 H         1 UNK         0.0847 
     89 H89        21.3521  -28.2871  -40.1551 H         1 UNK         0.0847 
     90 H90        22.3083  -29.4150  -44.4368 H         1 UNK         0.3040 
     91 H91        23.8291  -30.9146  -45.0661 H         1 UNK         0.1015 
     92 H92        23.7616  -33.2018  -44.1003 H         1 UNK         0.0786 
     93 H93        22.1358  -32.6073  -44.3607 H         1 UNK         0.0786 
     94 H94        22.8150  -32.6310  -42.7372 H         1 UNK         0.0786 
     95 H95        24.7295  -28.7792  -43.4812 H         1 UNK         0.3172 
     96 H96        26.4396  -27.9439  -42.3613 H         1 UNK         0.0595 
     97 H97        27.9472  -30.5752  -42.8149 H         1 UNK         0.0839 
     98 H98        28.6489  -29.0315  -42.3626 H         1 UNK         0.0839 
     99 H99        27.9064  -29.2201  -43.9424 H         1 UNK         0.0839 
    100 H100       24.3646  -28.8669  -40.9710 H         1 UNK         0.2998 
    101 H101       23.5710  -28.9639  -38.9417 H         1 UNK         0.0822 
    102 H102       24.9102  -28.8590  -36.8990 H         1 UNK         0.0787 
    103 H103       25.5839  -27.7430  -38.0745 H         1 UNK         0.0787 
    104 H104       26.3750  -29.2889  -37.7617 H         1 UNK         0.0787 
    105 H105       24.8992  -31.5355  -40.5134 H         1 UNK         0.3055 
    106 H106       24.6054  -33.6068  -38.5299 H         1 UNK         0.1106 
    107 H107       26.0219  -33.8478  -40.5933 H         1 UNK         0.0828 
    108 H108       24.8458  -35.1427  -40.4321 H         1 UNK         0.0828 
    109 H109       24.5633  -33.8493  -41.5828 H         1 UNK         0.0828 
    110 H110       22.2848  -31.8654  -40.4835 H         1 UNK         0.2931 
    111 H111       20.1621  -33.8325  -40.1842 H         1 UNK         0.0412 
    112 H112       20.1639  -31.5778  -36.8459 H         1 UNK         0.3472 
    113 H113       21.5690  -31.6948  -37.8758 H         1 UNK         0.3472 
    114 H114       19.6388  -30.9396  -40.9709 H         1 UNK         0.0970 
    115 H115       20.4854  -31.9838  -42.0726 H         1 UNK         0.0970 
    116 H116       19.4878  -33.2050  -43.8343 H         1 UNK         0.0612 
    117 H117       17.7804  -33.4745  -44.0588 H         1 UNK         0.0612 
@<TRIPOS>BOND
     1    1    2 1    
     2    1   62 1    
     3    1   63 1    
     4    1   64 1    
     5    2    3 2    
     6    2    4 am   BACKBONE|DICT|INTERRES
     7    4    5 1    
     8    4   65 1    
     9    5    6 1    
    10    5   25 1    
    11    5   66 1    
    12    6    7 1    
    13    6   67 1    
    14    6   68 1    
    15    7    8 1    
    16    8    9 1    
    17    8   69 1    
    18    8   70 1    
    19    9   10 ar   
    20    9   14 ar   
    21   10   11 ar   
    22   10   71 1    
    23   11   12 ar   
    24   11   61 1    
    25   12   13 ar   
    26   12   72 1    
    27   13   14 ar   
    28   13   15 1    
    29   14   73 1    
    30   15   16 1    
    31   15   74 1    
    32   15   75 1    
    33   16   17 1    
    34   17   18 1    
    35   17   76 1    
    36   17   77 1    
    37   18   19 1    
    38   18   27 1    
    39   18   78 1    
    40   19   20 am   BACKBONE|DICT|INTERRES
    41   19   79 1    
    42   20   21 2    
    43   20   22 1    
    44   22   23 1    
    45   22   24 1    
    46   22   80 1    
    47   23   81 1    
    48   23   82 1    
    49   23   83 1    
    50   24   25 am   BACKBONE|DICT|INTERRES
    51   24   84 1    
    52   25   26 2    
    53   27   28 2    
    54   27   29 am   BACKBONE|DICT|INTERRES
    55   29   30 1    
    56   29   85 1    
    57   30   31 1    
    58   30   32 1    
    59   30   86 1    
    60   31   87 1    
    61   31   88 1    
    62   31   89 1    
    63   32   33 2    
    64   32   34 am   BACKBONE|DICT|INTERRES
    65   34   35 1    
    66   34   90 1    
    67   35   36 1    
    68   35   37 1    
    69   35   91 1    
    70   36   92 1    
    71   36   93 1    
    72   36   94 1    
    73   37   38 2    
    74   37   39 am   BACKBONE|DICT|INTERRES
    75   39   40 1    
    76   39   95 1    
    77   40   41 1    
    78   40   42 1    
    79   40   96 1    
    80   41   97 1    
    81   41   98 1    
    82   41   99 1    
    83   42   43 2    
    84   42   44 am   BACKBONE|DICT|INTERRES
    85   44   45 1    
    86   44  100 1    
    87   45   46 1    
    88   45   47 1    
    89   45  101 1    
    90   46  102 1    
    91   46  103 1    
    92   46  104 1    
    93   47   48 2    
    94   47   49 am   BACKBONE|DICT|INTERRES
    95   49   50 1    
    96   49  105 1    
    97   50   51 1    
    98   50   52 1    
    99   50  106 1    
   100   51  107 1    
   101   51  108 1    
   102   51  109 1    
   103   52   53 2    
   104   52   54 am   BACKBONE|DICT|INTERRES
   105   54   55 1    
   106   54  110 1    
   107   55   56 1    
   108   55   59 1    
   109   55  111 1    
   110   56   57 am   BACKBONE|DICT|INTERRES
   111   56   58 2    
   112   57  112 1    
   113   57  113 1    
   114   59   60 1    
   115   59  114 1    
   116   59  115 1    
   117   60   61 1    
   118   61  116 1    
   119   61  117 1    
@<TRIPOS>SUBSTRUCTURE
     1 UNK         1 GROUP             0       ****    0 ROOT    
