@<TRIPOS>MOLECULE
3R8
117   119    1
SMALL
USER_CHARGES


@<TRIPOS>ATOM
      1 CA         15.8135  -26.1899  -45.1499 C.3       0 UNK        -0.2013 
      2 C          15.4698  -25.8758  -43.6970 C.2       0 UNK         0.4866 
      3 O          14.8518  -24.8461  -43.4339 O.2       0 UNK        -0.5176 
      4 N          15.8438  -26.7112  -42.7201 N.am      1 UNK        -0.4884 
      5 CA         16.6105  -27.9530  -42.8483 C.3       1 UNK         0.0853 
      6 C6         15.7582  -29.2052  -42.5180 C.3       10 UNK        -0.0849 
      7 S7         14.6338  -29.6051  -43.8974 S.3       10 UNK        -0.2776 
      8 C8         15.4653  -31.0367  -44.6665 C.3       10 UNK         0.0316 
      9 C9         16.9180  -30.7582  -45.0408 C.ar      10 UNK        -0.0863 
     10 C10        17.9504  -31.4372  -44.3866 C.ar      10 UNK        -0.1009 
     11 C11        19.2862  -31.2026  -44.7262 C.ar      10 UNK        -0.0712 
     12 C12        19.5870  -30.2870  -45.7377 C.ar      10 UNK        -0.0894 
     13 C13        18.5653  -29.6040  -46.4052 C.ar      10 UNK        -0.0745 
     14 C14        17.2324  -29.8453  -46.0531 C.ar      10 UNK        -0.0972 
     15 C15        18.8934  -28.6387  -47.5359 C.3       10 UNK         0.0209 
     16 S16        19.2934  -26.9712  -46.9250 S.3       10 UNK        -0.2568 
     17 C17        21.1007  -27.0750  -46.6839 C.3       10 UNK        -0.0983 
     18 CA         21.5681  -26.3105  -45.4238 C.3       3 UNK         0.0876 
     19 N          20.9376  -26.8162  -44.2011 N.am      3 UNK        -0.4424 
     20 C          21.0521  -26.2629  -42.9845 C.2       2 UNK         0.4918 
     21 O          21.7611  -25.2839  -42.7425 O.2       2 UNK        -0.4875 
     22 CA         20.1619  -26.8643  -41.8858 C.3       2 UNK         0.0481 
     23 CB         20.1273  -26.0086  -40.6024 C.3       2 UNK        -0.1831 
     24 N          18.8201  -27.0404  -42.4402 N.am      2 UNK        -0.4498 
     25 C          17.8499  -27.8196  -41.9527 C.2       1 UNK         0.5027 
     26 O          17.8982  -28.3891  -40.8621 O.2       1 UNK        -0.4969 
     27 C          23.1024  -26.3340  -45.3005 C.2       3 UNK         0.5005 
     28 O          23.6600  -27.3533  -44.8893 O.2       3 UNK        -0.5279 
     29 N          23.7451  -25.1956  -45.6043 N.am      4 UNK        -0.4463 
     30 CA         25.1864  -24.9329  -45.4625 C.3       4 UNK         0.0283 
     31 CB         25.9908  -25.7680  -46.4819 C.3       4 UNK        -0.1875 
     32 C          25.7175  -25.1018  -44.0202 C.2       4 UNK         0.4949 
     33 O          26.9138  -25.3320  -43.8391 O.2       4 UNK        -0.5039 
     34 N          24.8185  -24.9990  -43.0269 N.am      5 UNK        -0.4663 
     35 CA         25.0317  -25.2547  -41.5976 C.3       5 UNK         0.0242 
     36 CB         25.9909  -24.2109  -40.9851 C.3       5 UNK        -0.1982 
     37 C          25.4447  -26.7100  -41.2890 C.2       5 UNK         0.5017 
     38 O          26.1504  -26.9426  -40.3051 O.2       5 UNK        -0.5012 
     39 N          25.0064  -27.6647  -42.1257 N.am      6 UNK        -0.4439 
     40 CA         25.2525  -29.0983  -41.9552 C.3       6 UNK         0.0297 
     41 CB         24.7795  -29.8507  -43.2083 C.3       6 UNK        -0.2006 
     42 C          24.5720  -29.6668  -40.6974 C.2       6 UNK         0.4892 
     43 O          23.4650  -29.2485  -40.3481 O.2       6 UNK        -0.5089 
     44 N          25.2538  -30.6199  -40.0530 N.am      7 UNK        -0.4243 
     45 CA         24.7688  -31.3396  -38.8769 C.3       7 UNK         0.0196 
     46 CB         25.9784  -31.8740  -38.0911 C.3       7 UNK        -0.2007 
     47 C          23.8353  -32.4947  -39.2720 C.2       7 UNK         0.5020 
     48 O          23.9206  -33.0037  -40.3915 O.2       7 UNK        -0.5147 
     49 N          22.9930  -32.9086  -38.3149 N.am      8 UNK        -0.4734 
     50 CA         22.0533  -34.0403  -38.3766 C.3       8 UNK         0.0238 
     51 CB         22.8053  -35.3758  -38.5686 C.3       8 UNK        -0.1912 
     52 C          20.8929  -33.8706  -39.3800 C.2       8 UNK         0.5038 
     53 O          20.2266  -34.8570  -39.6996 O.2       8 UNK        -0.5046 
     54 N          20.6420  -32.6345  -39.8306 N.am      9 UNK        -0.4200 
     55 CA         19.5084  -32.2761  -40.6980 C.3       9 UNK         0.0839 
     56 C          18.1292  -32.2380  -39.9772 C.2       9 UNK         0.5513 
     57 N          18.0663  -32.2521  -38.6507 N.am      9 UNK        -0.7519 
     58 O          17.0957  -32.2111  -40.6398 O.2       9 UNK        -0.4960 
     59 C59        19.7644  -30.9520  -41.4604 C.3       10 UNK        -0.0876 
     60 S60        21.1447  -31.0445  -42.6466 S.3       10 UNK        -0.2414 
     61 C61        20.4033  -31.9696  -44.0309 C.3       10 UNK         0.0169 
     62 H62        15.3590  -25.4579  -45.8172 H         1 UNK         0.0903 
     63 H63        16.8903  -26.1568  -45.3076 H         1 UNK         0.0903 
     64 H64        15.4422  -27.1719  -45.4393 H         1 UNK         0.0903 
     65 H65        15.6216  -26.4572  -41.7670 H         1 UNK         0.3096 
     66 H66        17.0005  -28.0784  -43.8586 H         1 UNK         0.1121 
     67 H67        15.1708  -29.0488  -41.6116 H         1 UNK         0.0849 
     68 H68        16.3870  -30.0743  -42.3166 H         1 UNK         0.0849 
     69 H69        15.3983  -31.8869  -43.9855 H         1 UNK         0.0865 
     70 H70        14.9148  -31.3244  -45.5632 H         1 UNK         0.0865 
     71 H71        17.7153  -32.1535  -43.6106 H         1 UNK         0.1346 
     72 H72        20.6190  -30.1243  -46.0132 H         1 UNK         0.1412 
     73 H73        16.4359  -29.3269  -46.5696 H         1 UNK         0.1426 
     74 H74        18.0407  -28.5603  -48.2122 H         1 UNK         0.0716 
     75 H75        19.7162  -29.0251  -48.1394 H         1 UNK         0.0716 
     76 H76        21.5740  -26.6619  -47.5768 H         1 UNK         0.0695 
     77 H77        21.4144  -28.1177  -46.6327 H         1 UNK         0.0695 
     78 H78        21.2522  -25.2702  -45.5297 H         1 UNK         0.0983 
     79 H79        20.3774  -27.6482  -44.3107 H         1 UNK         0.3095 
     80 H80        20.5746  -27.8453  -41.6423 H         1 UNK         0.0454 
     81 H81        19.7149  -25.0173  -40.7926 H         1 UNK         0.0851 
     82 H82        21.1307  -25.8747  -40.1963 H         1 UNK         0.0851 
     83 H83        19.5284  -26.4771  -39.8219 H         1 UNK         0.0851 
     84 H84        18.6573  -26.5573  -43.3135 H         1 UNK         0.2976 
     85 H85        23.1948  -24.4057  -45.9150 H         1 UNK         0.3116 
     86 H86        25.3299  -23.8806  -45.7121 H         1 UNK         0.0646 
     87 H87        25.6123  -25.6320  -47.4948 H         1 UNK         0.0847 
     88 H88        25.9548  -26.8330  -46.2500 H         1 UNK         0.0847 
     89 H89        27.0411  -25.4739  -46.4895 H         1 UNK         0.0847 
     90 H90        23.8517  -24.8315  -43.2825 H         1 UNK         0.3040 
     91 H91        24.0589  -25.1212  -41.1213 H         1 UNK         0.1015 
     92 H92        27.0102  -24.3305  -41.3533 H         1 UNK         0.0786 
     93 H93        26.0266  -24.3023  -39.8989 H         1 UNK         0.0786 
     94 H94        25.6685  -23.1946  -41.2117 H         1 UNK         0.0786 
     95 H95        24.4509  -27.3966  -42.9314 H         1 UNK         0.3172 
     96 H96        26.3316  -29.2369  -41.8605 H         1 UNK         0.0595 
     97 H97        24.9332  -30.9259  -43.1060 H         1 UNK         0.0839 
     98 H98        25.3234  -29.5262  -44.0956 H         1 UNK         0.0839 
     99 H99        23.7168  -29.6904  -43.3930 H         1 UNK         0.0839 
    100 H100       26.1299  -30.9375  -40.4416 H         1 UNK         0.2998 
    101 H101       24.2175  -30.6438  -38.2399 H         1 UNK         0.0822 
    102 H102       26.6434  -31.0649  -37.7879 H         1 UNK         0.0787 
    103 H103       25.6620  -32.3877  -37.1822 H         1 UNK         0.0787 
    104 H104       26.5605  -32.5846  -38.6796 H         1 UNK         0.0787 
    105 H105       23.0086  -32.4157  -37.4314 H         1 UNK         0.3055 
    106 H106       21.5761  -34.0817  -37.3960 H         1 UNK         0.1106 
    107 H107       23.2432  -35.4561  -39.5639 H         1 UNK         0.0828 
    108 H108       22.1340  -36.2263  -38.4430 H         1 UNK         0.0828 
    109 H109       23.6066  -35.4898  -37.8387 H         1 UNK         0.0828 
    110 H110       21.2459  -31.8803  -39.5407 H         1 UNK         0.2931 
    111 H111       19.4131  -33.0671  -41.4433 H         1 UNK         0.0412 
    112 H112       17.1642  -32.2333  -38.2012 H         1 UNK         0.3472 
    113 H113       18.9060  -32.2727  -38.0954 H         1 UNK         0.3472 
    114 H114       19.9813  -30.1510  -40.7517 H         1 UNK         0.0970 
    115 H115       18.8744  -30.6298  -41.9983 H         1 UNK         0.0970 
    116 H116       21.1902  -32.1961  -44.7518 H         1 UNK         0.0612 
    117 H117       20.0401  -32.9346  -43.6761 H         1 UNK         0.0612 
@<TRIPOS>BOND
     1    1    2 1    
     2    1   62 1    
     3    1   63 1    
     4    1   64 1    
     5    2    3 2    
     6    2    4 am   BACKBONE|DICT|INTERRES
     7    4    5 1    
     8    4   65 1    
     9    5    6 1    
    10    5   25 1    
    11    5   66 1    
    12    6    7 1    
    13    6   67 1    
    14    6   68 1    
    15    7    8 1    
    16    8    9 1    
    17    8   69 1    
    18    8   70 1    
    19    9   10 ar   
    20    9   14 ar   
    21   10   11 ar   
    22   10   71 1    
    23   11   12 ar   
    24   11   61 1    
    25   12   13 ar   
    26   12   72 1    
    27   13   14 ar   
    28   13   15 1    
    29   14   73 1    
    30   15   16 1    
    31   15   74 1    
    32   15   75 1    
    33   16   17 1    
    34   17   18 1    
    35   17   76 1    
    36   17   77 1    
    37   18   19 1    
    38   18   27 1    
    39   18   78 1    
    40   19   20 am   BACKBONE|DICT|INTERRES
    41   19   79 1    
    42   20   21 2    
    43   20   22 1    
    44   22   23 1    
    45   22   24 1    
    46   22   80 1    
    47   23   81 1    
    48   23   82 1    
    49   23   83 1    
    50   24   25 am   BACKBONE|DICT|INTERRES
    51   24   84 1    
    52   25   26 2    
    53   27   28 2    
    54   27   29 am   BACKBONE|DICT|INTERRES
    55   29   30 1    
    56   29   85 1    
    57   30   31 1    
    58   30   32 1    
    59   30   86 1    
    60   31   87 1    
    61   31   88 1    
    62   31   89 1    
    63   32   33 2    
    64   32   34 am   BACKBONE|DICT|INTERRES
    65   34   35 1    
    66   34   90 1    
    67   35   36 1    
    68   35   37 1    
    69   35   91 1    
    70   36   92 1    
    71   36   93 1    
    72   36   94 1    
    73   37   38 2    
    74   37   39 am   BACKBONE|DICT|INTERRES
    75   39   40 1    
    76   39   95 1    
    77   40   41 1    
    78   40   42 1    
    79   40   96 1    
    80   41   97 1    
    81   41   98 1    
    82   41   99 1    
    83   42   43 2    
    84   42   44 am   BACKBONE|DICT|INTERRES
    85   44   45 1    
    86   44  100 1    
    87   45   46 1    
    88   45   47 1    
    89   45  101 1    
    90   46  102 1    
    91   46  103 1    
    92   46  104 1    
    93   47   48 2    
    94   47   49 am   BACKBONE|DICT|INTERRES
    95   49   50 1    
    96   49  105 1    
    97   50   51 1    
    98   50   52 1    
    99   50  106 1    
   100   51  107 1    
   101   51  108 1    
   102   51  109 1    
   103   52   53 2    
   104   52   54 am   BACKBONE|DICT|INTERRES
   105   54   55 1    
   106   54  110 1    
   107   55   56 1    
   108   55   59 1    
   109   55  111 1    
   110   56   57 am   BACKBONE|DICT|INTERRES
   111   56   58 2    
   112   57  112 1    
   113   57  113 1    
   114   59   60 1    
   115   59  114 1    
   116   59  115 1    
   117   60   61 1    
   118   61  116 1    
   119   61  117 1    
@<TRIPOS>SUBSTRUCTURE
     1 UNK         1 GROUP             0       ****    0 ROOT    
