@<TRIPOS>MOLECULE
3R8
117   119    1
SMALL
USER_CHARGES


@<TRIPOS>ATOM
      1 CA         17.0026  -25.4684  -39.9779 C.3       0 UNK        -0.2013 
      2 C          15.6164  -26.0785  -40.1775 C.2       0 UNK         0.4866 
      3 O          14.8613  -26.1803  -39.2125 O.2       0 UNK        -0.5176 
      4 N          15.2220  -26.4825  -41.3942 N.am      1 UNK        -0.4884 
      5 CA         16.0179  -26.5119  -42.6268 C.3       1 UNK         0.0853 
      6 C6         15.1155  -26.7932  -43.8547 C.3       10 UNK        -0.0849 
      7 S7         15.9380  -26.4620  -45.4555 S.3       10 UNK        -0.2776 
      8 C8         15.5944  -27.9896  -46.3909 C.3       10 UNK         0.0316 
      9 C9         16.7022  -29.0300  -46.2636 C.ar      10 UNK        -0.0863 
     10 C10        16.7517  -29.8885  -45.1600 C.ar      10 UNK        -0.1009 
     11 C11        17.7308  -30.8846  -45.0736 C.ar      10 UNK        -0.0712 
     12 C12        18.6457  -31.0369  -46.1190 C.ar      10 UNK        -0.0894 
     13 C13        18.6117  -30.1853  -47.2256 C.ar      10 UNK        -0.0745 
     14 C14        17.6456  -29.1759  -47.2870 C.ar      10 UNK        -0.0972 
     15 C15        19.5919  -30.3936  -48.3712 C.3       10 UNK         0.0209 
     16 S16        21.3018  -29.9817  -47.9020 S.3       10 UNK        -0.2568 
     17 C17        21.2451  -28.1564  -47.8413 C.3       10 UNK        -0.0983 
     18 CA         21.5665  -27.5530  -46.4513 C.3       3 UNK         0.0876 
     19 N          20.6566  -28.0401  -45.4089 N.am      3 UNK        -0.4424 
     20 C          20.3865  -27.3703  -44.2832 C.2       2 UNK         0.4918 
     21 O          20.8181  -26.2441  -44.0297 O.2       2 UNK        -0.4875 
     22 CA         19.4670  -28.0576  -43.2743 C.3       2 UNK         0.0481 
     23 CB         20.1972  -28.3588  -41.9549 C.3       2 UNK        -0.1831 
     24 N          18.3232  -27.1840  -43.0616 N.am      2 UNK        -0.4498 
     25 C          17.1533  -27.5496  -42.5307 C.2       1 UNK         0.5027 
     26 O          16.9324  -28.6488  -42.0185 O.2       1 UNK        -0.4969 
     27 C          23.0520  -27.7347  -46.0673 C.2       3 UNK         0.5005 
     28 O          23.8970  -26.9793  -46.5520 O.2       3 UNK        -0.5279 
     29 N          23.3465  -28.7223  -45.2082 N.am      4 UNK        -0.4463 
     30 CA         24.6756  -28.9878  -44.6600 C.3       4 UNK         0.0283 
     31 CB         24.6817  -30.3762  -43.9983 C.3       4 UNK        -0.1875 
     32 C          25.0676  -27.9104  -43.6392 C.2       4 UNK         0.4949 
     33 O          24.2618  -27.5875  -42.7647 O.2       4 UNK        -0.5039 
     34 N          26.3100  -27.4168  -43.7299 N.am      5 UNK        -0.4663 
     35 CA         26.8637  -26.3637  -42.8656 C.3       5 UNK         0.0242 
     36 CB         28.2450  -25.9480  -43.3970 C.3       5 UNK        -0.1982 
     37 C          26.9534  -26.7458  -41.3761 C.2       5 UNK         0.5017 
     38 O          26.9153  -25.8605  -40.5214 O.2       5 UNK        -0.5012 
     39 N          27.0443  -28.0528  -41.0949 N.am      6 UNK        -0.4439 
     40 CA         26.9991  -28.6315  -39.7499 C.3       6 UNK         0.0297 
     41 CB         27.5581  -30.0636  -39.8091 C.3       6 UNK        -0.2006 
     42 C          25.5895  -28.6357  -39.1236 C.2       6 UNK         0.4892 
     43 O          25.4813  -28.8800  -37.9216 O.2       6 UNK        -0.5089 
     44 N          24.5458  -28.4009  -39.9382 N.am      7 UNK        -0.4243 
     45 CA         23.1178  -28.4303  -39.5951 C.3       7 UNK         0.0196 
     46 CB         22.7553  -27.2806  -38.6320 C.3       7 UNK        -0.2007 
     47 C          22.6336  -29.8082  -39.0976 C.2       7 UNK         0.5020 
     48 O          21.7238  -29.8797  -38.2704 O.2       7 UNK        -0.5147 
     49 N          23.2565  -30.8805  -39.6094 N.am      8 UNK        -0.4734 
     50 CA         23.1123  -32.2626  -39.1369 C.3       8 UNK         0.0238 
     51 CB         24.0825  -33.1651  -39.9169 C.3       8 UNK        -0.1912 
     52 C          21.6841  -32.8316  -39.1935 C.2       8 UNK         0.5038 
     53 O          21.3206  -33.6146  -38.3146 O.2       8 UNK        -0.5046 
     54 N          20.9106  -32.4300  -40.2093 N.am      9 UNK        -0.4200 
     55 CA         19.4961  -32.7959  -40.3797 C.3       9 UNK         0.0839 
     56 C          18.4932  -31.7766  -39.7633 C.2       9 UNK         0.5513 
     57 N          18.9374  -30.7360  -39.0667 N.am      9 UNK        -0.7519 
     58 O          17.2844  -31.9529  -39.8909 O.2       9 UNK        -0.4960 
     59 C59        19.1756  -33.1742  -41.8499 C.3       10 UNK        -0.0876 
     60 S60        19.4123  -31.8232  -43.0553 S.3       10 UNK        -0.2414 
     61 C61        17.7802  -31.8185  -43.8707 C.3       10 UNK         0.0169 
     62 H62        17.7687  -26.2434  -39.9788 H         1 UNK         0.0903 
     63 H63        17.2385  -24.7354  -40.7479 H         1 UNK         0.0903 
     64 H64        17.0542  -24.9554  -39.0176 H         1 UNK         0.0903 
     65 H65        14.3052  -26.8988  -41.4729 H         1 UNK         0.3096 
     66 H66        16.4544  -25.5200  -42.7589 H         1 UNK         0.1121 
     67 H67        14.2357  -26.1484  -43.8176 H         1 UNK         0.0849 
     68 H68        14.7311  -27.8142  -43.8236 H         1 UNK         0.0849 
     69 H69        14.6398  -28.4182  -46.0825 H         1 UNK         0.0865 
     70 H70        15.4637  -27.7202  -47.4402 H         1 UNK         0.0865 
     71 H71        16.0233  -29.7860  -44.3679 H         1 UNK         0.1346 
     72 H72        19.3886  -31.8220  -46.0708 H         1 UNK         0.1412 
     73 H73        17.6075  -28.5226  -48.1483 H         1 UNK         0.1426 
     74 H74        19.3040  -29.8114  -49.2481 H         1 UNK         0.0716 
     75 H75        19.5579  -31.4397  -48.6789 H         1 UNK         0.0716 
     76 H76        20.2585  -27.8154  -48.1580 H         1 UNK         0.0695 
     77 H77        21.9363  -27.7693  -48.5924 H         1 UNK         0.0695 
     78 H78        21.4154  -26.4745  -46.5409 H         1 UNK         0.0983 
     79 H79        20.2213  -28.9369  -45.5793 H         1 UNK         0.3095 
     80 H80        19.1136  -28.9932  -43.7031 H         1 UNK         0.0454 
     81 H81        21.0692  -28.9871  -42.1380 H         1 UNK         0.0851 
     82 H82        19.5563  -28.8957  -41.2559 H         1 UNK         0.0851 
     83 H83        20.5367  -27.4445  -41.4672 H         1 UNK         0.0851 
     84 H84        18.4179  -26.2655  -43.4760 H         1 UNK         0.2976 
     85 H85        22.5861  -29.2784  -44.8481 H         1 UNK         0.3116 
     86 H86        25.3949  -28.9891  -45.4818 H         1 UNK         0.0646 
     87 H87        25.6682  -30.6158  -43.5994 H         1 UNK         0.0847 
     88 H88        23.9723  -30.4356  -43.1715 H         1 UNK         0.0847 
     89 H89        24.4265  -31.1576  -44.7144 H         1 UNK         0.0847 
     90 H90        26.9080  -27.7465  -44.4751 H         1 UNK         0.3040 
     91 H91        26.1969  -25.5009  -42.9318 H         1 UNK         0.1015 
     92 H92        28.6719  -25.1470  -42.7914 H         1 UNK         0.0786 
     93 H93        28.1823  -25.5774  -44.4204 H         1 UNK         0.0786 
     94 H94        28.9512  -26.7792  -43.3819 H         1 UNK         0.0786 
     95 H95        27.0912  -28.6972  -41.8706 H         1 UNK         0.3172 
     96 H96        27.6444  -28.0391  -39.0977 H         1 UNK         0.0595 
     97 H97        26.9573  -30.7083  -40.4519 H         1 UNK         0.0839 
     98 H98        27.5739  -30.5185  -38.8175 H         1 UNK         0.0839 
     99 H99        28.5823  -30.0756  -40.1826 H         1 UNK         0.0839 
    100 H100       24.7369  -28.1733  -40.9094 H         1 UNK         0.2998 
    101 H101       22.5958  -28.2446  -40.5314 H         1 UNK         0.0822 
    102 H102       21.6752  -27.2096  -38.4967 H         1 UNK         0.0787 
    103 H103       23.1977  -27.4240  -37.6458 H         1 UNK         0.0787 
    104 H104       23.0960  -26.3195  -39.0171 H         1 UNK         0.0787 
    105 H105       23.9831  -30.7145  -40.2896 H         1 UNK         0.3055 
    106 H106       23.4115  -32.2717  -38.0862 H         1 UNK         0.1106 
    107 H107       25.1170  -32.8491  -39.7807 H         1 UNK         0.0828 
    108 H108       24.0158  -34.1988  -39.5742 H         1 UNK         0.0828 
    109 H109       23.8668  -33.1624  -40.9861 H         1 UNK         0.0828 
    110 H110       21.2823  -31.7716  -40.8773 H         1 UNK         0.2931 
    111 H111       19.3187  -33.7096  -39.8096 H         1 UNK         0.0412 
    112 H112       18.2677  -30.0960  -38.6714 H         1 UNK         0.3472 
    113 H113       19.9266  -30.5944  -38.8969 H         1 UNK         0.3472 
    114 H114       19.8139  -34.0043  -42.1557 H         1 UNK         0.0970 
    115 H115       18.1566  -33.5591  -41.9188 H         1 UNK         0.0970 
    116 H116       17.0252  -31.5400  -43.1333 H         1 UNK         0.0612 
    117 H117       17.5395  -32.8286  -44.2047 H         1 UNK         0.0612 
@<TRIPOS>BOND
     1    1    2 1    
     2    1   62 1    
     3    1   63 1    
     4    1   64 1    
     5    2    3 2    
     6    2    4 am   BACKBONE|DICT|INTERRES
     7    4    5 1    
     8    4   65 1    
     9    5    6 1    
    10    5   25 1    
    11    5   66 1    
    12    6    7 1    
    13    6   67 1    
    14    6   68 1    
    15    7    8 1    
    16    8    9 1    
    17    8   69 1    
    18    8   70 1    
    19    9   10 ar   
    20    9   14 ar   
    21   10   11 ar   
    22   10   71 1    
    23   11   12 ar   
    24   11   61 1    
    25   12   13 ar   
    26   12   72 1    
    27   13   14 ar   
    28   13   15 1    
    29   14   73 1    
    30   15   16 1    
    31   15   74 1    
    32   15   75 1    
    33   16   17 1    
    34   17   18 1    
    35   17   76 1    
    36   17   77 1    
    37   18   19 1    
    38   18   27 1    
    39   18   78 1    
    40   19   20 am   BACKBONE|DICT|INTERRES
    41   19   79 1    
    42   20   21 2    
    43   20   22 1    
    44   22   23 1    
    45   22   24 1    
    46   22   80 1    
    47   23   81 1    
    48   23   82 1    
    49   23   83 1    
    50   24   25 am   BACKBONE|DICT|INTERRES
    51   24   84 1    
    52   25   26 2    
    53   27   28 2    
    54   27   29 am   BACKBONE|DICT|INTERRES
    55   29   30 1    
    56   29   85 1    
    57   30   31 1    
    58   30   32 1    
    59   30   86 1    
    60   31   87 1    
    61   31   88 1    
    62   31   89 1    
    63   32   33 2    
    64   32   34 am   BACKBONE|DICT|INTERRES
    65   34   35 1    
    66   34   90 1    
    67   35   36 1    
    68   35   37 1    
    69   35   91 1    
    70   36   92 1    
    71   36   93 1    
    72   36   94 1    
    73   37   38 2    
    74   37   39 am   BACKBONE|DICT|INTERRES
    75   39   40 1    
    76   39   95 1    
    77   40   41 1    
    78   40   42 1    
    79   40   96 1    
    80   41   97 1    
    81   41   98 1    
    82   41   99 1    
    83   42   43 2    
    84   42   44 am   BACKBONE|DICT|INTERRES
    85   44   45 1    
    86   44  100 1    
    87   45   46 1    
    88   45   47 1    
    89   45  101 1    
    90   46  102 1    
    91   46  103 1    
    92   46  104 1    
    93   47   48 2    
    94   47   49 am   BACKBONE|DICT|INTERRES
    95   49   50 1    
    96   49  105 1    
    97   50   51 1    
    98   50   52 1    
    99   50  106 1    
   100   51  107 1    
   101   51  108 1    
   102   51  109 1    
   103   52   53 2    
   104   52   54 am   BACKBONE|DICT|INTERRES
   105   54   55 1    
   106   54  110 1    
   107   55   56 1    
   108   55   59 1    
   109   55  111 1    
   110   56   57 am   BACKBONE|DICT|INTERRES
   111   56   58 2    
   112   57  112 1    
   113   57  113 1    
   114   59   60 1    
   115   59  114 1    
   116   59  115 1    
   117   60   61 1    
   118   61  116 1    
   119   61  117 1    
@<TRIPOS>SUBSTRUCTURE
     1 UNK         1 GROUP             0       ****    0 ROOT    
