@<TRIPOS>MOLECULE
3R8
117   119    1
SMALL
USER_CHARGES


@<TRIPOS>ATOM
      1 CA         16.0383  -25.4205  -46.4196 C.3       0 UNK        -0.2013 
      2 C          17.4812  -25.0623  -46.7431 C.2       0 UNK         0.4866 
      3 O          17.7977  -23.8783  -46.8587 O.2       0 UNK        -0.5176 
      4 N          18.3526  -26.0681  -46.9119 N.am      1 UNK        -0.4884 
      5 CA         19.7665  -25.8928  -47.2642 C.3       1 UNK         0.0853 
      6 C6         20.4076  -27.2030  -47.8039 C.3       10 UNK        -0.0849 
      7 S7         20.6127  -28.5554  -46.5852 S.3       10 UNK        -0.2776 
      8 C8         19.1696  -29.6265  -46.8737 C.3       10 UNK         0.0316 
      9 C9         18.4679  -29.9275  -45.5573 C.ar      10 UNK        -0.0863 
     10 C10        18.9001  -30.9821  -44.7468 C.ar      10 UNK        -0.1009 
     11 C11        18.2727  -31.2385  -43.5231 C.ar      10 UNK        -0.0712 
     12 C12        17.2050  -30.4348  -43.1121 C.ar      10 UNK        -0.0894 
     13 C13        16.7712  -29.3739  -43.9104 C.ar      10 UNK        -0.0745 
     14 C14        17.3957  -29.1373  -45.1371 C.ar      10 UNK        -0.0972 
     15 C15        15.6409  -28.4677  -43.4494 C.3       10 UNK         0.0209 
     16 S16        16.2601  -26.8133  -43.0080 S.3       10 UNK        -0.2568 
     17 C17        17.0712  -27.1161  -41.4013 C.3       10 UNK        -0.0983 
     18 CA         18.5921  -27.4068  -41.5026 C.3       3 UNK         0.0876 
     19 N          19.3020  -26.4211  -42.3260 N.am      3 UNK        -0.4424 
     20 C          20.6146  -26.4208  -42.5980 C.2       2 UNK         0.4918 
     21 O          21.4204  -27.2178  -42.1134 O.2       2 UNK        -0.4875 
     22 CA         21.0750  -25.4048  -43.6540 C.3       2 UNK         0.0481 
     23 CB         22.6141  -25.3806  -43.7923 C.3       2 UNK        -0.1831 
     24 N          20.4212  -25.7784  -44.9087 N.am      2 UNK        -0.4498 
     25 C          20.5782  -25.2373  -46.1240 C.2       1 UNK         0.5027 
     26 O          21.2890  -24.2610  -46.3678 O.2       1 UNK        -0.4969 
     27 C          19.2071  -27.5381  -40.0937 C.2       3 UNK         0.5005 
     28 O          19.1966  -26.5647  -39.3364 O.2       3 UNK        -0.5279 
     29 N          19.7416  -28.7301  -39.7884 N.am      4 UNK        -0.4463 
     30 CA         20.4304  -29.1091  -38.5474 C.3       4 UNK         0.0283 
     31 CB         19.4499  -29.1115  -37.3556 C.3       4 UNK        -0.1875 
     32 C          21.7170  -28.3048  -38.2583 C.2       4 UNK         0.4949 
     33 O          22.1408  -28.2391  -37.1030 O.2       4 UNK        -0.5039 
     34 N          22.3233  -27.7210  -39.2994 N.am      5 UNK        -0.4663 
     35 CA         23.5710  -26.9654  -39.2379 C.3       5 UNK         0.0242 
     36 CB         23.2734  -25.4752  -39.5059 C.3       5 UNK        -0.1982 
     37 C          24.5623  -27.6110  -40.2164 C.2       5 UNK         0.5017 
     38 O          24.9407  -28.7643  -40.0048 O.2       5 UNK        -0.5012 
     39 N          24.9633  -26.8859  -41.2690 N.am      6 UNK        -0.4439 
     40 CA         25.8633  -27.3409  -42.3346 C.3       6 UNK         0.0297 
     41 CB         26.4907  -26.1084  -43.0133 C.3       6 UNK        -0.2006 
     42 C          25.1560  -28.2757  -43.3399 C.2       6 UNK         0.4892 
     43 O          25.1195  -27.9860  -44.5371 O.2       6 UNK        -0.5089 
     44 N          24.6013  -29.3761  -42.8282 N.am      7 UNK        -0.4243 
     45 CA         23.8750  -30.4077  -43.5593 C.3       7 UNK         0.0196 
     46 CB         22.3744  -30.0657  -43.5538 C.3       7 UNK        -0.2007 
     47 C          24.1372  -31.7610  -42.8887 C.2       7 UNK         0.5020 
     48 O          24.7048  -31.8066  -41.7946 O.2       7 UNK        -0.5147 
     49 N          23.6900  -32.8471  -43.5336 N.am      8 UNK        -0.4734 
     50 CA         23.8301  -34.2287  -43.0471 C.3       8 UNK         0.0238 
     51 CB         23.2958  -35.1974  -44.1147 C.3       8 UNK        -0.1912 
     52 C          23.1496  -34.4975  -41.6902 C.2       8 UNK         0.5038 
     53 O          23.5988  -35.3754  -40.9524 O.2       8 UNK        -0.5046 
     54 N          22.0978  -33.7284  -41.3879 N.am      9 UNK        -0.4200 
     55 CA         21.4097  -33.6892  -40.0914 C.3       9 UNK         0.0839 
     56 C          22.1236  -32.8350  -39.0010 C.2       9 UNK         0.5513 
     57 N          23.2175  -32.1404  -39.2909 N.am      9 UNK        -0.7519 
     58 O          21.6780  -32.8124  -37.8568 O.2       9 UNK        -0.4960 
     59 C59        19.9163  -33.3027  -40.2587 C.3       10 UNK        -0.0876 
     60 S60        19.6537  -31.7543  -41.1948 S.3       10 UNK        -0.2414 
     61 C61        18.7415  -32.3800  -42.6373 C.3       10 UNK         0.0169 
     62 H62        15.8630  -26.4947  -46.4306 H         1 UNK         0.0903 
     63 H63        15.7701  -25.0401  -45.4346 H         1 UNK         0.0903 
     64 H64        15.3691  -24.9662  -47.1497 H         1 UNK         0.0903 
     65 H65        18.0442  -27.0221  -46.8130 H         1 UNK         0.3096 
     66 H66        19.7897  -25.1787  -48.0913 H         1 UNK         0.1121 
     67 H67        19.8390  -27.5696  -48.6599 H         1 UNK         0.0849 
     68 H68        21.3987  -26.9777  -48.2021 H         1 UNK         0.0849 
     69 H69        18.4743  -29.1639  -47.5753 H         1 UNK         0.0865 
     70 H70        19.5011  -30.5538  -47.3434 H         1 UNK         0.0865 
     71 H71        19.7297  -31.5971  -45.0668 H         1 UNK         0.1346 
     72 H72        16.7265  -30.6270  -42.1614 H         1 UNK         0.1412 
     73 H73        17.0507  -28.3233  -45.7536 H         1 UNK         0.1426 
     74 H74        15.1038  -28.9006  -42.6041 H         1 UNK         0.0716 
     75 H75        14.9123  -28.3668  -44.2552 H         1 UNK         0.0716 
     76 H76        16.5607  -27.9365  -40.8934 H         1 UNK         0.0695 
     77 H77        16.8956  -26.2298  -40.7882 H         1 UNK         0.0695 
     78 H78        18.7154  -28.3625  -42.0146 H         1 UNK         0.0983 
     79 H79        18.7149  -25.7250  -42.7616 H         1 UNK         0.3095 
     80 H80        20.7262  -24.4153  -43.3539 H         1 UNK         0.0454 
     81 H81        22.9911  -26.3230  -44.1898 H         1 UNK         0.0851 
     82 H82        23.0912  -25.2146  -42.8280 H         1 UNK         0.0851 
     83 H83        22.9562  -24.5803  -44.4467 H         1 UNK         0.0851 
     84 H84        19.8258  -26.5942  -44.8480 H         1 UNK         0.2976 
     85 H85        19.7124  -29.4599  -40.4903 H         1 UNK         0.3116 
     86 H86        20.7589  -30.1380  -38.6961 H         1 UNK         0.0646 
     87 H87        19.1264  -28.1033  -37.0955 H         1 UNK         0.0847 
     88 H88        19.9139  -29.5428  -36.4678 H         1 UNK         0.0847 
     89 H89        18.5622  -29.7051  -37.5734 H         1 UNK         0.0847 
     90 H90        21.9181  -27.8216  -40.2257 H         1 UNK         0.3040 
     91 H91        24.0254  -27.0476  -38.2482 H         1 UNK         0.1015 
     92 H92        22.7700  -25.3199  -40.4598 H         1 UNK         0.0786 
     93 H93        24.1855  -24.8768  -39.4977 H         1 UNK         0.0786 
     94 H94        22.6229  -25.0695  -38.7306 H         1 UNK         0.0786 
     95 H95        24.5789  -25.9592  -41.3732 H         1 UNK         0.3172 
     96 H96        26.6741  -27.9150  -41.8809 H         1 UNK         0.0595 
     97 H97        25.7381  -25.4845  -43.4969 H         1 UNK         0.0839 
     98 H98        27.2061  -26.4077  -43.7806 H         1 UNK         0.0839 
     99 H99        27.0305  -25.4902  -42.2958 H         1 UNK         0.0839 
    100 H100       24.7215  -29.5600  -41.8347 H         1 UNK         0.2998 
    101 H101       24.2401  -30.4595  -44.5872 H         1 UNK         0.0822 
    102 H102       22.1911  -29.0946  -44.0139 H         1 UNK         0.0787 
    103 H103       21.7957  -30.7990  -44.1140 H         1 UNK         0.0787 
    104 H104       21.9717  -30.0301  -42.5407 H         1 UNK         0.0787 
    105 H105       23.2349  -32.7273  -44.4277 H         1 UNK         0.3055 
    106 H106       24.8966  -34.4218  -42.9101 H         1 UNK         0.1106 
    107 H107       23.4088  -36.2339  -43.7929 H         1 UNK         0.0828 
    108 H108       22.2364  -35.0332  -44.3161 H         1 UNK         0.0828 
    109 H109       23.8381  -35.0930  -45.0546 H         1 UNK         0.0828 
    110 H110       21.8150  -33.0217  -42.0499 H         1 UNK         0.2931 
    111 H111       21.4172  -34.7058  -39.6934 H         1 UNK         0.0412 
    112 H112       23.6600  -31.6006  -38.5650 H         1 UNK         0.3472 
    113 H113       23.6262  -32.1490  -40.2198 H         1 UNK         0.3472 
    114 H114       19.3957  -34.1193  -40.7610 H         1 UNK         0.0970 
    115 H115       19.4247  -33.2097  -39.2884 H         1 UNK         0.0970 
    116 H116       19.3768  -33.0696  -43.1954 H         1 UNK         0.0612 
    117 H117       17.8758  -32.9528  -42.3012 H         1 UNK         0.0612 
@<TRIPOS>BOND
     1    1    2 1    
     2    1   62 1    
     3    1   63 1    
     4    1   64 1    
     5    2    3 2    
     6    2    4 am   BACKBONE|DICT|INTERRES
     7    4    5 1    
     8    4   65 1    
     9    5    6 1    
    10    5   25 1    
    11    5   66 1    
    12    6    7 1    
    13    6   67 1    
    14    6   68 1    
    15    7    8 1    
    16    8    9 1    
    17    8   69 1    
    18    8   70 1    
    19    9   10 ar   
    20    9   14 ar   
    21   10   11 ar   
    22   10   71 1    
    23   11   12 ar   
    24   11   61 1    
    25   12   13 ar   
    26   12   72 1    
    27   13   14 ar   
    28   13   15 1    
    29   14   73 1    
    30   15   16 1    
    31   15   74 1    
    32   15   75 1    
    33   16   17 1    
    34   17   18 1    
    35   17   76 1    
    36   17   77 1    
    37   18   19 1    
    38   18   27 1    
    39   18   78 1    
    40   19   20 am   BACKBONE|DICT|INTERRES
    41   19   79 1    
    42   20   21 2    
    43   20   22 1    
    44   22   23 1    
    45   22   24 1    
    46   22   80 1    
    47   23   81 1    
    48   23   82 1    
    49   23   83 1    
    50   24   25 am   BACKBONE|DICT|INTERRES
    51   24   84 1    
    52   25   26 2    
    53   27   28 2    
    54   27   29 am   BACKBONE|DICT|INTERRES
    55   29   30 1    
    56   29   85 1    
    57   30   31 1    
    58   30   32 1    
    59   30   86 1    
    60   31   87 1    
    61   31   88 1    
    62   31   89 1    
    63   32   33 2    
    64   32   34 am   BACKBONE|DICT|INTERRES
    65   34   35 1    
    66   34   90 1    
    67   35   36 1    
    68   35   37 1    
    69   35   91 1    
    70   36   92 1    
    71   36   93 1    
    72   36   94 1    
    73   37   38 2    
    74   37   39 am   BACKBONE|DICT|INTERRES
    75   39   40 1    
    76   39   95 1    
    77   40   41 1    
    78   40   42 1    
    79   40   96 1    
    80   41   97 1    
    81   41   98 1    
    82   41   99 1    
    83   42   43 2    
    84   42   44 am   BACKBONE|DICT|INTERRES
    85   44   45 1    
    86   44  100 1    
    87   45   46 1    
    88   45   47 1    
    89   45  101 1    
    90   46  102 1    
    91   46  103 1    
    92   46  104 1    
    93   47   48 2    
    94   47   49 am   BACKBONE|DICT|INTERRES
    95   49   50 1    
    96   49  105 1    
    97   50   51 1    
    98   50   52 1    
    99   50  106 1    
   100   51  107 1    
   101   51  108 1    
   102   51  109 1    
   103   52   53 2    
   104   52   54 am   BACKBONE|DICT|INTERRES
   105   54   55 1    
   106   54  110 1    
   107   55   56 1    
   108   55   59 1    
   109   55  111 1    
   110   56   57 am   BACKBONE|DICT|INTERRES
   111   56   58 2    
   112   57  112 1    
   113   57  113 1    
   114   59   60 1    
   115   59  114 1    
   116   59  115 1    
   117   60   61 1    
   118   61  116 1    
   119   61  117 1    
@<TRIPOS>SUBSTRUCTURE
     1 UNK         1 GROUP             0       ****    0 ROOT    
