@<TRIPOS>MOLECULE
3R8
117   119    1
SMALL
USER_CHARGES


@<TRIPOS>ATOM
      1 CA         15.6190  -29.2998  -38.9344 C.3       0 UNK        -0.2013 
      2 C          15.5675  -28.1727  -39.9534 C.2       0 UNK         0.4866 
      3 O          15.4892  -27.0044  -39.5726 O.2       0 UNK        -0.5176 
      4 N          15.6030  -28.5159  -41.2465 N.am      1 UNK        -0.4884 
      5 CA         15.6442  -27.5719  -42.3695 C.3       1 UNK         0.0853 
      6 C6         15.2440  -28.2394  -43.7124 C.3       10 UNK        -0.0849 
      7 S7         16.1249  -29.8058  -44.0477 S.3       10 UNK        -0.2776 
      8 C8         17.2417  -29.3470  -45.4203 C.3       10 UNK         0.0316 
      9 C9         18.5184  -30.1866  -45.4672 C.ar      10 UNK        -0.0863 
     10 C10        18.5184  -31.5382  -45.1057 C.ar      10 UNK        -0.1009 
     11 C11        19.7055  -32.2720  -45.0799 C.ar      10 UNK        -0.0712 
     12 C12        20.8984  -31.6636  -45.4784 C.ar      10 UNK        -0.0894 
     13 C13        20.9113  -30.3285  -45.8931 C.ar      10 UNK        -0.0745 
     14 C14        19.7180  -29.5977  -45.8816 C.ar      10 UNK        -0.0972 
     15 C15        22.2109  -29.6962  -46.3768 C.3       10 UNK         0.0209 
     16 S16        22.9424  -28.5693  -45.1470 S.3       10 UNK        -0.2568 
     17 C17        22.3188  -26.9531  -45.7363 C.3       10 UNK        -0.0983 
     18 CA         22.1542  -25.8789  -44.6250 C.3       3 UNK         0.0876 
     19 N          21.3528  -26.3340  -43.4944 N.am      3 UNK        -0.4424 
     20 C          20.0497  -26.6217  -43.5010 C.2       2 UNK         0.4918 
     21 O          19.3329  -26.5066  -44.4967 O.2       2 UNK        -0.4875 
     22 CA         19.4939  -27.1487  -42.1614 C.3       2 UNK         0.0481 
     23 CB         19.7102  -26.1410  -41.0115 C.3       2 UNK        -0.1831 
     24 N          18.0927  -27.5828  -42.1965 N.am      2 UNK        -0.4498 
     25 C          17.0018  -26.8442  -42.4602 C.2       1 UNK         0.5027 
     26 O          17.0183  -25.6402  -42.7234 O.2       1 UNK        -0.4969 
     27 C          23.5072  -25.4029  -44.0686 C.2       3 UNK         0.5005 
     28 O          23.7949  -25.6261  -42.8874 O.2       3 UNK        -0.5279 
     29 N          24.3354  -24.7955  -44.9310 N.am      4 UNK        -0.4463 
     30 CA         25.6804  -24.2954  -44.6113 C.3       4 UNK         0.0283 
     31 CB         26.2518  -23.5639  -45.8367 C.3       4 UNK        -0.1875 
     32 C          26.6700  -25.3724  -44.1221 C.2       4 UNK         0.4949 
     33 O          27.6384  -25.0329  -43.4425 O.2       4 UNK        -0.5039 
     34 N          26.4020  -26.6453  -44.4473 N.am      5 UNK        -0.4663 
     35 CA         27.1362  -27.8096  -43.9436 C.3       5 UNK         0.0242 
     36 CB         26.8630  -29.0092  -44.8668 C.3       5 UNK        -0.1982 
     37 C          26.7990  -28.1659  -42.4809 C.2       5 UNK         0.5017 
     38 O          27.5006  -28.9961  -41.9022 O.2       5 UNK        -0.5012 
     39 N          25.7414  -27.5568  -41.9168 N.am      6 UNK        -0.4439 
     40 CA         25.2190  -27.7490  -40.5579 C.3       6 UNK         0.0297 
     41 CB         26.2330  -27.2619  -39.5007 C.3       6 UNK        -0.2006 
     42 C          24.7138  -29.1820  -40.2972 C.2       6 UNK         0.4892 
     43 O          24.8611  -29.6952  -39.1867 O.2       6 UNK        -0.5089 
     44 N          24.1198  -29.7998  -41.3290 N.am      7 UNK        -0.4243 
     45 CA         23.5689  -31.1574  -41.2846 C.3       7 UNK         0.0196 
     46 CB         23.2689  -31.6220  -42.7181 C.3       7 UNK        -0.2007 
     47 C          22.3071  -31.2782  -40.4118 C.2       7 UNK         0.5020 
     48 O          22.0813  -32.3379  -39.8260 O.2       7 UNK        -0.5147 
     49 N          21.5174  -30.1945  -40.3470 N.am      8 UNK        -0.4734 
     50 CA         20.2248  -30.0399  -39.6641 C.3       8 UNK         0.0238 
     51 CB         20.3495  -30.2358  -38.1390 C.3       8 UNK        -0.1912 
     52 C          19.1150  -30.9128  -40.2735 C.2       8 UNK         0.5038 
     53 O          18.1807  -30.3671  -40.8620 O.2       8 UNK        -0.5046 
     54 N          19.2522  -32.2363  -40.1231 N.am      9 UNK        -0.4200 
     55 CA         18.3374  -33.2831  -40.6087 C.3       9 UNK         0.0839 
     56 C          16.9091  -33.2279  -39.9861 C.2       9 UNK         0.5513 
     57 N          16.7500  -32.7078  -38.7746 N.am      9 UNK        -0.7519 
     58 O          15.9387  -33.6873  -40.5832 O.2       9 UNK        -0.4960 
     59 C59        18.3335  -33.3949  -42.1584 C.3       10 UNK        -0.0876 
     60 S60        19.9772  -33.8413  -42.8196 S.3       10 UNK        -0.2414 
     61 C61        19.6985  -33.7191  -44.6137 C.3       10 UNK         0.0169 
     62 H62        15.4971  -30.2728  -39.4093 H         1 UNK         0.0903 
     63 H63        16.5771  -29.2926  -38.4155 H         1 UNK         0.0903 
     64 H64        14.8262  -29.1817  -38.1964 H         1 UNK         0.0903 
     65 H65        15.7147  -29.4889  -41.5009 H         1 UNK         0.3096 
     66 H66        14.9012  -26.7971  -42.1652 H         1 UNK         0.1121 
     67 H67        15.3656  -27.5465  -44.5475 H         1 UNK         0.0849 
     68 H68        14.1782  -28.4715  -43.6868 H         1 UNK         0.0849 
     69 H69        16.7090  -29.4484  -46.3665 H         1 UNK         0.0865 
     70 H70        17.5054  -28.2932  -45.3215 H         1 UNK         0.0865 
     71 H71        17.5955  -32.0185  -44.8136 H         1 UNK         0.1346 
     72 H72        21.8173  -32.2338  -45.4677 H         1 UNK         0.1412 
     73 H73        19.7193  -28.5632  -46.1912 H         1 UNK         0.1426 
     74 H74        22.0408  -29.1704  -47.3174 H         1 UNK         0.0716 
     75 H75        22.9436  -30.4730  -46.6007 H         1 UNK         0.0716 
     76 H76        21.3577  -27.0982  -46.2260 H         1 UNK         0.0695 
     77 H77        22.9812  -26.6005  -46.5284 H         1 UNK         0.0695 
     78 H78        21.6592  -25.0033  -45.0503 H         1 UNK         0.0983 
     79 H79        21.8956  -26.4075  -42.6431 H         1 UNK         0.3095 
     80 H80        20.0666  -28.0487  -41.9389 H         1 UNK         0.0454 
     81 H81        19.2474  -25.1775  -41.2279 H         1 UNK         0.0851 
     82 H82        20.7692  -25.9571  -40.8294 H         1 UNK         0.0851 
     83 H83        19.2863  -26.5081  -40.0767 H         1 UNK         0.0851 
     84 H84        17.9412  -28.5657  -41.9928 H         1 UNK         0.2976 
     85 H85        24.0249  -24.6569  -45.8825 H         1 UNK         0.3116 
     86 H86        25.5732  -23.5705  -43.8016 H         1 UNK         0.0646 
     87 H87        26.3581  -24.2313  -46.6928 H         1 UNK         0.0847 
     88 H88        27.2393  -23.1529  -45.6211 H         1 UNK         0.0847 
     89 H89        25.6168  -22.7297  -46.1356 H         1 UNK         0.0847 
     90 H90        25.5892  -26.8326  -45.0168 H         1 UNK         0.3040 
     91 H91        28.2049  -27.5864  -43.9812 H         1 UNK         0.1015 
     92 H92        25.8151  -29.3084  -44.8443 H         1 UNK         0.0786 
     93 H93        27.4525  -29.8760  -44.5644 H         1 UNK         0.0786 
     94 H94        27.1277  -28.7854  -45.9003 H         1 UNK         0.0786 
     95 H95        25.2255  -26.8796  -42.4733 H         1 UNK         0.3172 
     96 H96        24.3408  -27.1062  -40.4835 H         1 UNK         0.0595 
     97 H97        27.1187  -27.8969  -39.4644 H         1 UNK         0.0839 
     98 H98        25.7908  -27.2662  -38.5037 H         1 UNK         0.0839 
     99 H99        26.5589  -26.2420  -39.7044 H         1 UNK         0.0839 
    100 H100       24.0613  -29.3114  -42.2110 H         1 UNK         0.2998 
    101 H101       24.3291  -31.8172  -40.8606 H         1 UNK         0.0822 
    102 H102       22.9010  -32.6490  -42.7266 H         1 UNK         0.0787 
    103 H103       22.5058  -31.0004  -43.1876 H         1 UNK         0.0787 
    104 H104       24.1606  -31.5914  -43.3446 H         1 UNK         0.0787 
    105 H105       21.8167  -29.3947  -40.8847 H         1 UNK         0.3055 
    106 H106       19.9194  -29.0047  -39.8166 H         1 UNK         0.1106 
    107 H107       19.3943  -30.0528  -37.6452 H         1 UNK         0.0828 
    108 H108       20.6646  -31.2438  -37.8695 H         1 UNK         0.0828 
    109 H109       21.0713  -29.5394  -37.7122 H         1 UNK         0.0828 
    110 H110       20.1185  -32.5616  -39.7068 H         1 UNK         0.2931 
    111 H111       18.7504  -34.2180  -40.2284 H         1 UNK         0.0412 
    112 H112       15.8315  -32.6929  -38.3607 H         1 UNK         0.3472 
    113 H113       17.5421  -32.3531  -38.2637 H         1 UNK         0.3472 
    114 H114       17.6288  -34.1578  -42.4937 H         1 UNK         0.0970 
    115 H115       17.9990  -32.4534  -42.5924 H         1 UNK         0.0970 
    116 H116       18.7566  -34.2038  -44.8755 H         1 UNK         0.0612 
    117 H117       20.4824  -34.2768  -45.1284 H         1 UNK         0.0612 
@<TRIPOS>BOND
     1    1    2 1    
     2    1   62 1    
     3    1   63 1    
     4    1   64 1    
     5    2    3 2    
     6    2    4 am   BACKBONE|DICT|INTERRES
     7    4    5 1    
     8    4   65 1    
     9    5    6 1    
    10    5   25 1    
    11    5   66 1    
    12    6    7 1    
    13    6   67 1    
    14    6   68 1    
    15    7    8 1    
    16    8    9 1    
    17    8   69 1    
    18    8   70 1    
    19    9   10 ar   
    20    9   14 ar   
    21   10   11 ar   
    22   10   71 1    
    23   11   12 ar   
    24   11   61 1    
    25   12   13 ar   
    26   12   72 1    
    27   13   14 ar   
    28   13   15 1    
    29   14   73 1    
    30   15   16 1    
    31   15   74 1    
    32   15   75 1    
    33   16   17 1    
    34   17   18 1    
    35   17   76 1    
    36   17   77 1    
    37   18   19 1    
    38   18   27 1    
    39   18   78 1    
    40   19   20 am   BACKBONE|DICT|INTERRES
    41   19   79 1    
    42   20   21 2    
    43   20   22 1    
    44   22   23 1    
    45   22   24 1    
    46   22   80 1    
    47   23   81 1    
    48   23   82 1    
    49   23   83 1    
    50   24   25 am   BACKBONE|DICT|INTERRES
    51   24   84 1    
    52   25   26 2    
    53   27   28 2    
    54   27   29 am   BACKBONE|DICT|INTERRES
    55   29   30 1    
    56   29   85 1    
    57   30   31 1    
    58   30   32 1    
    59   30   86 1    
    60   31   87 1    
    61   31   88 1    
    62   31   89 1    
    63   32   33 2    
    64   32   34 am   BACKBONE|DICT|INTERRES
    65   34   35 1    
    66   34   90 1    
    67   35   36 1    
    68   35   37 1    
    69   35   91 1    
    70   36   92 1    
    71   36   93 1    
    72   36   94 1    
    73   37   38 2    
    74   37   39 am   BACKBONE|DICT|INTERRES
    75   39   40 1    
    76   39   95 1    
    77   40   41 1    
    78   40   42 1    
    79   40   96 1    
    80   41   97 1    
    81   41   98 1    
    82   41   99 1    
    83   42   43 2    
    84   42   44 am   BACKBONE|DICT|INTERRES
    85   44   45 1    
    86   44  100 1    
    87   45   46 1    
    88   45   47 1    
    89   45  101 1    
    90   46  102 1    
    91   46  103 1    
    92   46  104 1    
    93   47   48 2    
    94   47   49 am   BACKBONE|DICT|INTERRES
    95   49   50 1    
    96   49  105 1    
    97   50   51 1    
    98   50   52 1    
    99   50  106 1    
   100   51  107 1    
   101   51  108 1    
   102   51  109 1    
   103   52   53 2    
   104   52   54 am   BACKBONE|DICT|INTERRES
   105   54   55 1    
   106   54  110 1    
   107   55   56 1    
   108   55   59 1    
   109   55  111 1    
   110   56   57 am   BACKBONE|DICT|INTERRES
   111   56   58 2    
   112   57  112 1    
   113   57  113 1    
   114   59   60 1    
   115   59  114 1    
   116   59  115 1    
   117   60   61 1    
   118   61  116 1    
   119   61  117 1    
@<TRIPOS>SUBSTRUCTURE
     1 UNK         1 GROUP             0       ****    0 ROOT    
