@<TRIPOS>MOLECULE
3R8
117   119    1
SMALL
USER_CHARGES


@<TRIPOS>ATOM
      1 CA         20.7969  -24.3510  -39.3769 C.3       0 UNK        -0.2013 
      2 C          19.3662  -24.5382  -39.8599 C.2       0 UNK         0.4866 
      3 O          18.4380  -24.0889  -39.1866 O.2       0 UNK        -0.5176 
      4 N          19.1811  -25.1936  -41.0112 N.am      1 UNK        -0.4884 
      5 CA         17.8715  -25.4672  -41.6160 C.3       1 UNK         0.0853 
      6 C6         17.3971  -26.9347  -41.4197 C.3       10 UNK        -0.0849 
      7 S7         18.6559  -28.1889  -41.8389 S.3       10 UNK        -0.2776 
      8 C8         17.9413  -29.0410  -43.2832 C.3       10 UNK         0.0316 
      9 C9         18.9908  -29.8045  -44.0897 C.ar      10 UNK        -0.0863 
     10 C10        19.9910  -30.5500  -43.4540 C.ar      10 UNK        -0.1009 
     11 C11        20.9570  -31.2342  -44.1951 C.ar      10 UNK        -0.0712 
     12 C12        20.9197  -31.1739  -45.5912 C.ar      10 UNK        -0.0894 
     13 C13        19.9232  -30.4417  -46.2455 C.ar      10 UNK        -0.0745 
     14 C14        18.9568  -29.7708  -45.4883 C.ar      10 UNK        -0.0972 
     15 C15        19.8884  -30.3927  -47.7705 C.3       10 UNK         0.0209 
     16 S16        19.9486  -28.6986  -48.4490 S.3       10 UNK        -0.2568 
     17 C17        21.5601  -28.0983  -47.8326 C.3       10 UNK        -0.0983 
     18 CA         21.6587  -26.5443  -47.7696 C.3       3 UNK         0.0876 
     19 N          20.5139  -25.9123  -47.0865 N.am      3 UNK        -0.4424 
     20 C          20.1585  -26.1016  -45.8084 C.2       2 UNK         0.4918 
     21 O          20.8123  -26.7732  -45.0097 O.2       2 UNK        -0.4875 
     22 CA         18.8782  -25.3986  -45.3405 C.3       2 UNK         0.0481 
     23 CB         17.6421  -25.9255  -46.1012 C.3       2 UNK        -0.1831 
     24 N          18.7368  -25.6178  -43.9030 N.am      2 UNK        -0.4498 
     25 C          17.8612  -25.0227  -43.0871 C.2       1 UNK         0.5027 
     26 O          17.0747  -24.1460  -43.4493 O.2       1 UNK        -0.4969 
     27 C          23.0275  -26.0887  -47.2024 C.2       3 UNK         0.5005 
     28 O          24.0322  -26.7700  -47.4162 O.2       3 UNK        -0.5279 
     29 N          23.0361  -24.9617  -46.4686 N.am      4 UNK        -0.4463 
     30 CA         24.1256  -24.4511  -45.6253 C.3       4 UNK         0.0283 
     31 CB         25.3311  -24.0061  -46.4812 C.3       4 UNK        -0.1875 
     32 C          24.5174  -25.4279  -44.4933 C.2       4 UNK         0.4949 
     33 O          25.6818  -25.4612  -44.0912 O.2       4 UNK        -0.5039 
     34 N          23.5444  -26.2074  -44.0041 N.am      5 UNK        -0.4663 
     35 CA         23.7078  -27.2425  -42.9890 C.3       5 UNK         0.0242 
     36 CB         23.6665  -28.6128  -43.6896 C.3       5 UNK        -0.1982 
     37 C          22.6032  -27.1307  -41.9270 C.2       5 UNK         0.5017 
     38 O          21.6735  -26.3297  -42.0676 O.2       5 UNK        -0.5012 
     39 N          22.7428  -27.9464  -40.8775 N.am      6 UNK        -0.4439 
     40 CA         21.7777  -28.1287  -39.7972 C.3       6 UNK         0.0297 
     41 CB         22.4620  -27.8055  -38.4583 C.3       6 UNK        -0.2006 
     42 C          21.2871  -29.5829  -39.8131 C.2       6 UNK         0.4892 
     43 O          21.9626  -30.4551  -40.3642 O.2       6 UNK        -0.5089 
     44 N          20.1358  -29.8228  -39.1715 N.am      7 UNK        -0.4243 
     45 CA         19.4056  -31.0988  -39.1435 C.3       7 UNK         0.0196 
     46 CB         18.0300  -30.8623  -38.4982 C.3       7 UNK        -0.2007 
     47 C          20.1345  -32.2776  -38.4650 C.2       7 UNK         0.5020 
     48 O          19.6332  -33.4019  -38.5111 O.2       7 UNK        -0.5147 
     49 N          21.3109  -32.0234  -37.8759 N.am      8 UNK        -0.4734 
     50 CA         22.2175  -33.0084  -37.2774 C.3       8 UNK         0.0238 
     51 CB         23.4022  -32.2653  -36.6378 C.3       8 UNK        -0.1912 
     52 C          22.7234  -34.0946  -38.2491 C.2       8 UNK         0.5038 
     53 O          23.2092  -35.1247  -37.7794 O.2       8 UNK        -0.5046 
     54 N          22.5901  -33.8702  -39.5654 N.am      9 UNK        -0.4200 
     55 CA         22.8032  -34.8874  -40.6065 C.3       9 UNK         0.0839 
     56 C          21.7912  -36.0743  -40.5823 C.2       9 UNK         0.5513 
     57 N          20.6492  -35.9664  -39.9107 N.am      9 UNK        -0.7519 
     58 O          22.0574  -37.1159  -41.1767 O.2       9 UNK        -0.4960 
     59 C59        22.9262  -34.2572  -42.0198 C.3       10 UNK        -0.0876 
     60 S60        21.3887  -33.4793  -42.6334 S.3       10 UNK        -0.2414 
     61 C61        22.0518  -32.0148  -43.4820 C.3       10 UNK         0.0169 
     62 H62        20.9634  -23.3132  -39.0894 H         1 UNK         0.0903 
     63 H63        20.9827  -24.9792  -38.5065 H         1 UNK         0.0903 
     64 H64        21.5264  -24.6045  -40.1442 H         1 UNK         0.0903 
     65 H65        19.9890  -25.5592  -41.5129 H         1 UNK         0.3096 
     66 H66        17.1201  -24.8372  -41.1342 H         1 UNK         0.1121 
     67 H67        16.4752  -27.1255  -41.9724 H         1 UNK         0.0849 
     68 H68        17.1395  -27.0826  -40.3700 H         1 UNK         0.0849 
     69 H69        17.4442  -28.3055  -43.9160 H         1 UNK         0.0865 
     70 H70        17.1719  -29.7363  -42.9456 H         1 UNK         0.0865 
     71 H71        20.0289  -30.5959  -42.3751 H         1 UNK         0.1346 
     72 H72        21.6691  -31.6973  -46.1689 H         1 UNK         0.1412 
     73 H73        18.1853  -29.2113  -45.9975 H         1 UNK         0.1426 
     74 H74        18.9723  -30.8742  -48.1148 H         1 UNK         0.0716 
     75 H75        20.7136  -30.9656  -48.1964 H         1 UNK         0.0716 
     76 H76        22.3342  -28.5051  -48.4856 H         1 UNK         0.0695 
     77 H77        21.7456  -28.5225  -46.8445 H         1 UNK         0.0695 
     78 H78        21.6336  -26.1755  -48.7962 H         1 UNK         0.0983 
     79 H79        19.9285  -25.3326  -47.6712 H         1 UNK         0.3095 
     80 H80        18.9929  -24.3283  -45.5211 H         1 UNK         0.0454 
     81 H81        17.4920  -26.9912  -45.9368 H         1 UNK         0.0851 
     82 H82        17.7405  -25.7763  -47.1767 H         1 UNK         0.0851 
     83 H83        16.7305  -25.4116  -45.7977 H         1 UNK         0.0851 
     84 H84        19.3808  -26.3103  -43.5307 H         1 UNK         0.2976 
     85 H85        22.1555  -24.4753  -46.3764 H         1 UNK         0.3116 
     86 H86        23.7321  -23.5630  -45.1288 H         1 UNK         0.0646 
     87 H87        25.8316  -24.8539  -46.9497 H         1 UNK         0.0847 
     88 H88        26.0736  -23.4899  -45.8715 H         1 UNK         0.0847 
     89 H89        25.0269  -23.3178  -47.2695 H         1 UNK         0.0847 
     90 H90        22.5948  -26.1195  -44.3552 H         1 UNK         0.3040 
     91 H91        24.6673  -27.1243  -42.4807 H         1 UNK         0.1015 
     92 H92        24.4099  -28.6746  -44.4846 H         1 UNK         0.0786 
     93 H93        22.6882  -28.8026  -44.1351 H         1 UNK         0.0786 
     94 H94        23.8752  -29.4228  -42.9912 H         1 UNK         0.0786 
     95 H95        23.4839  -28.6334  -40.8978 H         1 UNK         0.3172 
     96 H96        20.9187  -27.4685  -39.9300 H         1 UNK         0.0595 
     97 H97        23.2946  -28.4805  -38.2551 H         1 UNK         0.0839 
     98 H98        22.8510  -26.7872  -38.4498 H         1 UNK         0.0839 
     99 H99        21.7618  -27.8897  -37.6263 H         1 UNK         0.0839 
    100 H100       19.6679  -29.0425  -38.7334 H         1 UNK         0.2998 
    101 H101       19.2431  -31.3982  -40.1810 H         1 UNK         0.0822 
    102 H102       17.4312  -31.7743  -38.5018 H         1 UNK         0.0787 
    103 H103       18.1225  -30.5369  -37.4613 H         1 UNK         0.0787 
    104 H104       17.4628  -30.1055  -39.0411 H         1 UNK         0.0787 
    105 H105       21.6485  -31.0732  -37.9206 H         1 UNK         0.3055 
    106 H106       21.6655  -33.5244  -36.4890 H         1 UNK         0.1106 
    107 H107       24.0861  -32.9629  -36.1521 H         1 UNK         0.0828 
    108 H108       23.9770  -31.7094  -37.3798 H         1 UNK         0.0828 
    109 H109       23.0667  -31.5623  -35.8751 H         1 UNK         0.0828 
    110 H110       22.1877  -32.9943  -39.8704 H         1 UNK         0.2931 
    111 H111       23.7749  -35.3359  -40.3901 H         1 UNK         0.0412 
    112 H112       20.4049  -35.1042  -39.4367 H         1 UNK         0.3472 
    113 H113       20.0076  -36.7432  -39.9008 H         1 UNK         0.3472 
    114 H114       23.7275  -33.5166  -42.0127 H         1 UNK         0.0970 
    115 H115       23.2361  -35.0136  -42.7432 H         1 UNK         0.0970 
    116 H116       22.8224  -32.3283  -44.1880 H         1 UNK         0.0612 
    117 H117       22.5412  -31.3698  -42.7533 H         1 UNK         0.0612 
@<TRIPOS>BOND
     1    1    2 1    
     2    1   62 1    
     3    1   63 1    
     4    1   64 1    
     5    2    3 2    
     6    2    4 am   BACKBONE|DICT|INTERRES
     7    4    5 1    
     8    4   65 1    
     9    5    6 1    
    10    5   25 1    
    11    5   66 1    
    12    6    7 1    
    13    6   67 1    
    14    6   68 1    
    15    7    8 1    
    16    8    9 1    
    17    8   69 1    
    18    8   70 1    
    19    9   10 ar   
    20    9   14 ar   
    21   10   11 ar   
    22   10   71 1    
    23   11   12 ar   
    24   11   61 1    
    25   12   13 ar   
    26   12   72 1    
    27   13   14 ar   
    28   13   15 1    
    29   14   73 1    
    30   15   16 1    
    31   15   74 1    
    32   15   75 1    
    33   16   17 1    
    34   17   18 1    
    35   17   76 1    
    36   17   77 1    
    37   18   19 1    
    38   18   27 1    
    39   18   78 1    
    40   19   20 am   BACKBONE|DICT|INTERRES
    41   19   79 1    
    42   20   21 2    
    43   20   22 1    
    44   22   23 1    
    45   22   24 1    
    46   22   80 1    
    47   23   81 1    
    48   23   82 1    
    49   23   83 1    
    50   24   25 am   BACKBONE|DICT|INTERRES
    51   24   84 1    
    52   25   26 2    
    53   27   28 2    
    54   27   29 am   BACKBONE|DICT|INTERRES
    55   29   30 1    
    56   29   85 1    
    57   30   31 1    
    58   30   32 1    
    59   30   86 1    
    60   31   87 1    
    61   31   88 1    
    62   31   89 1    
    63   32   33 2    
    64   32   34 am   BACKBONE|DICT|INTERRES
    65   34   35 1    
    66   34   90 1    
    67   35   36 1    
    68   35   37 1    
    69   35   91 1    
    70   36   92 1    
    71   36   93 1    
    72   36   94 1    
    73   37   38 2    
    74   37   39 am   BACKBONE|DICT|INTERRES
    75   39   40 1    
    76   39   95 1    
    77   40   41 1    
    78   40   42 1    
    79   40   96 1    
    80   41   97 1    
    81   41   98 1    
    82   41   99 1    
    83   42   43 2    
    84   42   44 am   BACKBONE|DICT|INTERRES
    85   44   45 1    
    86   44  100 1    
    87   45   46 1    
    88   45   47 1    
    89   45  101 1    
    90   46  102 1    
    91   46  103 1    
    92   46  104 1    
    93   47   48 2    
    94   47   49 am   BACKBONE|DICT|INTERRES
    95   49   50 1    
    96   49  105 1    
    97   50   51 1    
    98   50   52 1    
    99   50  106 1    
   100   51  107 1    
   101   51  108 1    
   102   51  109 1    
   103   52   53 2    
   104   52   54 am   BACKBONE|DICT|INTERRES
   105   54   55 1    
   106   54  110 1    
   107   55   56 1    
   108   55   59 1    
   109   55  111 1    
   110   56   57 am   BACKBONE|DICT|INTERRES
   111   56   58 2    
   112   57  112 1    
   113   57  113 1    
   114   59   60 1    
   115   59  114 1    
   116   59  115 1    
   117   60   61 1    
   118   61  116 1    
   119   61  117 1    
@<TRIPOS>SUBSTRUCTURE
     1 UNK         1 GROUP             0       ****    0 ROOT    
