@<TRIPOS>MOLECULE
3R8
117   119    1
SMALL
USER_CHARGES


@<TRIPOS>ATOM
      1 CA         20.3039  -24.9509  -49.7343 C.3       0 UNK        -0.2013 
      2 C          19.0802  -24.3421  -49.0550 C.2       0 UNK         0.4866 
      3 O          18.2918  -23.6705  -49.7179 O.2       0 UNK        -0.5176 
      4 N          18.8772  -24.5398  -47.7478 N.am      1 UNK        -0.4884 
      5 CA         19.7353  -25.2688  -46.8160 C.3       1 UNK         0.0853 
      6 C6         19.4036  -26.7847  -46.7965 C.3       10 UNK        -0.0849 
      7 S7         20.7863  -27.7927  -46.1679 S.3       10 UNK        -0.2776 
      8 C8         20.1047  -29.4759  -46.3110 C.3       10 UNK         0.0316 
      9 C9         19.3659  -29.9177  -45.0531 C.ar      10 UNK        -0.0863 
     10 C10        20.0103  -30.7281  -44.1117 C.ar      10 UNK        -0.1009 
     11 C11        19.3246  -31.1959  -42.9867 C.ar      10 UNK        -0.0712 
     12 C12        17.9901  -30.8314  -42.7948 C.ar      10 UNK        -0.0894 
     13 C13        17.3421  -29.9974  -43.7107 C.ar      10 UNK        -0.0745 
     14 C14        18.0301  -29.5563  -44.8461 C.ar      10 UNK        -0.0972 
     15 C15        15.8988  -29.5774  -43.4683 C.3       10 UNK         0.0209 
     16 S16        15.7149  -28.6290  -41.9217 S.3       10 UNK        -0.2568 
     17 C17        16.5745  -27.0682  -42.3198 C.3       10 UNK        -0.0983 
     18 CA         18.0773  -27.0566  -41.9405 C.3       3 UNK         0.0876 
     19 N          18.7423  -25.8809  -42.5036 N.am      3 UNK        -0.4424 
     20 C          20.0513  -25.6138  -42.4212 C.2       2 UNK         0.4918 
     21 O          20.8674  -26.3389  -41.8529 O.2       2 UNK        -0.4875 
     22 CA         20.5232  -24.3580  -43.1706 C.3       2 UNK         0.0481 
     23 CB         21.8921  -23.8518  -42.6811 C.3       2 UNK        -0.1831 
     24 N          20.5925  -24.6693  -44.5981 N.am      2 UNK        -0.4498 
     25 C          19.5405  -24.6432  -45.4260 C.2       1 UNK         0.5027 
     26 O          18.4318  -24.1986  -45.1114 O.2       1 UNK        -0.4969 
     27 C          18.3179  -27.1667  -40.4188 C.2       3 UNK         0.5005 
     28 O          18.2232  -26.1597  -39.7120 O.2       3 UNK        -0.5279 
     29 N          18.6480  -28.3860  -39.9706 N.am      4 UNK        -0.4463 
     30 CA         19.0643  -28.7687  -38.6160 C.3       4 UNK         0.0283 
     31 CB         18.0356  -28.3411  -37.5463 C.3       4 UNK        -0.1875 
     32 C          20.5063  -28.3494  -38.2560 C.2       4 UNK         0.4949 
     33 O          20.8779  -28.4834  -37.0890 O.2       4 UNK        -0.5039 
     34 N          21.3048  -27.8784  -39.2285 N.am      5 UNK        -0.4663 
     35 CA         22.6909  -27.4523  -39.0163 C.3       5 UNK         0.0242 
     36 CB         22.7097  -26.0540  -38.3577 C.3       5 UNK        -0.1982 
     37 C          23.5362  -27.5020  -40.3051 C.2       5 UNK         0.5017 
     38 O          24.4068  -26.6452  -40.4764 O.2       5 UNK        -0.5012 
     39 N          23.2972  -28.4767  -41.1949 N.am      6 UNK        -0.4439 
     40 CA         24.0239  -28.6120  -42.4612 C.3       6 UNK         0.0297 
     41 CB         23.3905  -27.7025  -43.5271 C.3       6 UNK        -0.2006 
     42 C          24.0275  -30.0629  -42.9444 C.2       6 UNK         0.4892 
     43 O          23.1106  -30.8170  -42.6222 O.2       6 UNK        -0.5089 
     44 N          25.0449  -30.4146  -43.7442 N.am      7 UNK        -0.4243 
     45 CA         25.2331  -31.7117  -44.4048 C.3       7 UNK         0.0196 
     46 CB         24.2468  -31.8448  -45.5895 C.3       7 UNK        -0.2007 
     47 C          25.1765  -32.8818  -43.4019 C.2       7 UNK         0.5020 
     48 O          26.0252  -32.9517  -42.5116 O.2       7 UNK        -0.5147 
     49 N          24.1665  -33.7512  -43.5361 N.am      8 UNK        -0.4734 
     50 CA         23.9076  -34.9035  -42.6680 C.3       8 UNK         0.0238 
     51 CB         22.7892  -35.7534  -43.2941 C.3       8 UNK        -0.1912 
     52 C          23.5555  -34.5485  -41.2102 C.2       8 UNK         0.5038 
     53 O          23.6662  -35.4247  -40.3512 O.2       8 UNK        -0.5046 
     54 N          23.1435  -33.3005  -40.9544 N.am      9 UNK        -0.4200 
     55 CA         22.8254  -32.7650  -39.6239 C.3       9 UNK         0.0839 
     56 C          23.7821  -31.6189  -39.1839 C.2       9 UNK         0.5513 
     57 N          24.9157  -31.4114  -39.8455 N.am      9 UNK        -0.7519 
     58 O          23.5146  -30.9264  -38.2065 O.2       9 UNK        -0.4960 
     59 C59        21.3146  -32.4305  -39.4880 C.3       10 UNK        -0.0876 
     60 S60        20.7121  -31.1278  -40.6146 S.3       10 UNK        -0.2414 
     61 C61        20.0160  -32.1009  -41.9797 C.3       10 UNK         0.0169 
     62 H62        21.2029  -24.3969  -49.4658 H         1 UNK         0.0903 
     63 H63        20.4416  -25.9957  -49.4596 H         1 UNK         0.0903 
     64 H64        20.1975  -24.9093  -50.8181 H         1 UNK         0.0903 
     65 H65        18.0864  -24.0984  -47.2930 H         1 UNK         0.3096 
     66 H66        20.7773  -25.1167  -47.1054 H         1 UNK         0.1121 
     67 H67        19.1803  -27.1372  -47.8042 H         1 UNK         0.0849 
     68 H68        18.5042  -26.9812  -46.2112 H         1 UNK         0.0849 
     69 H69        19.4449  -29.5426  -47.1774 H         1 UNK         0.0865 
     70 H70        20.9290  -30.1617  -46.5137 H         1 UNK         0.0865 
     71 H71        21.0444  -31.0074  -44.2587 H         1 UNK         0.1346 
     72 H72        17.4569  -31.1864  -41.9232 H         1 UNK         0.1412 
     73 H73        17.5229  -28.9361  -45.5712 H         1 UNK         0.1426 
     74 H74        15.2769  -30.4715  -43.4084 H         1 UNK         0.0716 
     75 H75        15.5117  -28.9894  -44.3019 H         1 UNK         0.0716 
     76 H76        16.0512  -26.2534  -41.8159 H         1 UNK         0.0695 
     77 H77        16.4583  -26.8798  -43.3885 H         1 UNK         0.0695 
     78 H78        18.5582  -27.9123  -42.4174 H         1 UNK         0.0983 
     79 H79        18.1591  -25.2356  -43.0188 H         1 UNK         0.3095 
     80 H80        19.7968  -23.5612  -42.9963 H         1 UNK         0.0454 
     81 H81        22.1760  -22.9290  -43.1867 H         1 UNK         0.0851 
     82 H82        22.6846  -24.5799  -42.8465 H         1 UNK         0.0851 
     83 H83        21.8667  -23.6411  -41.6112 H         1 UNK         0.0851 
     84 H84        21.4470  -25.1050  -44.9160 H         1 UNK         0.2976 
     85 H85        18.6998  -29.1355  -40.6482 H         1 UNK         0.3116 
     86 H86        19.0681  -29.8587  -38.6132 H         1 UNK         0.0646 
     87 H87        18.0505  -27.2652  -37.3720 H         1 UNK         0.0847 
     88 H88        17.0223  -28.6239  -37.8313 H         1 UNK         0.0847 
     89 H89        18.2475  -28.8211  -36.5903 H         1 UNK         0.0847 
     90 H90        20.9401  -27.7415  -40.1651 H         1 UNK         0.3040 
     91 H91        23.1659  -28.1576  -38.3307 H         1 UNK         0.1015 
     92 H92        23.7282  -25.7329  -38.1359 H         1 UNK         0.0786 
     93 H93        22.1642  -26.0438  -37.4143 H         1 UNK         0.0786 
     94 H94        22.2623  -25.3040  -39.0113 H         1 UNK         0.0786 
     95 H95        22.6151  -29.2023  -41.0065 H         1 UNK         0.3172 
     96 H96        25.0649  -28.3176  -42.3116 H         1 UNK         0.0595 
     97 H97        22.3245  -27.9063  -43.6337 H         1 UNK         0.0839 
     98 H98        23.8517  -27.8445  -44.5052 H         1 UNK         0.0839 
     99 H99        23.5066  -26.6530  -43.2651 H         1 UNK         0.0839 
    100 H100       25.7658  -29.7296  -43.9234 H         1 UNK         0.2998 
    101 H101       26.2446  -31.7124  -44.8137 H         1 UNK         0.0822 
    102 H102       24.4024  -32.7777  -46.1332 H         1 UNK         0.0787 
    103 H103       23.2053  -31.8116  -45.2678 H         1 UNK         0.0787 
    104 H104       24.3896  -31.0351  -46.3053 H         1 UNK         0.0787 
    105 H105       23.5029  -33.5882  -44.2796 H         1 UNK         0.3055 
    106 H106       24.8197  -35.5037  -42.6352 H         1 UNK         0.1106 
    107 H107       23.0601  -36.0952  -44.2932 H         1 UNK         0.0828 
    108 H108       22.5908  -36.6427  -42.6940 H         1 UNK         0.0828 
    109 H109       21.8539  -35.1970  -43.3694 H         1 UNK         0.0828 
    110 H110       23.1066  -32.6180  -41.7065 H         1 UNK         0.2931 
    111 H111       23.0193  -33.5410  -38.8819 H         1 UNK         0.0412 
    112 H112       25.5386  -30.6831  -39.5362 H         1 UNK         0.3472 
    113 H113       25.1666  -31.9898  -40.6359 H         1 UNK         0.3472 
    114 H114       21.0934  -32.1158  -38.4666 H         1 UNK         0.0970 
    115 H115       20.7258  -33.3358  -39.6411 H         1 UNK         0.0970 
    116 H116       19.3063  -32.8300  -41.5861 H         1 UNK         0.0612 
    117 H117       20.8114  -32.6681  -42.4650 H         1 UNK         0.0612 
@<TRIPOS>BOND
     1    1    2 1    
     2    1   62 1    
     3    1   63 1    
     4    1   64 1    
     5    2    3 2    
     6    2    4 am   BACKBONE|DICT|INTERRES
     7    4    5 1    
     8    4   65 1    
     9    5    6 1    
    10    5   25 1    
    11    5   66 1    
    12    6    7 1    
    13    6   67 1    
    14    6   68 1    
    15    7    8 1    
    16    8    9 1    
    17    8   69 1    
    18    8   70 1    
    19    9   10 ar   
    20    9   14 ar   
    21   10   11 ar   
    22   10   71 1    
    23   11   12 ar   
    24   11   61 1    
    25   12   13 ar   
    26   12   72 1    
    27   13   14 ar   
    28   13   15 1    
    29   14   73 1    
    30   15   16 1    
    31   15   74 1    
    32   15   75 1    
    33   16   17 1    
    34   17   18 1    
    35   17   76 1    
    36   17   77 1    
    37   18   19 1    
    38   18   27 1    
    39   18   78 1    
    40   19   20 am   BACKBONE|DICT|INTERRES
    41   19   79 1    
    42   20   21 2    
    43   20   22 1    
    44   22   23 1    
    45   22   24 1    
    46   22   80 1    
    47   23   81 1    
    48   23   82 1    
    49   23   83 1    
    50   24   25 am   BACKBONE|DICT|INTERRES
    51   24   84 1    
    52   25   26 2    
    53   27   28 2    
    54   27   29 am   BACKBONE|DICT|INTERRES
    55   29   30 1    
    56   29   85 1    
    57   30   31 1    
    58   30   32 1    
    59   30   86 1    
    60   31   87 1    
    61   31   88 1    
    62   31   89 1    
    63   32   33 2    
    64   32   34 am   BACKBONE|DICT|INTERRES
    65   34   35 1    
    66   34   90 1    
    67   35   36 1    
    68   35   37 1    
    69   35   91 1    
    70   36   92 1    
    71   36   93 1    
    72   36   94 1    
    73   37   38 2    
    74   37   39 am   BACKBONE|DICT|INTERRES
    75   39   40 1    
    76   39   95 1    
    77   40   41 1    
    78   40   42 1    
    79   40   96 1    
    80   41   97 1    
    81   41   98 1    
    82   41   99 1    
    83   42   43 2    
    84   42   44 am   BACKBONE|DICT|INTERRES
    85   44   45 1    
    86   44  100 1    
    87   45   46 1    
    88   45   47 1    
    89   45  101 1    
    90   46  102 1    
    91   46  103 1    
    92   46  104 1    
    93   47   48 2    
    94   47   49 am   BACKBONE|DICT|INTERRES
    95   49   50 1    
    96   49  105 1    
    97   50   51 1    
    98   50   52 1    
    99   50  106 1    
   100   51  107 1    
   101   51  108 1    
   102   51  109 1    
   103   52   53 2    
   104   52   54 am   BACKBONE|DICT|INTERRES
   105   54   55 1    
   106   54  110 1    
   107   55   56 1    
   108   55   59 1    
   109   55  111 1    
   110   56   57 am   BACKBONE|DICT|INTERRES
   111   56   58 2    
   112   57  112 1    
   113   57  113 1    
   114   59   60 1    
   115   59  114 1    
   116   59  115 1    
   117   60   61 1    
   118   61  116 1    
   119   61  117 1    
@<TRIPOS>SUBSTRUCTURE
     1 UNK         1 GROUP             0       ****    0 ROOT    
