@<TRIPOS>MOLECULE
3R8
117   119    1
SMALL
USER_CHARGES


@<TRIPOS>ATOM
      1 CA         14.3098  -22.3880  -43.3469 C.3       0 UNK        -0.2013 
      2 C          14.3885  -23.7334  -44.0525 C.2       0 UNK         0.4866 
      3 O          13.6995  -23.9431  -45.0510 O.2       0 UNK        -0.5176 
      4 N          15.2240  -24.6477  -43.5426 N.am      1 UNK        -0.4884 
      5 CA         15.4040  -26.0061  -44.0753 C.3       1 UNK         0.0853 
      6 C6         16.1517  -26.9285  -43.0807 C.3       10 UNK        -0.0849 
      7 S7         15.4616  -26.9796  -41.3937 S.3       10 UNK        -0.2776 
      8 C8         16.0891  -28.5897  -40.7958 C.3       10 UNK         0.0316 
      9 C9         17.5479  -28.8326  -41.1721 C.ar      10 UNK        -0.0863 
     10 C10        17.8768  -29.8215  -42.1052 C.ar      10 UNK        -0.1009 
     11 C11        19.2033  -30.0310  -42.4935 C.ar      10 UNK        -0.0712 
     12 C12        20.2080  -29.2472  -41.9124 C.ar      10 UNK        -0.0894 
     13 C13        19.8949  -28.2430  -40.9925 C.ar      10 UNK        -0.0745 
     14 C14        18.5628  -28.0488  -40.6163 C.ar      10 UNK        -0.0972 
     15 C15        20.9922  -27.3624  -40.4065 C.3       10 UNK         0.0209 
     16 S16        22.0941  -26.6477  -41.6739 S.3       10 UNK        -0.2568 
     17 C17        20.9368  -25.7402  -42.7562 C.3       10 UNK        -0.0983 
     18 CA         20.7094  -26.3966  -44.1463 C.3       3 UNK         0.0876 
     19 N          19.7036  -25.6382  -44.8954 N.am      3 UNK        -0.4424 
     20 C          19.2171  -25.9148  -46.1146 C.2       2 UNK         0.4918 
     21 O          19.5526  -26.8834  -46.7973 O.2       2 UNK        -0.4875 
     22 CA         18.1129  -24.9551  -46.6023 C.3       2 UNK         0.0481 
     23 CB         17.6789  -25.1996  -48.0639 C.3       2 UNK        -0.1831 
     24 N          16.9782  -24.9911  -45.6701 N.am      2 UNK        -0.4498 
     25 C          16.1808  -26.0410  -45.4085 C.2       1 UNK         0.5027 
     26 O          16.0998  -27.0455  -46.1164 O.2       1 UNK        -0.4969 
     27 C          22.0198  -26.5359  -44.9534 C.2       3 UNK         0.5005 
     28 O          22.6700  -25.5230  -45.2262 O.2       3 UNK        -0.5279 
     29 N          22.3693  -27.7732  -45.3332 N.am      4 UNK        -0.4463 
     30 CA         23.5797  -28.0799  -46.0989 C.3       4 UNK         0.0283 
     31 CB         23.3529  -29.3442  -46.9436 C.3       4 UNK        -0.1875 
     32 C          24.8161  -28.2540  -45.2038 C.2       4 UNK         0.4949 
     33 O          25.9192  -27.9284  -45.6436 O.2       4 UNK        -0.5039 
     34 N          24.6259  -28.7651  -43.9807 N.am      5 UNK        -0.4663 
     35 CA         25.6804  -29.0284  -43.0042 C.3       5 UNK         0.0242 
     36 CB         26.5078  -30.2633  -43.4205 C.3       5 UNK        -0.1982 
     37 C          25.0610  -29.2292  -41.6162 C.2       5 UNK         0.5017 
     38 O          23.8578  -29.4832  -41.5057 O.2       5 UNK        -0.5012 
     39 N          25.9114  -29.1365  -40.5867 N.am      6 UNK        -0.4439 
     40 CA         25.5748  -29.3579  -39.1788 C.3       6 UNK         0.0297 
     41 CB         26.7986  -28.9951  -38.3196 C.3       6 UNK        -0.2006 
     42 C          25.1164  -30.7987  -38.8834 C.2       6 UNK         0.4892 
     43 O          25.3491  -31.7050  -39.6877 O.2       6 UNK        -0.5089 
     44 N          24.4766  -30.9703  -37.7168 N.am      7 UNK        -0.4243 
     45 CA         23.8944  -32.2213  -37.2085 C.3       7 UNK         0.0196 
     46 CB         24.9970  -33.2563  -36.8946 C.3       7 UNK        -0.2007 
     47 C          22.7882  -32.7762  -38.1288 C.2       7 UNK         0.5020 
     48 O          22.6875  -33.9904  -38.3090 O.2       7 UNK        -0.5147 
     49 N          21.9850  -31.8575  -38.6879 N.am      8 UNK        -0.4734 
     50 CA         20.9096  -32.0828  -39.6588 C.3       8 UNK         0.0238 
     51 CB         19.7449  -32.8741  -39.0253 C.3       8 UNK        -0.1912 
     52 C          21.4315  -32.7110  -40.9651 C.2       8 UNK         0.5038 
     53 O          20.9976  -33.8034  -41.3378 O.2       8 UNK        -0.5046 
     54 N          22.3453  -31.9960  -41.6375 N.am      9 UNK        -0.4200 
     55 CA         22.9608  -32.3778  -42.9187 C.3       9 UNK         0.0839 
     56 C          23.9018  -33.6118  -42.7977 C.2       9 UNK         0.5513 
     57 N          24.6887  -33.7173  -41.7337 N.am      9 UNK        -0.7519 
     58 O          23.9396  -34.4730  -43.6733 O.2       9 UNK        -0.4960 
     59 C59        21.9406  -32.4757  -44.0924 C.3       10 UNK        -0.0876 
     60 S60        21.0802  -30.8987  -44.4287 S.3       10 UNK        -0.2414 
     61 C61        19.5014  -31.1132  -43.5327 C.3       10 UNK         0.0169 
     62 H62        13.2914  -22.2024  -43.0066 H         1 UNK         0.0903 
     63 H63        14.9698  -22.3418  -42.4808 H         1 UNK         0.0903 
     64 H64        14.5915  -21.5880  -44.0312 H         1 UNK         0.0903 
     65 H65        15.7382  -24.4403  -42.6974 H         1 UNK         0.3096 
     66 H66        14.4149  -26.4303  -44.2633 H         1 UNK         0.1121 
     67 H67        16.1600  -27.9480  -43.4724 H         1 UNK         0.0849 
     68 H68        17.1993  -26.6303  -42.9917 H         1 UNK         0.0849 
     69 H69        15.9827  -28.6334  -39.7110 H         1 UNK         0.0865 
     70 H70        15.4534  -29.3819  -41.1946 H         1 UNK         0.0865 
     71 H71        17.0931  -30.4233  -42.5453 H         1 UNK         0.1346 
     72 H72        21.2436  -29.3949  -42.1818 H         1 UNK         0.1412 
     73 H73        18.3077  -27.2736  -39.9065 H         1 UNK         0.1426 
     74 H74        20.5654  -26.5488  -39.8180 H         1 UNK         0.0716 
     75 H75        21.5933  -27.9608  -39.7207 H         1 UNK         0.0716 
     76 H76        21.3227  -24.7260  -42.8756 H         1 UNK         0.0695 
     77 H77        19.9836  -25.6339  -42.2358 H         1 UNK         0.0695 
     78 H78        20.2920  -27.3925  -43.9890 H         1 UNK         0.0983 
     79 H79        19.3688  -24.8040  -44.4379 H         1 UNK         0.3095 
     80 H80        18.5245  -23.9459  -46.5514 H         1 UNK         0.0454 
     81 H81        18.5158  -25.0395  -48.7444 H         1 UNK         0.0851 
     82 H82        16.8834  -24.5165  -48.3607 H         1 UNK         0.0851 
     83 H83        17.3257  -26.2175  -48.2285 H         1 UNK         0.0851 
     84 H84        16.9185  -24.2144  -45.0264 H         1 UNK         0.2976 
     85 H85        21.7702  -28.5539  -45.0984 H         1 UNK         0.3116 
     86 H86        23.7800  -27.2563  -46.7879 H         1 UNK         0.0646 
     87 H87        22.4696  -29.2495  -47.5754 H         1 UNK         0.0847 
     88 H88        24.2036  -29.5258  -47.6018 H         1 UNK         0.0847 
     89 H89        23.2322  -30.2332  -46.3245 H         1 UNK         0.0847 
     90 H90        23.6897  -28.9586  -43.6478 H         1 UNK         0.3040 
     91 H91        26.3318  -28.1528  -42.9568 H         1 UNK         0.1015 
     92 H92        27.0135  -30.1055  -44.3730 H         1 UNK         0.0786 
     93 H93        25.8880  -31.1539  -43.5183 H         1 UNK         0.0786 
     94 H94        27.2814  -30.4888  -42.6855 H         1 UNK         0.0786 
     95 H95        26.8859  -28.9660  -40.7868 H         1 UNK         0.3172 
     96 H96        24.7541  -28.6828  -38.9268 H         1 UNK         0.0595 
     97 H97        27.6491  -29.6429  -38.5369 H         1 UNK         0.0839 
     98 H98        26.5810  -29.0935  -37.2553 H         1 UNK         0.0839 
     99 H99        27.1105  -27.9638  -38.4861 H         1 UNK         0.0839 
    100 H100       24.3466  -30.1608  -37.1250 H         1 UNK         0.2998 
    101 H101       23.4037  -31.9718  -36.2664 H         1 UNK         0.0822 
    102 H102       25.7597  -32.8373  -36.2384 H         1 UNK         0.0787 
    103 H103       24.5809  -34.1292  -36.3901 H         1 UNK         0.0787 
    104 H104       25.4908  -33.6109  -37.7999 H         1 UNK         0.0787 
    105 H105       22.1757  -30.8895  -38.4702 H         1 UNK         0.3055 
    106 H106       20.5178  -31.1000  -39.9209 H         1 UNK         0.1106 
    107 H107       19.3713  -32.3803  -38.1284 H         1 UNK         0.0828 
    108 H108       18.9093  -32.9546  -39.7218 H         1 UNK         0.0828 
    109 H109       20.0384  -33.8883  -38.7534 H         1 UNK         0.0828 
    110 H110       22.6916  -31.1248  -41.2506 H         1 UNK         0.2931 
    111 H111       23.6282  -31.5566  -43.1731 H         1 UNK         0.0412 
    112 H112       24.7156  -32.9931  -41.0214 H         1 UNK         0.3472 
    113 H113       25.2991  -34.5143  -41.6532 H         1 UNK         0.3472 
    114 H114       21.2205  -33.2776  -43.9262 H         1 UNK         0.0970 
    115 H115       22.4621  -32.7427  -45.0132 H         1 UNK         0.0970 
    116 H116       18.7052  -31.1251  -44.2784 H         1 UNK         0.0612 
    117 H117       19.4672  -32.0843  -43.0401 H         1 UNK         0.0612 
@<TRIPOS>BOND
     1    1    2 1    
     2    1   62 1    
     3    1   63 1    
     4    1   64 1    
     5    2    3 2    
     6    2    4 am   BACKBONE|DICT|INTERRES
     7    4    5 1    
     8    4   65 1    
     9    5    6 1    
    10    5   25 1    
    11    5   66 1    
    12    6    7 1    
    13    6   67 1    
    14    6   68 1    
    15    7    8 1    
    16    8    9 1    
    17    8   69 1    
    18    8   70 1    
    19    9   10 ar   
    20    9   14 ar   
    21   10   11 ar   
    22   10   71 1    
    23   11   12 ar   
    24   11   61 1    
    25   12   13 ar   
    26   12   72 1    
    27   13   14 ar   
    28   13   15 1    
    29   14   73 1    
    30   15   16 1    
    31   15   74 1    
    32   15   75 1    
    33   16   17 1    
    34   17   18 1    
    35   17   76 1    
    36   17   77 1    
    37   18   19 1    
    38   18   27 1    
    39   18   78 1    
    40   19   20 am   BACKBONE|DICT|INTERRES
    41   19   79 1    
    42   20   21 2    
    43   20   22 1    
    44   22   23 1    
    45   22   24 1    
    46   22   80 1    
    47   23   81 1    
    48   23   82 1    
    49   23   83 1    
    50   24   25 am   BACKBONE|DICT|INTERRES
    51   24   84 1    
    52   25   26 2    
    53   27   28 2    
    54   27   29 am   BACKBONE|DICT|INTERRES
    55   29   30 1    
    56   29   85 1    
    57   30   31 1    
    58   30   32 1    
    59   30   86 1    
    60   31   87 1    
    61   31   88 1    
    62   31   89 1    
    63   32   33 2    
    64   32   34 am   BACKBONE|DICT|INTERRES
    65   34   35 1    
    66   34   90 1    
    67   35   36 1    
    68   35   37 1    
    69   35   91 1    
    70   36   92 1    
    71   36   93 1    
    72   36   94 1    
    73   37   38 2    
    74   37   39 am   BACKBONE|DICT|INTERRES
    75   39   40 1    
    76   39   95 1    
    77   40   41 1    
    78   40   42 1    
    79   40   96 1    
    80   41   97 1    
    81   41   98 1    
    82   41   99 1    
    83   42   43 2    
    84   42   44 am   BACKBONE|DICT|INTERRES
    85   44   45 1    
    86   44  100 1    
    87   45   46 1    
    88   45   47 1    
    89   45  101 1    
    90   46  102 1    
    91   46  103 1    
    92   46  104 1    
    93   47   48 2    
    94   47   49 am   BACKBONE|DICT|INTERRES
    95   49   50 1    
    96   49  105 1    
    97   50   51 1    
    98   50   52 1    
    99   50  106 1    
   100   51  107 1    
   101   51  108 1    
   102   51  109 1    
   103   52   53 2    
   104   52   54 am   BACKBONE|DICT|INTERRES
   105   54   55 1    
   106   54  110 1    
   107   55   56 1    
   108   55   59 1    
   109   55  111 1    
   110   56   57 am   BACKBONE|DICT|INTERRES
   111   56   58 2    
   112   57  112 1    
   113   57  113 1    
   114   59   60 1    
   115   59  114 1    
   116   59  115 1    
   117   60   61 1    
   118   61  116 1    
   119   61  117 1    
@<TRIPOS>SUBSTRUCTURE
     1 UNK         1 GROUP             0       ****    0 ROOT    
