@<TRIPOS>MOLECULE
3R8
117   119    1
SMALL
USER_CHARGES


@<TRIPOS>ATOM
      1 CA         21.2767  -26.1810  -39.0473 C.3       0 UNK        -0.2013 
      2 C          20.0772  -26.0929  -39.9751 C.2       0 UNK         0.4866 
      3 O          18.9546  -25.9131  -39.5032 O.2       0 UNK        -0.5176 
      4 N          20.3003  -26.2156  -41.2878 N.am      1 UNK        -0.4884 
      5 CA         19.2701  -26.1125  -42.3205 C.3       1 UNK         0.0853 
      6 C6         18.4243  -27.4058  -42.4348 C.3       10 UNK        -0.0849 
      7 S7         16.7652  -27.0938  -43.1161 S.3       10 UNK        -0.2776 
      8 C8         16.0483  -28.7665  -43.0274 C.3       10 UNK         0.0316 
      9 C9         16.8179  -29.7659  -43.8811 C.ar      10 UNK        -0.0863 
     10 C10        17.4588  -30.8586  -43.2916 C.ar      10 UNK        -0.1009 
     11 C11        18.1456  -31.7885  -44.0787 C.ar      10 UNK        -0.0712 
     12 C12        18.2150  -31.5998  -45.4634 C.ar      10 UNK        -0.0894 
     13 C13        17.5873  -30.5044  -46.0674 C.ar      10 UNK        -0.0745 
     14 C14        16.8740  -29.6042  -45.2671 C.ar      10 UNK        -0.0972 
     15 C15        17.6316  -30.3446  -47.5860 C.3       10 UNK         0.0209 
     16 S16        17.7364  -28.6060  -48.1379 S.3       10 UNK        -0.2568 
     17 C17        19.4856  -28.4285  -48.6315 C.3       10 UNK        -0.0983 
     18 CA         20.4542  -27.9114  -47.5303 C.3       3 UNK         0.0876 
     19 N          19.8984  -26.8052  -46.7437 N.am      3 UNK        -0.4424 
     20 C          20.3046  -25.5329  -46.8014 C.2       2 UNK         0.4918 
     21 O          21.1776  -25.1222  -47.5665 O.2       2 UNK        -0.4875 
     22 CA         19.6370  -24.5417  -45.8301 C.3       2 UNK         0.0481 
     23 CB         18.4552  -23.8420  -46.5202 C.3       2 UNK        -0.1831 
     24 N          19.1791  -25.1172  -44.5582 N.am      2 UNK        -0.4498 
     25 C          19.9483  -25.7332  -43.6489 C.2       1 UNK         0.5027 
     26 O          21.1372  -26.0125  -43.8280 O.2       1 UNK        -0.4969 
     27 C          21.0342  -29.0102  -46.6152 C.2       3 UNK         0.5005 
     28 O          21.1430  -30.1636  -47.0363 O.2       3 UNK        -0.5279 
     29 N          21.4402  -28.6241  -45.3977 N.am      4 UNK        -0.4463 
     30 CA         22.1766  -29.4539  -44.4489 C.3       4 UNK         0.0283 
     31 CB         21.3492  -29.6013  -43.1627 C.3       4 UNK        -0.1875 
     32 C          23.5664  -28.8297  -44.2315 C.2       4 UNK         0.4949 
     33 O          24.2035  -28.4336  -45.2103 O.2       4 UNK        -0.5039 
     34 N          24.0247  -28.7557  -42.9768 N.am      5 UNK        -0.4663 
     35 CA         25.2937  -28.1466  -42.5822 C.3       5 UNK         0.0242 
     36 CB         26.3423  -29.2588  -42.3651 C.3       5 UNK        -0.1982 
     37 C          25.0473  -27.2581  -41.3524 C.2       5 UNK         0.5017 
     38 O          24.0215  -26.5773  -41.2965 O.2       5 UNK        -0.5012 
     39 N          25.9689  -27.2892  -40.3786 N.am      6 UNK        -0.4439 
     40 CA         25.8448  -26.6173  -39.0782 C.3       6 UNK         0.0297 
     41 CB         27.2142  -26.6148  -38.3794 C.3       6 UNK        -0.2006 
     42 C          24.7741  -27.2459  -38.1630 C.2       6 UNK         0.4892 
     43 O          24.3237  -26.5902  -37.2231 O.2       6 UNK        -0.5089 
     44 N          24.3809  -28.4880  -38.4650 N.am      7 UNK        -0.4243 
     45 CA         23.2500  -29.2037  -37.8882 C.3       7 UNK         0.0196 
     46 CB         23.7721  -30.4186  -37.1036 C.3       7 UNK        -0.2007 
     47 C          22.3447  -29.6560  -39.0403 C.2       7 UNK         0.5020 
     48 O          22.8012  -29.7446  -40.1855 O.2       7 UNK        -0.5147 
     49 N          21.0836  -29.9679  -38.7199 N.am      8 UNK        -0.4734 
     50 CA         20.0649  -30.4506  -39.6593 C.3       8 UNK         0.0238 
     51 CB         18.6685  -30.1581  -39.0798 C.3       8 UNK        -0.1912 
     52 C          20.2661  -31.9379  -40.0198 C.2       8 UNK         0.5038 
     53 O          19.3918  -32.7645  -39.7561 O.2       8 UNK        -0.5046 
     54 N          21.4327  -32.2382  -40.6019 N.am      9 UNK        -0.4200 
     55 CA         21.8919  -33.5559  -41.0755 C.3       9 UNK         0.0839 
     56 C          22.2469  -34.5666  -39.9435 C.2       9 UNK         0.5513 
     57 N          22.3561  -34.1467  -38.6887 N.am      9 UNK        -0.7519 
     58 O          22.4594  -35.7472  -40.2087 O.2       9 UNK        -0.4960 
     59 C59        20.9828  -34.1883  -42.1714 C.3       10 UNK        -0.0876 
     60 S60        20.5771  -33.0388  -43.5347 S.3       10 UNK        -0.2414 
     61 C61        18.7602  -33.0217  -43.4313 C.3       10 UNK         0.0169 
     62 H62        21.0346  -26.7826  -38.1720 H         1 UNK         0.0903 
     63 H63        22.1308  -26.6370  -39.5434 H         1 UNK         0.0903 
     64 H64        21.5677  -25.1874  -38.7083 H         1 UNK         0.0903 
     65 H65        21.2437  -26.3064  -41.6511 H         1 UNK         0.3096 
     66 H66        18.6199  -25.2797  -42.0405 H         1 UNK         0.1121 
     67 H67        18.2863  -27.8614  -41.4530 H         1 UNK         0.0849 
     68 H68        18.9278  -28.1548  -43.0450 H         1 UNK         0.0849 
     69 H69        16.0140  -29.0860  -41.9845 H         1 UNK         0.0865 
     70 H70        15.0132  -28.7276  -43.3695 H         1 UNK         0.0865 
     71 H71        17.4041  -30.9993  -42.2209 H         1 UNK         0.1346 
     72 H72        18.7489  -32.3179  -46.0710 H         1 UNK         0.1412 
     73 H73        16.3596  -28.7670  -45.7182 H         1 UNK         0.1426 
     74 H74        16.7203  -30.7796  -47.9980 H         1 UNK         0.0716 
     75 H75        18.4603  -30.9152  -48.0077 H         1 UNK         0.0716 
     76 H76        19.4897  -27.7034  -49.4466 H         1 UNK         0.0695 
     77 H77        19.8415  -29.3535  -49.0879 H         1 UNK         0.0695 
     78 H78        21.3396  -27.5532  -48.0602 H         1 UNK         0.0983 
     79 H79        19.1590  -27.0522  -46.1015 H         1 UNK         0.3095 
     80 H80        20.3825  -23.7822  -45.5860 H         1 UNK         0.0454 
     81 H81        18.0388  -23.0521  -45.8950 H         1 UNK         0.0851 
     82 H82        17.6536  -24.5430  -46.7569 H         1 UNK         0.0851 
     83 H83        18.7680  -23.3779  -47.4567 H         1 UNK         0.0851 
     84 H84        18.2028  -24.9781  -44.3354 H         1 UNK         0.2976 
     85 H85        21.3793  -27.6413  -45.1528 H         1 UNK         0.3116 
     86 H86        22.3410  -30.4527  -44.8579 H         1 UNK         0.0646 
     87 H87        20.3462  -29.9634  -43.3843 H         1 UNK         0.0847 
     88 H88        21.2617  -28.6627  -42.6154 H         1 UNK         0.0847 
     89 H89        21.8065  -30.3370  -42.5056 H         1 UNK         0.0847 
     90 H90        23.4289  -29.0487  -42.2097 H         1 UNK         0.3040 
     91 H91        25.6517  -27.4787  -43.3688 H         1 UNK         0.1015 
     92 H92        26.0701  -29.9192  -41.5404 H         1 UNK         0.0786 
     93 H93        27.3306  -28.8464  -42.1590 H         1 UNK         0.0786 
     94 H94        26.4433  -29.8765  -43.2579 H         1 UNK         0.0786 
     95 H95        26.7873  -27.8658  -40.5142 H         1 UNK         0.3172 
     96 H96        25.5509  -25.5811  -39.2590 H         1 UNK         0.0595 
     97 H97        27.5678  -27.6266  -38.1770 H         1 UNK         0.0839 
     98 H98        27.1629  -26.0916  -37.4233 H         1 UNK         0.0839 
     99 H99        27.9681  -26.1079  -38.9821 H         1 UNK         0.0839 
    100 H100       24.7530  -28.9094  -39.3047 H         1 UNK         0.2998 
    101 H101       22.6779  -28.5524  -37.2240 H         1 UNK         0.0822 
    102 H102       24.4460  -30.1101  -36.3040 H         1 UNK         0.0787 
    103 H103       22.9538  -30.9711  -36.6404 H         1 UNK         0.0787 
    104 H104       24.3145  -31.1134  -37.7467 H         1 UNK         0.0787 
    105 H105       20.8016  -29.9082  -37.7514 H         1 UNK         0.3055 
    106 H106       20.1510  -29.8834  -40.5881 H         1 UNK         0.1106 
    107 H107       18.5039  -30.6798  -38.1363 H         1 UNK         0.0828 
    108 H108       17.8845  -30.4754  -39.7686 H         1 UNK         0.0828 
    109 H109       18.5280  -29.0911  -38.9043 H         1 UNK         0.0828 
    110 H110       22.1014  -31.4811  -40.7003 H         1 UNK         0.2931 
    111 H111       22.8490  -33.3459  -41.5542 H         1 UNK         0.0412 
    112 H112       22.5970  -34.8070  -37.9661 H         1 UNK         0.3472 
    113 H113       22.1819  -33.1828  -38.4571 H         1 UNK         0.3472 
    114 H114       20.0680  -34.5770  -41.7216 H         1 UNK         0.0970 
    115 H115       21.4797  -35.0529  -42.6149 H         1 UNK         0.0970 
    116 H116       18.4557  -33.0783  -42.3854 H         1 UNK         0.0612 
    117 H117       18.3686  -33.9184  -43.9132 H         1 UNK         0.0612 
@<TRIPOS>BOND
     1    1    2 1    
     2    1   62 1    
     3    1   63 1    
     4    1   64 1    
     5    2    3 2    
     6    2    4 am   BACKBONE|DICT|INTERRES
     7    4    5 1    
     8    4   65 1    
     9    5    6 1    
    10    5   25 1    
    11    5   66 1    
    12    6    7 1    
    13    6   67 1    
    14    6   68 1    
    15    7    8 1    
    16    8    9 1    
    17    8   69 1    
    18    8   70 1    
    19    9   10 ar   
    20    9   14 ar   
    21   10   11 ar   
    22   10   71 1    
    23   11   12 ar   
    24   11   61 1    
    25   12   13 ar   
    26   12   72 1    
    27   13   14 ar   
    28   13   15 1    
    29   14   73 1    
    30   15   16 1    
    31   15   74 1    
    32   15   75 1    
    33   16   17 1    
    34   17   18 1    
    35   17   76 1    
    36   17   77 1    
    37   18   19 1    
    38   18   27 1    
    39   18   78 1    
    40   19   20 am   BACKBONE|DICT|INTERRES
    41   19   79 1    
    42   20   21 2    
    43   20   22 1    
    44   22   23 1    
    45   22   24 1    
    46   22   80 1    
    47   23   81 1    
    48   23   82 1    
    49   23   83 1    
    50   24   25 am   BACKBONE|DICT|INTERRES
    51   24   84 1    
    52   25   26 2    
    53   27   28 2    
    54   27   29 am   BACKBONE|DICT|INTERRES
    55   29   30 1    
    56   29   85 1    
    57   30   31 1    
    58   30   32 1    
    59   30   86 1    
    60   31   87 1    
    61   31   88 1    
    62   31   89 1    
    63   32   33 2    
    64   32   34 am   BACKBONE|DICT|INTERRES
    65   34   35 1    
    66   34   90 1    
    67   35   36 1    
    68   35   37 1    
    69   35   91 1    
    70   36   92 1    
    71   36   93 1    
    72   36   94 1    
    73   37   38 2    
    74   37   39 am   BACKBONE|DICT|INTERRES
    75   39   40 1    
    76   39   95 1    
    77   40   41 1    
    78   40   42 1    
    79   40   96 1    
    80   41   97 1    
    81   41   98 1    
    82   41   99 1    
    83   42   43 2    
    84   42   44 am   BACKBONE|DICT|INTERRES
    85   44   45 1    
    86   44  100 1    
    87   45   46 1    
    88   45   47 1    
    89   45  101 1    
    90   46  102 1    
    91   46  103 1    
    92   46  104 1    
    93   47   48 2    
    94   47   49 am   BACKBONE|DICT|INTERRES
    95   49   50 1    
    96   49  105 1    
    97   50   51 1    
    98   50   52 1    
    99   50  106 1    
   100   51  107 1    
   101   51  108 1    
   102   51  109 1    
   103   52   53 2    
   104   52   54 am   BACKBONE|DICT|INTERRES
   105   54   55 1    
   106   54  110 1    
   107   55   56 1    
   108   55   59 1    
   109   55  111 1    
   110   56   57 am   BACKBONE|DICT|INTERRES
   111   56   58 2    
   112   57  112 1    
   113   57  113 1    
   114   59   60 1    
   115   59  114 1    
   116   59  115 1    
   117   60   61 1    
   118   61  116 1    
   119   61  117 1    
@<TRIPOS>SUBSTRUCTURE
     1 UNK         1 GROUP             0       ****    0 ROOT    
