@<TRIPOS>MOLECULE
3R8
117   119    1
SMALL
USER_CHARGES


@<TRIPOS>ATOM
      1 CA         15.3042  -24.3522  -41.7835 C.3       0 UNK        -0.2013 
      2 C          15.9217  -24.6210  -43.1478 C.2       0 UNK         0.4866 
      3 O          15.9019  -23.7442  -44.0127 O.2       0 UNK        -0.5176 
      4 N          16.4607  -25.8292  -43.3504 N.am      1 UNK        -0.4884 
      5 CA         17.1431  -26.2469  -44.5799 C.3       1 UNK         0.0853 
      6 C6         17.3403  -27.7817  -44.6324 C.3       10 UNK        -0.0849 
      7 S7         15.7656  -28.7032  -44.5969 S.3       10 UNK        -0.2776 
      8 C8         16.1889  -30.1857  -45.5714 C.3       10 UNK         0.0316 
      9 C9         17.3672  -30.9397  -44.9698 C.ar      10 UNK        -0.0863 
     10 C10        17.2041  -31.6746  -43.7929 C.ar      10 UNK        -0.1009 
     11 C11        18.2882  -32.3369  -43.2070 C.ar      10 UNK        -0.0712 
     12 C12        19.5419  -32.2678  -43.8244 C.ar      10 UNK        -0.0894 
     13 C13        19.7177  -31.5521  -45.0139 C.ar      10 UNK        -0.0745 
     14 C14        18.6218  -30.8965  -45.5842 C.ar      10 UNK        -0.0972 
     15 C15        21.0845  -31.5251  -45.6947 C.3       10 UNK         0.0209 
     16 S16        21.6147  -29.8563  -46.2107 S.3       10 UNK        -0.2568 
     17 C17        21.8037  -29.0430  -44.5946 C.3       10 UNK        -0.0983 
     18 CA         22.3014  -27.5853  -44.7167 C.3       3 UNK         0.0876 
     19 N          21.3225  -26.7525  -45.4196 N.am      3 UNK        -0.4424 
     20 C          21.4890  -25.4786  -45.7989 C.2       2 UNK         0.4918 
     21 O          22.5545  -24.8689  -45.7092 O.2       2 UNK        -0.4875 
     22 CA         20.2440  -24.7473  -46.3425 C.3       2 UNK         0.0481 
     23 CB         20.3225  -24.6288  -47.8730 C.3       2 UNK        -0.1831 
     24 N          18.9567  -25.3565  -45.9717 N.am      2 UNK        -0.4498 
     25 C          18.5090  -25.5442  -44.7200 C.2       1 UNK         0.5027 
     26 O          19.1611  -25.2599  -43.7108 O.2       1 UNK        -0.4969 
     27 C          22.6793  -27.0305  -43.3237 C.2       3 UNK         0.5005 
     28 O          23.7833  -27.3134  -42.8584 O.2       3 UNK        -0.5279 
     29 N          21.7756  -26.2631  -42.6860 N.am      4 UNK        -0.4463 
     30 CA         21.9852  -25.4407  -41.4826 C.3       4 UNK         0.0283 
     31 CB         22.7531  -24.1607  -41.8729 C.3       4 UNK        -0.1875 
     32 C          22.6347  -26.1641  -40.2818 C.2       4 UNK         0.4949 
     33 O          23.4160  -25.5543  -39.5506 O.2       4 UNK        -0.5039 
     34 N          22.3226  -27.4582  -40.1204 N.am      5 UNK        -0.4663 
     35 CA         22.8730  -28.3996  -39.1344 C.3       5 UNK         0.0242 
     36 CB         22.5281  -27.9677  -37.6936 C.3       5 UNK        -0.1982 
     37 C          24.3709  -28.7253  -39.3111 C.2       5 UNK         0.5017 
     38 O          24.9343  -29.4029  -38.4504 O.2       5 UNK        -0.5012 
     39 N          24.9866  -28.2968  -40.4239 N.am      6 UNK        -0.4439 
     40 CA         26.3453  -28.6849  -40.8129 C.3       6 UNK         0.0297 
     41 CB         26.9349  -27.6349  -41.7680 C.3       6 UNK        -0.2006 
     42 C          26.3682  -30.0815  -41.4568 C.2       6 UNK         0.4892 
     43 O          27.3764  -30.7796  -41.3434 O.2       6 UNK        -0.5089 
     44 N          25.2546  -30.4680  -42.0927 N.am      7 UNK        -0.4243 
     45 CA         25.0020  -31.8007  -42.6242 C.3       7 UNK         0.0196 
     46 CB         24.9666  -31.7511  -44.1616 C.3       7 UNK        -0.2007 
     47 C          23.6716  -32.2839  -42.0398 C.2       7 UNK         0.5020 
     48 O          22.6210  -31.7527  -42.4085 O.2       7 UNK        -0.5147 
     49 N          23.7544  -33.2613  -41.1267 N.am      8 UNK        -0.4734 
     50 CA         22.6793  -33.9878  -40.4332 C.3       8 UNK         0.0238 
     51 CB         21.9149  -34.9046  -41.4085 C.3       8 UNK        -0.1912 
     52 C          21.7175  -33.1205  -39.5994 C.2       8 UNK         0.5038 
     53 O          21.6568  -33.2901  -38.3812 O.2       8 UNK        -0.5046 
     54 N          20.9764  -32.2322  -40.2647 N.am      9 UNK        -0.4200 
     55 CA         19.9734  -31.3317  -39.6852 C.3       9 UNK         0.0839 
     56 C          19.7852  -30.0106  -40.4838 C.2       9 UNK         0.5513 
     57 N          20.5316  -29.7632  -41.5553 N.am      9 UNK        -0.7519 
     58 O          18.9742  -29.1710  -40.1045 O.2       9 UNK        -0.4960 
     59 C59        18.6520  -32.0756  -39.3193 C.3       10 UNK        -0.0876 
     60 S60        17.3406  -32.1686  -40.5933 S.3       10 UNK        -0.2414 
     61 C61        18.0892  -33.1537  -41.9331 C.3       10 UNK         0.0169 
     62 H62        14.2494  -24.1008  -41.8917 H         1 UNK         0.0903 
     63 H63        15.3807  -25.2163  -41.1238 H         1 UNK         0.0903 
     64 H64        15.8074  -23.5135  -41.3032 H         1 UNK         0.0903 
     65 H65        16.4550  -26.5106  -42.6048 H         1 UNK         0.3096 
     66 H66        16.5196  -25.9465  -45.4254 H         1 UNK         0.1121 
     67 H67        17.9563  -28.1268  -43.7989 H         1 UNK         0.0849 
     68 H68        17.8755  -28.0587  -45.5425 H         1 UNK         0.0849 
     69 H69        15.3200  -30.8441  -45.6134 H         1 UNK         0.0865 
     70 H70        16.3988  -29.8932  -46.6015 H         1 UNK         0.0865 
     71 H71        16.2314  -31.7175  -43.3219 H         1 UNK         0.1346 
     72 H72        20.3838  -32.7832  -43.3893 H         1 UNK         0.1412 
     73 H73        18.7510  -30.3441  -46.5047 H         1 UNK         0.1426 
     74 H74        21.0440  -32.1652  -46.5766 H         1 UNK         0.0716 
     75 H75        21.8504  -31.9484  -45.0433 H         1 UNK         0.0716 
     76 H76        22.4892  -29.6389  -43.9920 H         1 UNK         0.0695 
     77 H77        20.8363  -29.0715  -44.0937 H         1 UNK         0.0695 
     78 H78        23.2189  -27.5818  -45.3092 H         1 UNK         0.0983 
     79 H79        20.4258  -27.1802  -45.5891 H         1 UNK         0.3095 
     80 H80        20.2575  -23.7397  -45.9222 H         1 UNK         0.0454 
     81 H81        20.2849  -25.6057  -48.3566 H         1 UNK         0.0851 
     82 H82        21.2530  -24.1496  -48.1809 H         1 UNK         0.0851 
     83 H83        19.5059  -24.0246  -48.2686 H         1 UNK         0.0851 
     84 H84        18.3638  -25.6336  -46.7417 H         1 UNK         0.2976 
     85 H85        20.8869  -26.0952  -43.1501 H         1 UNK         0.3116 
     86 H86        20.9916  -25.1392  -41.1478 H         1 UNK         0.0646 
     87 H87        22.2606  -23.6379  -42.6930 H         1 UNK         0.0847 
     88 H88        23.7734  -24.3863  -42.1854 H         1 UNK         0.0847 
     89 H89        22.8126  -23.4628  -41.0368 H         1 UNK         0.0847 
     90 H90        21.6733  -27.8640  -40.7801 H         1 UNK         0.3040 
     91 H91        22.3657  -29.3474  -39.3121 H         1 UNK         0.1015 
     92 H92        23.0629  -27.0643  -37.3999 H         1 UNK         0.0786 
     93 H93        22.7928  -28.7462  -36.9770 H         1 UNK         0.0786 
     94 H94        21.4603  -27.7786  -37.5822 H         1 UNK         0.0786 
     95 H95        24.4565  -27.7620  -41.1089 H         1 UNK         0.3172 
     96 H96        26.9731  -28.7150  -39.9197 H         1 UNK         0.0595 
     97 H97        26.3954  -27.5960  -42.7148 H         1 UNK         0.0839 
     98 H98        27.9761  -27.8634  -41.9991 H         1 UNK         0.0839 
     99 H99        26.9111  -26.6382  -41.3271 H         1 UNK         0.0839 
    100 H100       24.4728  -29.8282  -42.1238 H         1 UNK         0.2998 
    101 H101       25.7914  -32.4938  -42.3252 H         1 UNK         0.0822 
    102 H102       25.9351  -31.4575  -44.5665 H         1 UNK         0.0787 
    103 H103       24.7227  -32.7293  -44.5777 H         1 UNK         0.0787 
    104 H104       24.2256  -31.0448  -44.5341 H         1 UNK         0.0787 
    105 H105       24.6850  -33.5651  -40.8726 H         1 UNK         0.3055 
    106 H106       23.1821  -34.6407  -39.7172 H         1 UNK         0.1106 
    107 H107       21.4795  -34.3528  -42.2389 H         1 UNK         0.0828 
    108 H108       21.1029  -35.4286  -40.9022 H         1 UNK         0.0828 
    109 H109       22.5739  -35.6639  -41.8294 H         1 UNK         0.0828 
    110 H110       21.1806  -32.1059  -41.2500 H         1 UNK         0.2931 
    111 H111       20.4042  -30.9900  -38.7419 H         1 UNK         0.0412 
    112 H112       21.2177  -30.4252  -41.8981 H         1 UNK         0.3472 
    113 H113       20.3116  -28.9418  -42.0902 H         1 UNK         0.3472 
    114 H114       18.2021  -31.5659  -38.4658 H         1 UNK         0.0970 
    115 H115       18.8596  -33.0846  -38.9604 H         1 UNK         0.0970 
    116 H116       19.0251  -33.5987  -41.5962 H         1 UNK         0.0612 
    117 H117       17.4236  -33.9876  -42.1592 H         1 UNK         0.0612 
@<TRIPOS>BOND
     1    1    2 1    
     2    1   62 1    
     3    1   63 1    
     4    1   64 1    
     5    2    3 2    
     6    2    4 am   BACKBONE|DICT|INTERRES
     7    4    5 1    
     8    4   65 1    
     9    5    6 1    
    10    5   25 1    
    11    5   66 1    
    12    6    7 1    
    13    6   67 1    
    14    6   68 1    
    15    7    8 1    
    16    8    9 1    
    17    8   69 1    
    18    8   70 1    
    19    9   10 ar   
    20    9   14 ar   
    21   10   11 ar   
    22   10   71 1    
    23   11   12 ar   
    24   11   61 1    
    25   12   13 ar   
    26   12   72 1    
    27   13   14 ar   
    28   13   15 1    
    29   14   73 1    
    30   15   16 1    
    31   15   74 1    
    32   15   75 1    
    33   16   17 1    
    34   17   18 1    
    35   17   76 1    
    36   17   77 1    
    37   18   19 1    
    38   18   27 1    
    39   18   78 1    
    40   19   20 am   BACKBONE|DICT|INTERRES
    41   19   79 1    
    42   20   21 2    
    43   20   22 1    
    44   22   23 1    
    45   22   24 1    
    46   22   80 1    
    47   23   81 1    
    48   23   82 1    
    49   23   83 1    
    50   24   25 am   BACKBONE|DICT|INTERRES
    51   24   84 1    
    52   25   26 2    
    53   27   28 2    
    54   27   29 am   BACKBONE|DICT|INTERRES
    55   29   30 1    
    56   29   85 1    
    57   30   31 1    
    58   30   32 1    
    59   30   86 1    
    60   31   87 1    
    61   31   88 1    
    62   31   89 1    
    63   32   33 2    
    64   32   34 am   BACKBONE|DICT|INTERRES
    65   34   35 1    
    66   34   90 1    
    67   35   36 1    
    68   35   37 1    
    69   35   91 1    
    70   36   92 1    
    71   36   93 1    
    72   36   94 1    
    73   37   38 2    
    74   37   39 am   BACKBONE|DICT|INTERRES
    75   39   40 1    
    76   39   95 1    
    77   40   41 1    
    78   40   42 1    
    79   40   96 1    
    80   41   97 1    
    81   41   98 1    
    82   41   99 1    
    83   42   43 2    
    84   42   44 am   BACKBONE|DICT|INTERRES
    85   44   45 1    
    86   44  100 1    
    87   45   46 1    
    88   45   47 1    
    89   45  101 1    
    90   46  102 1    
    91   46  103 1    
    92   46  104 1    
    93   47   48 2    
    94   47   49 am   BACKBONE|DICT|INTERRES
    95   49   50 1    
    96   49  105 1    
    97   50   51 1    
    98   50   52 1    
    99   50  106 1    
   100   51  107 1    
   101   51  108 1    
   102   51  109 1    
   103   52   53 2    
   104   52   54 am   BACKBONE|DICT|INTERRES
   105   54   55 1    
   106   54  110 1    
   107   55   56 1    
   108   55   59 1    
   109   55  111 1    
   110   56   57 am   BACKBONE|DICT|INTERRES
   111   56   58 2    
   112   57  112 1    
   113   57  113 1    
   114   59   60 1    
   115   59  114 1    
   116   59  115 1    
   117   60   61 1    
   118   61  116 1    
   119   61  117 1    
@<TRIPOS>SUBSTRUCTURE
     1 UNK         1 GROUP             0       ****    0 ROOT    
