@<TRIPOS>MOLECULE
3R8
117   119    1
SMALL
USER_CHARGES


@<TRIPOS>ATOM
      1 CA         16.2944  -22.4005  -45.1201 C.3       0 UNK        -0.2013 
      2 C          17.4227  -23.1651  -45.7960 C.2       0 UNK         0.4866 
      3 O          18.2229  -22.5639  -46.5128 O.2       0 UNK        -0.5176 
      4 N          17.4819  -24.4849  -45.5767 N.am      1 UNK        -0.4884 
      5 CA         18.5077  -25.4001  -46.0967 C.3       1 UNK         0.0853 
      6 C6         18.1972  -26.8909  -45.8074 C.3       10 UNK        -0.0849 
      7 S7         16.5634  -27.3963  -46.4412 S.3       10 UNK        -0.2776 
      8 C8         16.8084  -29.1881  -46.6944 C.3       10 UNK         0.0316 
      9 C9         17.1676  -29.9506  -45.4204 C.ar      10 UNK        -0.0863 
     10 C10        18.1311  -30.9631  -45.4677 C.ar      10 UNK        -0.1009 
     11 C11        18.4638  -31.6887  -44.3187 C.ar      10 UNK        -0.0712 
     12 C12        17.8310  -31.3884  -43.1082 C.ar      10 UNK        -0.0894 
     13 C13        16.8513  -30.3936  -43.0502 C.ar      10 UNK        -0.0745 
     14 C14        16.5195  -29.6857  -44.2089 C.ar      10 UNK        -0.0972 
     15 C15        16.1120  -30.1084  -41.7519 C.3       10 UNK         0.0209 
     16 S16        16.5108  -28.4615  -41.0920 S.3       10 UNK        -0.2568 
     17 C17        18.1202  -28.7429  -40.2767 C.3       10 UNK        -0.0983 
     18 CA         19.3480  -28.2691  -41.1000 C.3       3 UNK         0.0876 
     19 N          19.1336  -26.9593  -41.7306 N.am      3 UNK        -0.4424 
     20 C          20.0066  -26.3125  -42.5123 C.2       2 UNK         0.4918 
     21 O          21.1669  -26.6795  -42.7049 O.2       2 UNK        -0.4875 
     22 CA         19.4997  -25.0239  -43.1721 C.3       2 UNK         0.0481 
     23 CB         19.6782  -23.8322  -42.2186 C.3       2 UNK        -0.1831 
     24 N          20.2678  -24.7691  -44.3940 N.am      2 UNK        -0.4498 
     25 C          19.9521  -25.0298  -45.6740 C.2       1 UNK         0.5027 
     26 O          20.8067  -24.9486  -46.5554 O.2       1 UNK        -0.4969 
     27 C          20.6121  -28.3084  -40.2170 C.2       3 UNK         0.5005 
     28 O          21.4088  -29.2416  -40.3249 O.2       3 UNK        -0.5279 
     29 N          20.7759  -27.2745  -39.3780 N.am      4 UNK        -0.4463 
     30 CA         21.9137  -27.1075  -38.4718 C.3       4 UNK         0.0283 
     31 CB         21.5744  -26.0515  -37.4080 C.3       4 UNK        -0.1875 
     32 C          23.2117  -26.7350  -39.2041 C.2       4 UNK         0.4949 
     33 O          24.2779  -27.2021  -38.8069 O.2       4 UNK        -0.5039 
     34 N          23.1033  -25.9298  -40.2713 N.am      5 UNK        -0.4663 
     35 CA         24.2288  -25.5323  -41.1255 C.3       5 UNK         0.0242 
     36 CB         23.8029  -24.3746  -42.0426 C.3       5 UNK        -0.1982 
     37 C          24.7747  -26.7112  -41.9473 C.2       5 UNK         0.5017 
     38 O          25.9895  -26.8400  -42.0978 O.2       5 UNK        -0.5012 
     39 N          23.8634  -27.5729  -42.4173 N.am      6 UNK        -0.4439 
     40 CA         24.1591  -28.8454  -43.0754 C.3       6 UNK         0.0297 
     41 CB         22.9181  -29.2860  -43.8684 C.3       6 UNK        -0.2006 
     42 C          24.5915  -29.9570  -42.0987 C.2       6 UNK         0.4892 
     43 O          24.9802  -31.0285  -42.5631 O.2       6 UNK        -0.5089 
     44 N          24.4883  -29.7098  -40.7824 N.am      7 UNK        -0.4243 
     45 CA         24.7773  -30.6252  -39.6706 C.3       7 UNK         0.0196 
     46 CB         26.2946  -30.8874  -39.5672 C.3       7 UNK        -0.2007 
     47 C          23.9424  -31.9195  -39.7362 C.2       7 UNK         0.5020 
     48 O          24.4730  -33.0091  -39.5178 O.2       7 UNK        -0.5147 
     49 N          22.6531  -31.7656  -40.0734 N.am      8 UNK        -0.4734 
     50 CA         21.6609  -32.8161  -40.3411 C.3       8 UNK         0.0238 
     51 CB         21.4044  -33.6812  -39.0887 C.3       8 UNK        -0.1912 
     52 C          21.9555  -33.6618  -41.5993 C.2       8 UNK         0.5038 
     53 O          21.3503  -34.7231  -41.7618 O.2       8 UNK        -0.5046 
     54 N          22.8289  -33.1592  -42.4833 N.am      9 UNK        -0.4200 
     55 CA         23.2215  -33.7442  -43.7752 C.3       9 UNK         0.0839 
     56 C          24.0504  -35.0579  -43.6400 C.2       9 UNK         0.5513 
     57 N          24.3611  -35.7227  -44.7458 N.am      9 UNK        -0.7519 
     58 O          24.4556  -35.4699  -42.5550 O.2       9 UNK        -0.4960 
     59 C59        22.0359  -33.8660  -44.7802 C.3       10 UNK        -0.0876 
     60 S60        21.0968  -32.3111  -44.9813 S.3       10 UNK        -0.2414 
     61 C61        19.4578  -32.8390  -44.3955 C.3       10 UNK         0.0169 
     62 H62        16.7033  -21.6363  -44.4596 H         1 UNK         0.0903 
     63 H63        15.6737  -21.9082  -45.8683 H         1 UNK         0.0903 
     64 H64        15.6555  -23.0544  -44.5267 H         1 UNK         0.0903 
     65 H65        16.7663  -24.9218  -45.0137 H         1 UNK         0.3096 
     66 H66        18.4802  -25.2808  -47.1825 H         1 UNK         0.1121 
     67 H67        18.2225  -27.1056  -44.7391 H         1 UNK         0.0849 
     68 H68        18.9589  -27.5277  -46.2624 H         1 UNK         0.0849 
     69 H69        15.8907  -29.6117  -47.1044 H         1 UNK         0.0865 
     70 H70        17.5774  -29.3282  -47.4558 H         1 UNK         0.0865 
     71 H71        18.6187  -31.2006  -46.4036 H         1 UNK         0.1346 
     72 H72        18.0768  -31.9510  -42.2180 H         1 UNK         0.1412 
     73 H73        15.7532  -28.9239  -44.1625 H         1 UNK         0.1426 
     74 H74        15.0388  -30.1548  -41.9424 H         1 UNK         0.0716 
     75 H75        16.3180  -30.8712  -40.9995 H         1 UNK         0.0716 
     76 H76        18.0712  -28.2161  -39.3215 H         1 UNK         0.0695 
     77 H77        18.2216  -29.8004  -40.0258 H         1 UNK         0.0695 
     78 H78        19.5025  -28.9816  -41.9136 H         1 UNK         0.0983 
     79 H79        18.1997  -26.5883  -41.6265 H         1 UNK         0.3095 
     80 H80        18.4377  -25.1447  -43.3703 H         1 UNK         0.0454 
     81 H81        19.3170  -22.9093  -42.6728 H         1 UNK         0.0851 
     82 H82        20.7227  -23.6806  -41.9442 H         1 UNK         0.0851 
     83 H83        19.1157  -23.9767  -41.2954 H         1 UNK         0.0851 
     84 H84        21.2367  -24.5489  -44.2194 H         1 UNK         0.2976 
     85 H85        20.0666  -26.5557  -39.3613 H         1 UNK         0.3116 
     86 H86        22.0833  -28.0590  -37.9624 H         1 UNK         0.0646 
     87 H87        20.6995  -26.3408  -36.8257 H         1 UNK         0.0847 
     88 H88        22.4005  -25.9270  -36.7062 H         1 UNK         0.0847 
     89 H89        21.3758  -25.0752  -37.8520 H         1 UNK         0.0847 
     90 H90        22.1842  -25.6229  -40.5524 H         1 UNK         0.3040 
     91 H91        25.0359  -25.1781  -40.4798 H         1 UNK         0.1015 
     92 H92        23.0081  -24.6697  -42.7274 H         1 UNK         0.0786 
     93 H93        24.6424  -24.0326  -42.6495 H         1 UNK         0.0786 
     94 H94        23.4520  -23.5186  -41.4659 H         1 UNK         0.0786 
     95 H95        22.8787  -27.3381  -42.3093 H         1 UNK         0.3172 
     96 H96        24.9786  -28.6890  -43.7797 H         1 UNK         0.0595 
     97 H97        22.0749  -29.5061  -43.2117 H         1 UNK         0.0839 
     98 H98        23.1275  -30.1869  -44.4458 H         1 UNK         0.0839 
     99 H99        22.6002  -28.5178  -44.5736 H         1 UNK         0.0839 
    100 H100       24.1370  -28.8019  -40.5084 H         1 UNK         0.2998 
    101 H101       24.4674  -30.1090  -38.7606 H         1 UNK         0.0822 
    102 H102       26.5309  -31.4717  -38.6772 H         1 UNK         0.0787 
    103 H103       26.6692  -31.4406  -40.4292 H         1 UNK         0.0787 
    104 H104       26.8530  -29.9537  -39.4990 H         1 UNK         0.0787 
    105 H105       22.3121  -30.8131  -40.2139 H         1 UNK         0.3055 
    106 H106       20.7329  -32.2866  -40.5635 H         1 UNK         0.1106 
    107 H107       21.1868  -33.0641  -38.2172 H         1 UNK         0.0828 
    108 H108       20.5488  -34.3409  -39.2378 H         1 UNK         0.0828 
    109 H109       22.2598  -34.3133  -38.8495 H         1 UNK         0.0828 
    110 H110       23.3320  -32.3164  -42.2355 H         1 UNK         0.2931 
    111 H111       23.9212  -33.0200  -44.1935 H         1 UNK         0.0412 
    112 H112       24.9099  -36.5652  -44.6687 H         1 UNK         0.3472 
    113 H113       24.0751  -35.3961  -45.6552 H         1 UNK         0.3472 
    114 H114       22.4012  -34.1417  -45.7701 H         1 UNK         0.0970 
    115 H115       21.3647  -34.6718  -44.4782 H         1 UNK         0.0970 
    116 H116       19.5651  -33.3147  -43.4201 H         1 UNK         0.0612 
    117 H117       19.0665  -33.6011  -45.0708 H         1 UNK         0.0612 
@<TRIPOS>BOND
     1    1    2 1    
     2    1   62 1    
     3    1   63 1    
     4    1   64 1    
     5    2    3 2    
     6    2    4 am   BACKBONE|DICT|INTERRES
     7    4    5 1    
     8    4   65 1    
     9    5    6 1    
    10    5   25 1    
    11    5   66 1    
    12    6    7 1    
    13    6   67 1    
    14    6   68 1    
    15    7    8 1    
    16    8    9 1    
    17    8   69 1    
    18    8   70 1    
    19    9   10 ar   
    20    9   14 ar   
    21   10   11 ar   
    22   10   71 1    
    23   11   12 ar   
    24   11   61 1    
    25   12   13 ar   
    26   12   72 1    
    27   13   14 ar   
    28   13   15 1    
    29   14   73 1    
    30   15   16 1    
    31   15   74 1    
    32   15   75 1    
    33   16   17 1    
    34   17   18 1    
    35   17   76 1    
    36   17   77 1    
    37   18   19 1    
    38   18   27 1    
    39   18   78 1    
    40   19   20 am   BACKBONE|DICT|INTERRES
    41   19   79 1    
    42   20   21 2    
    43   20   22 1    
    44   22   23 1    
    45   22   24 1    
    46   22   80 1    
    47   23   81 1    
    48   23   82 1    
    49   23   83 1    
    50   24   25 am   BACKBONE|DICT|INTERRES
    51   24   84 1    
    52   25   26 2    
    53   27   28 2    
    54   27   29 am   BACKBONE|DICT|INTERRES
    55   29   30 1    
    56   29   85 1    
    57   30   31 1    
    58   30   32 1    
    59   30   86 1    
    60   31   87 1    
    61   31   88 1    
    62   31   89 1    
    63   32   33 2    
    64   32   34 am   BACKBONE|DICT|INTERRES
    65   34   35 1    
    66   34   90 1    
    67   35   36 1    
    68   35   37 1    
    69   35   91 1    
    70   36   92 1    
    71   36   93 1    
    72   36   94 1    
    73   37   38 2    
    74   37   39 am   BACKBONE|DICT|INTERRES
    75   39   40 1    
    76   39   95 1    
    77   40   41 1    
    78   40   42 1    
    79   40   96 1    
    80   41   97 1    
    81   41   98 1    
    82   41   99 1    
    83   42   43 2    
    84   42   44 am   BACKBONE|DICT|INTERRES
    85   44   45 1    
    86   44  100 1    
    87   45   46 1    
    88   45   47 1    
    89   45  101 1    
    90   46  102 1    
    91   46  103 1    
    92   46  104 1    
    93   47   48 2    
    94   47   49 am   BACKBONE|DICT|INTERRES
    95   49   50 1    
    96   49  105 1    
    97   50   51 1    
    98   50   52 1    
    99   50  106 1    
   100   51  107 1    
   101   51  108 1    
   102   51  109 1    
   103   52   53 2    
   104   52   54 am   BACKBONE|DICT|INTERRES
   105   54   55 1    
   106   54  110 1    
   107   55   56 1    
   108   55   59 1    
   109   55  111 1    
   110   56   57 am   BACKBONE|DICT|INTERRES
   111   56   58 2    
   112   57  112 1    
   113   57  113 1    
   114   59   60 1    
   115   59  114 1    
   116   59  115 1    
   117   60   61 1    
   118   61  116 1    
   119   61  117 1    
@<TRIPOS>SUBSTRUCTURE
     1 UNK         1 GROUP             0       ****    0 ROOT    
