@<TRIPOS>MOLECULE
3R8
117   119    1
SMALL
USER_CHARGES


@<TRIPOS>ATOM
      1 CA         17.6460  -22.8116  -42.7433 C.3       0 UNK        -0.2013 
      2 C          16.9493  -24.0706  -42.2313 C.2       0 UNK         0.4866 
      3 O          16.3119  -24.0172  -41.1812 O.2       0 UNK        -0.5176 
      4 N          17.0164  -25.2147  -42.9275 N.am      1 UNK        -0.4884 
      5 CA         17.7776  -25.4807  -44.1552 C.3       1 UNK         0.0853 
      6 C6         17.4479  -26.8841  -44.7206 C.3       10 UNK        -0.0849 
      7 S7         15.7837  -26.9705  -45.4635 S.3       10 UNK        -0.2776 
      8 C8         15.1938  -28.6258  -44.9516 C.3       10 UNK         0.0316 
      9 C9         16.2182  -29.7481  -45.1231 C.ar      10 UNK        -0.0863 
     10 C10        16.3590  -30.7050  -44.1112 C.ar      10 UNK        -0.1009 
     11 C11        17.3214  -31.7128  -44.2142 C.ar      10 UNK        -0.0712 
     12 C12        18.1390  -31.7720  -45.3430 C.ar      10 UNK        -0.0894 
     13 C13        18.0336  -30.8050  -46.3452 C.ar      10 UNK        -0.0745 
     14 C14        17.0468  -29.8191  -46.2515 C.ar      10 UNK        -0.0972 
     15 C15        19.0656  -30.7704  -47.4633 C.3       10 UNK         0.0209 
     16 S16        20.3913  -29.5501  -47.1348 S.3       10 UNK        -0.2568 
     17 C17        20.8133  -29.8655  -45.3804 C.3       10 UNK        -0.0983 
     18 CA         21.8098  -28.8566  -44.7564 C.3       3 UNK         0.0876 
     19 N          21.4587  -27.4715  -45.0803 N.am      3 UNK        -0.4424 
     20 C          22.1489  -26.3791  -44.7275 C.2       2 UNK         0.4918 
     21 O          23.2223  -26.4092  -44.1302 O.2       2 UNK        -0.4875 
     22 CA         21.4992  -25.0201  -45.0474 C.3       2 UNK         0.0481 
     23 CB         21.9705  -24.5114  -46.4181 C.3       2 UNK        -0.1831 
     24 N          20.0317  -25.0544  -45.0113 N.am      2 UNK        -0.4498 
     25 C          19.2999  -25.3742  -43.9332 C.2       1 UNK         0.5027 
     26 O          19.7875  -25.6459  -42.8330 O.2       1 UNK        -0.4969 
     27 C          21.8760  -29.0800  -43.2289 C.2       3 UNK         0.5005 
     28 O          22.8354  -29.6694  -42.7314 O.2       3 UNK        -0.5279 
     29 N          20.8593  -28.5772  -42.5124 N.am      4 UNK        -0.4463 
     30 CA         20.7539  -28.6470  -41.0555 C.3       4 UNK         0.0283 
     31 CB         19.3154  -28.3273  -40.6201 C.3       4 UNK        -0.1875 
     32 C          21.7627  -27.7199  -40.3624 C.2       4 UNK         0.4949 
     33 O          22.3369  -28.1111  -39.3479 O.2       4 UNK        -0.5039 
     34 N          22.0116  -26.5368  -40.9451 N.am      5 UNK        -0.4663 
     35 CA         23.0548  -25.6025  -40.5023 C.3       5 UNK         0.0242 
     36 CB         22.9232  -24.2760  -41.2662 C.3       5 UNK        -0.1982 
     37 C          24.4756  -26.1830  -40.6459 C.2       5 UNK         0.5017 
     38 O          25.3156  -25.9527  -39.7762 O.2       5 UNK        -0.5012 
     39 N          24.6983  -26.9656  -41.7112 N.am      6 UNK        -0.4439 
     40 CA         25.9089  -27.7552  -41.9577 C.3       6 UNK         0.0297 
     41 CB         25.9967  -28.0719  -43.4606 C.3       6 UNK        -0.2006 
     42 C          25.9893  -29.0522  -41.1237 C.2       6 UNK         0.4892 
     43 O          26.9997  -29.7505  -41.2158 O.2       6 UNK        -0.5089 
     44 N          24.9450  -29.3525  -40.3361 N.am      7 UNK        -0.4243 
     45 CA         24.7863  -30.5118  -39.4527 C.3       7 UNK         0.0196 
     46 CB         25.8503  -30.5111  -38.3335 C.3       7 UNK        -0.2007 
     47 C          24.6903  -31.8566  -40.1981 C.2       7 UNK         0.5020 
     48 O          25.1072  -32.8827  -39.6580 O.2       7 UNK        -0.5147 
     49 N          24.1041  -31.8528  -41.4048 N.am      8 UNK        -0.4734 
     50 CA         23.7723  -33.0718  -42.1549 C.3       8 UNK         0.0238 
     51 CB         23.5847  -32.7248  -43.6408 C.3       8 UNK        -0.1912 
     52 C          22.5183  -33.7809  -41.6065 C.2       8 UNK         0.5038 
     53 O          22.3147  -34.9596  -41.9000 O.2       8 UNK        -0.5046 
     54 N          21.7121  -33.0581  -40.8237 N.am      9 UNK        -0.4200 
     55 CA         20.4997  -33.5187  -40.1434 C.3       9 UNK         0.0839 
     56 C          20.2092  -32.6410  -38.8968 C.2       9 UNK         0.5513 
     57 N          19.2761  -33.0542  -38.0501 N.am      9 UNK        -0.7519 
     58 O          20.8220  -31.5958  -38.6845 O.2       9 UNK        -0.4960 
     59 C59        19.2844  -33.6522  -41.1040 C.3       10 UNK        -0.0876 
     60 S60        18.8856  -32.1163  -42.0049 S.3       10 UNK        -0.2414 
     61 C61        17.5408  -32.6987  -43.0810 C.3       10 UNK         0.0169 
     62 H62        18.7091  -22.8402  -42.5056 H         1 UNK         0.0903 
     63 H63        17.5264  -22.6868  -43.8184 H         1 UNK         0.0903 
     64 H64        17.2240  -21.9270  -42.2666 H         1 UNK         0.0903 
     65 H65        16.5315  -26.0173  -42.5539 H         1 UNK         0.3096 
     66 H66        17.4931  -24.7337  -44.8988 H         1 UNK         0.1121 
     67 H67        18.1471  -27.1707  -45.5090 H         1 UNK         0.0849 
     68 H68        17.5504  -27.6404  -43.9395 H         1 UNK         0.0849 
     69 H69        14.3015  -28.8746  -45.5273 H         1 UNK         0.0865 
     70 H70        14.8764  -28.5598  -43.9097 H         1 UNK         0.0865 
     71 H71        15.7404  -30.6507  -43.2256 H         1 UNK         0.1346 
     72 H72        18.9124  -32.5258  -45.4012 H         1 UNK         0.1412 
     73 H73        16.9697  -29.0693  -47.0269 H         1 UNK         0.1426 
     74 H74        18.5799  -30.5255  -48.4089 H         1 UNK         0.0716 
     75 H75        19.5160  -31.7553  -47.5966 H         1 UNK         0.0716 
     76 H76        21.1941  -30.8845  -45.2937 H         1 UNK         0.0695 
     77 H77        19.8861  -29.8327  -44.8081 H         1 UNK         0.0695 
     78 H78        22.8039  -29.0483  -45.1658 H         1 UNK         0.0983 
     79 H79        20.6160  -27.3523  -45.6213 H         1 UNK         0.3095 
     80 H80        21.8292  -24.3075  -44.2897 H         1 UNK         0.0454 
     81 H81        21.6490  -25.1677  -47.2278 H         1 UNK         0.0851 
     82 H82        23.0593  -24.4547  -46.4585 H         1 UNK         0.0851 
     83 H83        21.5897  -23.5109  -46.6237 H         1 UNK         0.0851 
     84 H84        19.5596  -24.8470  -45.8805 H         1 UNK         0.2976 
     85 H85        20.1417  -28.0526  -42.9902 H         1 UNK         0.3116 
     86 H86        20.9774  -29.6718  -40.7508 H         1 UNK         0.0646 
     87 H87        18.6013  -29.0107  -41.0803 H         1 UNK         0.0847 
     88 H88        19.0246  -27.3092  -40.8807 H         1 UNK         0.0847 
     89 H89        19.2086  -28.4301  -39.5394 H         1 UNK         0.0847 
     90 H90        21.4520  -26.2658  -41.7470 H         1 UNK         0.3040 
     91 H91        22.8877  -25.4025  -39.4415 H         1 UNK         0.1015 
     92 H92        23.6131  -23.5307  -40.8682 H         1 UNK         0.0786 
     93 H93        21.9168  -23.8648  -41.1833 H         1 UNK         0.0786 
     94 H94        23.1529  -24.3943  -42.3245 H         1 UNK         0.0786 
     95 H95        23.9724  -27.0254  -42.4196 H         1 UNK         0.3172 
     96 H96        26.7749  -27.1467  -41.6896 H         1 UNK         0.0595 
     97 H97        25.1631  -28.6927  -43.7903 H         1 UNK         0.0839 
     98 H98        26.9161  -28.6090  -43.6970 H         1 UNK         0.0839 
     99 H99        25.9924  -27.1610  -44.0595 H         1 UNK         0.0839 
    100 H100       24.1565  -28.7169  -40.3422 H         1 UNK         0.2998 
    101 H101       23.8162  -30.3814  -38.9706 H         1 UNK         0.0822 
    102 H102       25.8803  -29.5521  -37.8162 H         1 UNK         0.0787 
    103 H103       25.6312  -31.2738  -37.5853 H         1 UNK         0.0787 
    104 H104       26.8484  -30.7160  -38.7216 H         1 UNK         0.0787 
    105 H105       23.7743  -30.9726  -41.8007 H         1 UNK         0.3055 
    106 H106       24.6075  -33.7709  -42.0715 H         1 UNK         0.1106 
    107 H107       23.4587  -33.6292  -44.2374 H         1 UNK         0.0828 
    108 H108       24.4468  -32.1894  -44.0388 H         1 UNK         0.0828 
    109 H109       22.7008  -32.1080  -43.8007 H         1 UNK         0.0828 
    110 H110       21.9674  -32.1038  -40.6099 H         1 UNK         0.2931 
    111 H111       20.7229  -34.5119  -39.7489 H         1 UNK         0.0412 
    112 H112       19.0765  -32.4957  -37.2349 H         1 UNK         0.3472 
    113 H113       18.7728  -33.9143  -38.2021 H         1 UNK         0.3472 
    114 H114       19.4935  -34.4322  -41.8376 H         1 UNK         0.0970 
    115 H115       18.3968  -33.9872  -40.5651 H         1 UNK         0.0970 
    116 H116       16.6306  -32.8249  -42.4929 H         1 UNK         0.0612 
    117 H117       17.7900  -33.6791  -43.4900 H         1 UNK         0.0612 
@<TRIPOS>BOND
     1    1    2 1    
     2    1   62 1    
     3    1   63 1    
     4    1   64 1    
     5    2    3 2    
     6    2    4 am   BACKBONE|DICT|INTERRES
     7    4    5 1    
     8    4   65 1    
     9    5    6 1    
    10    5   25 1    
    11    5   66 1    
    12    6    7 1    
    13    6   67 1    
    14    6   68 1    
    15    7    8 1    
    16    8    9 1    
    17    8   69 1    
    18    8   70 1    
    19    9   10 ar   
    20    9   14 ar   
    21   10   11 ar   
    22   10   71 1    
    23   11   12 ar   
    24   11   61 1    
    25   12   13 ar   
    26   12   72 1    
    27   13   14 ar   
    28   13   15 1    
    29   14   73 1    
    30   15   16 1    
    31   15   74 1    
    32   15   75 1    
    33   16   17 1    
    34   17   18 1    
    35   17   76 1    
    36   17   77 1    
    37   18   19 1    
    38   18   27 1    
    39   18   78 1    
    40   19   20 am   BACKBONE|DICT|INTERRES
    41   19   79 1    
    42   20   21 2    
    43   20   22 1    
    44   22   23 1    
    45   22   24 1    
    46   22   80 1    
    47   23   81 1    
    48   23   82 1    
    49   23   83 1    
    50   24   25 am   BACKBONE|DICT|INTERRES
    51   24   84 1    
    52   25   26 2    
    53   27   28 2    
    54   27   29 am   BACKBONE|DICT|INTERRES
    55   29   30 1    
    56   29   85 1    
    57   30   31 1    
    58   30   32 1    
    59   30   86 1    
    60   31   87 1    
    61   31   88 1    
    62   31   89 1    
    63   32   33 2    
    64   32   34 am   BACKBONE|DICT|INTERRES
    65   34   35 1    
    66   34   90 1    
    67   35   36 1    
    68   35   37 1    
    69   35   91 1    
    70   36   92 1    
    71   36   93 1    
    72   36   94 1    
    73   37   38 2    
    74   37   39 am   BACKBONE|DICT|INTERRES
    75   39   40 1    
    76   39   95 1    
    77   40   41 1    
    78   40   42 1    
    79   40   96 1    
    80   41   97 1    
    81   41   98 1    
    82   41   99 1    
    83   42   43 2    
    84   42   44 am   BACKBONE|DICT|INTERRES
    85   44   45 1    
    86   44  100 1    
    87   45   46 1    
    88   45   47 1    
    89   45  101 1    
    90   46  102 1    
    91   46  103 1    
    92   46  104 1    
    93   47   48 2    
    94   47   49 am   BACKBONE|DICT|INTERRES
    95   49   50 1    
    96   49  105 1    
    97   50   51 1    
    98   50   52 1    
    99   50  106 1    
   100   51  107 1    
   101   51  108 1    
   102   51  109 1    
   103   52   53 2    
   104   52   54 am   BACKBONE|DICT|INTERRES
   105   54   55 1    
   106   54  110 1    
   107   55   56 1    
   108   55   59 1    
   109   55  111 1    
   110   56   57 am   BACKBONE|DICT|INTERRES
   111   56   58 2    
   112   57  112 1    
   113   57  113 1    
   114   59   60 1    
   115   59  114 1    
   116   59  115 1    
   117   60   61 1    
   118   61  116 1    
   119   61  117 1    
@<TRIPOS>SUBSTRUCTURE
     1 UNK         1 GROUP             0       ****    0 ROOT    
