@<TRIPOS>MOLECULE
3R8
117   119    1
SMALL
USER_CHARGES


@<TRIPOS>ATOM
      1 CA         12.3461  -25.4618  -41.8975 C.3       0 UNK        -0.2013 
      2 C          13.4116  -25.3471  -42.9773 C.2       0 UNK         0.4866 
      3 O          14.0557  -24.3044  -43.0928 O.2       0 UNK        -0.5176 
      4 N          13.6005  -26.4101  -43.7712 N.am      1 UNK        -0.4884 
      5 CA         14.5984  -26.4822  -44.8476 C.3       1 UNK         0.0853 
      6 C6         14.2953  -27.6627  -45.8053 C.3       10 UNK        -0.0849 
      7 S7         15.1122  -27.4900  -47.4286 S.3       10 UNK        -0.2776 
      8 C8         16.0054  -29.0720  -47.5814 C.3       10 UNK         0.0316 
      9 C9         17.2845  -29.1410  -46.7514 C.ar      10 UNK        -0.0863 
     10 C10        17.3945  -30.0516  -45.6952 C.ar      10 UNK        -0.1009 
     11 C11        18.6089  -30.2189  -45.0200 C.ar      10 UNK        -0.0712 
     12 C12        19.7148  -29.4522  -45.4017 C.ar      10 UNK        -0.0894 
     13 C13        19.6131  -28.5098  -46.4317 C.ar      10 UNK        -0.0745 
     14 C14        18.3936  -28.3638  -47.1023 C.ar      10 UNK        -0.0972 
     15 C15        20.8318  -27.7187  -46.9021 C.3       10 UNK         0.0209 
     16 S16        21.9258  -27.1441  -45.5580 S.3       10 UNK        -0.2568 
     17 C17        21.1131  -25.6046  -44.9997 C.3       10 UNK        -0.0983 
     18 CA         20.6020  -25.6233  -43.5346 C.3       3 UNK         0.0876 
     19 N          19.4952  -26.5618  -43.3790 N.am      3 UNK        -0.4424 
     20 C          18.5280  -26.4649  -42.4616 C.2       2 UNK         0.4918 
     21 O          18.4328  -25.5482  -41.6424 O.2       2 UNK        -0.4875 
     22 CA         17.4671  -27.5776  -42.4947 C.3       2 UNK         0.0481 
     23 CB         17.1694  -28.1075  -41.0818 C.3       2 UNK        -0.1831 
     24 N          16.2083  -27.1990  -43.1420 N.am      2 UNK        -0.4498 
     25 C          16.0440  -26.5600  -44.3128 C.2       1 UNK         0.5027 
     26 O          16.9521  -26.0589  -44.9757 O.2       1 UNK        -0.4969 
     27 C          21.7188  -25.9060  -42.5062 C.2       3 UNK         0.5005 
     28 O          21.7243  -26.9577  -41.8577 O.2       3 UNK        -0.5279 
     29 N          22.6794  -24.9778  -42.4003 N.am      4 UNK        -0.4463 
     30 CA         23.8635  -25.0733  -41.5387 C.3       4 UNK         0.0283 
     31 CB         24.4026  -23.6549  -41.2727 C.3       4 UNK        -0.1875 
     32 C          24.9414  -26.0203  -42.1116 C.2       4 UNK         0.4949 
     33 O          26.1023  -25.6292  -42.2465 O.2       4 UNK        -0.5039 
     34 N          24.5366  -27.2492  -42.4504 N.am      5 UNK        -0.4663 
     35 CA         25.4095  -28.3337  -42.8972 C.3       5 UNK         0.0242 
     36 CB         24.5459  -29.4286  -43.5466 C.3       5 UNK        -0.1982 
     37 C          26.2029  -28.9173  -41.7190 C.2       5 UNK         0.5017 
     38 O          25.6894  -28.9502  -40.5984 O.2       5 UNK        -0.5012 
     39 N          27.4078  -29.4332  -41.9993 N.am      6 UNK        -0.4439 
     40 CA         28.2936  -30.0712  -41.0145 C.3       6 UNK         0.0297 
     41 CB         29.6475  -30.3838  -41.6719 C.3       6 UNK        -0.2006 
     42 C          27.7026  -31.3406  -40.3701 C.2       6 UNK         0.4892 
     43 O          28.0285  -31.6441  -39.2222 O.2       6 UNK        -0.5089 
     44 N          26.8307  -32.0394  -41.1098 N.am      7 UNK        -0.4243 
     45 CA         26.0655  -33.1951  -40.6371 C.3       7 UNK         0.0196 
     46 CB         25.6385  -34.0340  -41.8539 C.3       7 UNK        -0.2007 
     47 C          24.8318  -32.8114  -39.7972 C.2       7 UNK         0.5020 
     48 O          24.2278  -33.7012  -39.1976 O.2       7 UNK        -0.5147 
     49 N          24.4448  -31.5238  -39.7994 N.am      8 UNK        -0.4734 
     50 CA         23.2848  -30.9359  -39.1094 C.3       8 UNK         0.0238 
     51 CB         23.5349  -30.9029  -37.5869 C.3       8 UNK        -0.1912 
     52 C          21.9355  -31.5932  -39.4735 C.2       8 UNK         0.5038 
     53 O          21.0340  -31.6423  -38.6345 O.2       8 UNK        -0.5046 
     54 N          21.8383  -32.1069  -40.7085 N.am      9 UNK        -0.4200 
     55 CA         20.7250  -32.9153  -41.2363 C.3       9 UNK         0.0839 
     56 C          20.5592  -34.3093  -40.5531 C.2       9 UNK         0.5513 
     57 N          21.5404  -34.8148  -39.8139 N.am      9 UNK        -0.7519 
     58 O          19.5356  -34.9669  -40.7232 O.2       9 UNK        -0.4960 
     59 C59        19.3848  -32.1297  -41.3357 C.3       10 UNK        -0.0876 
     60 S60        19.5109  -30.6550  -42.4030 S.3       10 UNK        -0.2414 
     61 C61        18.7358  -31.2791  -43.9304 C.3       10 UNK         0.0169 
     62 H62        11.5868  -24.6928  -42.0369 H         1 UNK         0.0903 
     63 H63        12.7934  -25.3244  -40.9134 H         1 UNK         0.0903 
     64 H64        11.8513  -26.4328  -41.9124 H         1 UNK         0.0903 
     65 H65        13.0291  -27.2336  -43.6396 H         1 UNK         0.3096 
     66 H66        14.5211  -25.5532  -45.4181 H         1 UNK         0.1121 
     67 H67        13.2233  -27.7124  -46.0034 H         1 UNK         0.0849 
     68 H68        14.5555  -28.6183  -45.3455 H         1 UNK         0.0849 
     69 H69        15.3314  -29.8931  -47.3320 H         1 UNK         0.0865 
     70 H70        16.2681  -29.2157  -48.6305 H         1 UNK         0.0865 
     71 H71        16.5450  -30.6652  -45.4279 H         1 UNK         0.1346 
     72 H72        20.6629  -29.6062  -44.9045 H         1 UNK         0.1412 
     73 H73        18.3124  -27.6678  -47.9264 H         1 UNK         0.1426 
     74 H74        20.5313  -26.8634  -47.5093 H         1 UNK         0.0716 
     75 H75        21.4153  -28.3653  -47.5585 H         1 UNK         0.0716 
     76 H76        20.2813  -25.3729  -45.6671 H         1 UNK         0.0695 
     77 H77        21.8244  -24.7889  -45.1379 H         1 UNK         0.0695 
     78 H78        20.2193  -24.6243  -43.3129 H         1 UNK         0.0983 
     79 H79        19.4938  -27.3469  -44.0149 H         1 UNK         0.3095 
     80 H80        17.8680  -28.4035  -43.0788 H         1 UNK         0.0454 
     81 H81        16.6724  -27.3578  -40.4650 H         1 UNK         0.0851 
     82 H82        18.0911  -28.3909  -40.5714 H         1 UNK         0.0851 
     83 H83        16.5364  -28.9943  -41.1141 H         1 UNK         0.0851 
     84 H84        15.3688  -27.5191  -42.6830 H         1 UNK         0.2976 
     85 H85        22.6303  -24.1628  -42.9953 H         1 UNK         0.3116 
     86 H86        23.5577  -25.4919  -40.5774 H         1 UNK         0.0646 
     87 H87        24.7410  -23.1719  -42.1902 H         1 UNK         0.0847 
     88 H88        25.2504  -23.6810  -40.5867 H         1 UNK         0.0847 
     89 H89        23.6430  -23.0191  -40.8177 H         1 UNK         0.0847 
     90 H90        23.5621  -27.4786  -42.2765 H         1 UNK         0.3040 
     91 H91        26.1069  -27.9387  -43.6394 H         1 UNK         0.1015 
     92 H92        23.8130  -29.8342  -42.8474 H         1 UNK         0.0786 
     93 H93        25.1587  -30.2592  -43.8990 H         1 UNK         0.0786 
     94 H94        24.0034  -29.0432  -44.4097 H         1 UNK         0.0786 
     95 H95        27.7529  -29.3773  -42.9476 H         1 UNK         0.3172 
     96 H96        28.4641  -29.3505  -40.2118 H         1 UNK         0.0595 
     97 H97        29.5431  -31.0815  -42.5038 H         1 UNK         0.0839 
     98 H98        30.3344  -30.8348  -40.9541 H         1 UNK         0.0839 
     99 H99        30.1260  -29.4793  -42.0482 H         1 UNK         0.0839 
    100 H100       26.6430  -31.7224  -42.0495 H         1 UNK         0.2998 
    101 H101       26.7099  -33.8104  -40.0053 H         1 UNK         0.0822 
    102 H102       26.5031  -34.3704  -42.4266 H         1 UNK         0.0787 
    103 H103       25.0932  -34.9264  -41.5427 H         1 UNK         0.0787 
    104 H104       24.9876  -33.4727  -42.5255 H         1 UNK         0.0787 
    105 H105       25.0264  -30.8495  -40.2861 H         1 UNK         0.3055 
    106 H106       23.2144  -29.9027  -39.4548 H         1 UNK         0.1106 
    107 H107       22.7488  -30.3507  -37.0704 H         1 UNK         0.0828 
    108 H108       23.5623  -31.9064  -37.1610 H         1 UNK         0.0828 
    109 H109       24.4795  -30.4123  -37.3520 H         1 UNK         0.0828 
    110 H110       22.6384  -32.0208  -41.3161 H         1 UNK         0.2931 
    111 H111       21.0203  -33.1597  -42.2574 H         1 UNK         0.0412 
    112 H112       22.4024  -34.3027  -39.6549 H         1 UNK         0.3472 
    113 H113       21.4169  -35.7216  -39.3927 H         1 UNK         0.3472 
    114 H114       19.0493  -31.8134  -40.3474 H         1 UNK         0.0970 
    115 H115       18.5892  -32.7696  -41.7206 H         1 UNK         0.0970 
    116 H116       19.3271  -32.1110  -44.3152 H         1 UNK         0.0612 
    117 H117       17.7525  -31.6811  -43.6815 H         1 UNK         0.0612 
@<TRIPOS>BOND
     1    1    2 1    
     2    1   62 1    
     3    1   63 1    
     4    1   64 1    
     5    2    3 2    
     6    2    4 am   BACKBONE|DICT|INTERRES
     7    4    5 1    
     8    4   65 1    
     9    5    6 1    
    10    5   25 1    
    11    5   66 1    
    12    6    7 1    
    13    6   67 1    
    14    6   68 1    
    15    7    8 1    
    16    8    9 1    
    17    8   69 1    
    18    8   70 1    
    19    9   10 ar   
    20    9   14 ar   
    21   10   11 ar   
    22   10   71 1    
    23   11   12 ar   
    24   11   61 1    
    25   12   13 ar   
    26   12   72 1    
    27   13   14 ar   
    28   13   15 1    
    29   14   73 1    
    30   15   16 1    
    31   15   74 1    
    32   15   75 1    
    33   16   17 1    
    34   17   18 1    
    35   17   76 1    
    36   17   77 1    
    37   18   19 1    
    38   18   27 1    
    39   18   78 1    
    40   19   20 am   BACKBONE|DICT|INTERRES
    41   19   79 1    
    42   20   21 2    
    43   20   22 1    
    44   22   23 1    
    45   22   24 1    
    46   22   80 1    
    47   23   81 1    
    48   23   82 1    
    49   23   83 1    
    50   24   25 am   BACKBONE|DICT|INTERRES
    51   24   84 1    
    52   25   26 2    
    53   27   28 2    
    54   27   29 am   BACKBONE|DICT|INTERRES
    55   29   30 1    
    56   29   85 1    
    57   30   31 1    
    58   30   32 1    
    59   30   86 1    
    60   31   87 1    
    61   31   88 1    
    62   31   89 1    
    63   32   33 2    
    64   32   34 am   BACKBONE|DICT|INTERRES
    65   34   35 1    
    66   34   90 1    
    67   35   36 1    
    68   35   37 1    
    69   35   91 1    
    70   36   92 1    
    71   36   93 1    
    72   36   94 1    
    73   37   38 2    
    74   37   39 am   BACKBONE|DICT|INTERRES
    75   39   40 1    
    76   39   95 1    
    77   40   41 1    
    78   40   42 1    
    79   40   96 1    
    80   41   97 1    
    81   41   98 1    
    82   41   99 1    
    83   42   43 2    
    84   42   44 am   BACKBONE|DICT|INTERRES
    85   44   45 1    
    86   44  100 1    
    87   45   46 1    
    88   45   47 1    
    89   45  101 1    
    90   46  102 1    
    91   46  103 1    
    92   46  104 1    
    93   47   48 2    
    94   47   49 am   BACKBONE|DICT|INTERRES
    95   49   50 1    
    96   49  105 1    
    97   50   51 1    
    98   50   52 1    
    99   50  106 1    
   100   51  107 1    
   101   51  108 1    
   102   51  109 1    
   103   52   53 2    
   104   52   54 am   BACKBONE|DICT|INTERRES
   105   54   55 1    
   106   54  110 1    
   107   55   56 1    
   108   55   59 1    
   109   55  111 1    
   110   56   57 am   BACKBONE|DICT|INTERRES
   111   56   58 2    
   112   57  112 1    
   113   57  113 1    
   114   59   60 1    
   115   59  114 1    
   116   59  115 1    
   117   60   61 1    
   118   61  116 1    
   119   61  117 1    
@<TRIPOS>SUBSTRUCTURE
     1 UNK         1 GROUP             0       ****    0 ROOT    
