@<TRIPOS>MOLECULE
3R8
117   119    1
SMALL
USER_CHARGES


@<TRIPOS>ATOM
      1 CA         18.5694  -23.3286  -46.3301 C.3       0 UNK        -0.2013 
      2 C          17.5055  -23.3323  -45.2350 C.2       0 UNK         0.4866 
      3 O          17.0786  -22.2614  -44.8071 O.2       0 UNK        -0.5176 
      4 N          17.0326  -24.4930  -44.7581 N.am      1 UNK        -0.4884 
      5 CA         17.4763  -25.8493  -45.1082 C.3       1 UNK         0.0853 
      6 C6         16.3680  -26.8896  -44.7890 C.3       10 UNK        -0.0849 
      7 S7         16.4058  -28.3196  -45.9254 S.3       10 UNK        -0.2776 
      8 C8         15.7123  -29.6490  -44.8911 C.3       10 UNK         0.0316 
      9 C9         16.7409  -30.2053  -43.9174 C.ar      10 UNK        -0.0863 
     10 C10        17.6809  -31.1435  -44.3519 C.ar      10 UNK        -0.1009 
     11 C11        18.6261  -31.6656  -43.4640 C.ar      10 UNK        -0.0712 
     12 C12        18.6254  -31.2373  -42.1337 C.ar      10 UNK        -0.0894 
     13 C13        17.6917  -30.3020  -41.6806 C.ar      10 UNK        -0.0745 
     14 C14        16.7427  -29.7993  -42.5805 C.ar      10 UNK        -0.0972 
     15 C15        17.7036  -29.9028  -40.2063 C.3       10 UNK         0.0209 
     16 S16        17.0414  -28.2361  -39.8577 S.3       10 UNK        -0.2568 
     17 C17        18.4241  -27.0405  -39.9347 C.3       10 UNK        -0.0983 
     18 CA         19.8020  -27.4744  -40.5035 C.3       3 UNK         0.0876 
     19 N          19.7447  -27.7971  -41.9361 N.am      3 UNK        -0.4424 
     20 C          20.7977  -28.0764  -42.7214 C.2       2 UNK         0.4918 
     21 O          21.9154  -28.3481  -42.2805 O.2       2 UNK        -0.4875 
     22 CA         20.6280  -27.9270  -44.2471 C.3       2 UNK         0.0481 
     23 CB         20.9678  -29.2253  -44.9936 C.3       2 UNK        -0.1831 
     24 N          19.3302  -27.4119  -44.7050 N.am      2 UNK        -0.4498 
     25 C          18.8242  -26.2000  -44.4348 C.2       1 UNK         0.5027 
     26 O          19.3732  -25.3954  -43.6761 O.2       1 UNK        -0.4969 
     27 C          20.8177  -26.3419  -40.2203 C.2       3 UNK         0.5005 
     28 O          21.5689  -26.4326  -39.2489 O.2       3 UNK        -0.5279 
     29 N          20.8628  -25.3289  -41.1029 N.am      4 UNK        -0.4463 
     30 CA         21.7947  -24.1965  -41.0484 C.3       4 UNK         0.0283 
     31 CB         21.3879  -23.1622  -42.1102 C.3       4 UNK        -0.1875 
     32 C          23.2735  -24.5915  -41.2269 C.2       4 UNK         0.4949 
     33 O          24.1513  -23.8426  -40.7994 O.2       4 UNK        -0.5039 
     34 N          23.5224  -25.7627  -41.8266 N.am      5 UNK        -0.4663 
     35 CA         24.8413  -26.3736  -41.9961 C.3       5 UNK         0.0242 
     36 CB         24.9319  -26.9433  -43.4233 C.3       5 UNK        -0.1982 
     37 C          25.1160  -27.4489  -40.9240 C.2       5 UNK         0.5017 
     38 O          25.9776  -28.3016  -41.1373 O.2       5 UNK        -0.5012 
     39 N          24.3835  -27.3957  -39.7991 N.am      6 UNK        -0.4439 
     40 CA         24.4194  -28.3218  -38.6604 C.3       6 UNK         0.0297 
     41 CB         25.8075  -28.3408  -37.9835 C.3       6 UNK        -0.2006 
     42 C          23.8919  -29.7240  -39.0198 C.2       6 UNK         0.4892 
     43 O          24.4559  -30.7267  -38.5788 O.2       6 UNK        -0.5089 
     44 N          22.8024  -29.7491  -39.8022 N.am      7 UNK        -0.4243 
     45 CA         22.0824  -30.9230  -40.3067 C.3       7 UNK         0.0196 
     46 CB         21.4555  -31.7399  -39.1571 C.3       7 UNK        -0.2007 
     47 C          22.9508  -31.7638  -41.2561 C.2       7 UNK         0.5020 
     48 O          23.1199  -32.9674  -41.0509 O.2       7 UNK        -0.5147 
     49 N          23.4891  -31.1069  -42.2920 N.am      8 UNK        -0.4734 
     50 CA         24.3694  -31.6968  -43.3085 C.3       8 UNK         0.0238 
     51 CB         25.1862  -30.5736  -43.9731 C.3       8 UNK        -0.1912 
     52 C          23.6059  -32.5551  -44.3395 C.2       8 UNK         0.5038 
     53 O          23.6843  -32.2919  -45.5411 O.2       8 UNK        -0.5046 
     54 N          22.8560  -33.5476  -43.8505 N.am      9 UNK        -0.4200 
     55 CA         22.0810  -34.4997  -44.6554 C.3       9 UNK         0.0839 
     56 C          22.9944  -35.5294  -45.3744 C.2       9 UNK         0.5513 
     57 N          22.5891  -36.0054  -46.5437 N.am      9 UNK        -0.7519 
     58 O          24.0399  -35.9306  -44.8665 O.2       9 UNK        -0.4960 
     59 C59        21.0051  -35.2215  -43.7984 C.3       10 UNK        -0.0876 
     60 S60        19.7531  -34.1714  -42.9651 S.3       10 UNK        -0.2414 
     61 C61        19.6818  -32.6443  -43.9593 C.3       10 UNK         0.0169 
     62 H62        18.8063  -22.3068  -46.6260 H         1 UNK         0.0903 
     63 H63        19.4925  -23.7908  -45.9826 H         1 UNK         0.0903 
     64 H64        18.2204  -23.8538  -47.2185 H         1 UNK         0.0903 
     65 H65        16.3499  -24.4482  -44.0153 H         1 UNK         0.3096 
     66 H66        17.6510  -25.8663  -46.1856 H         1 UNK         0.1121 
     67 H67        16.4145  -27.2154  -43.7487 H         1 UNK         0.0849 
     68 H68        15.3815  -26.4377  -44.9082 H         1 UNK         0.0849 
     69 H69        15.3607  -30.4517  -45.5412 H         1 UNK         0.0865 
     70 H70        14.8305  -29.2835  -44.3622 H         1 UNK         0.0865 
     71 H71        17.6810  -31.4573  -45.3870 H         1 UNK         0.1346 
     72 H72        19.3481  -31.6504  -41.4457 H         1 UNK         0.1412 
     73 H73        15.9942  -29.0964  -42.2432 H         1 UNK         0.1426 
     74 H74        18.6977  -30.0117  -39.7745 H         1 UNK         0.0716 
     75 H75        17.0755  -30.6193  -39.6757 H         1 UNK         0.0716 
     76 H76        18.5492  -26.6924  -38.9068 H         1 UNK         0.0695 
     77 H77        18.0554  -26.1734  -40.4868 H         1 UNK         0.0695 
     78 H78        20.1567  -28.3543  -39.9676 H         1 UNK         0.0983 
     79 H79        18.8600  -27.6239  -42.3879 H         1 UNK         0.3095 
     80 H80        21.3765  -27.1889  -44.5425 H         1 UNK         0.0454 
     81 H81        21.1204  -29.0373  -46.0563 H         1 UNK         0.0851 
     82 H82        20.1724  -29.9593  -44.9030 H         1 UNK         0.0851 
     83 H83        21.8841  -29.6818  -44.6167 H         1 UNK         0.0851 
     84 H84        18.7840  -28.0298  -45.2922 H         1 UNK         0.2976 
     85 H85        20.2343  -25.3501  -41.9027 H         1 UNK         0.3116 
     86 H86        21.6974  -23.7345  -40.0638 H         1 UNK         0.0646 
     87 H87        22.0322  -22.2829  -42.0677 H         1 UNK         0.0847 
     88 H88        20.3637  -22.8199  -41.9614 H         1 UNK         0.0847 
     89 H89        21.4598  -23.5709  -43.1191 H         1 UNK         0.0847 
     90 H90        22.7379  -26.3365  -42.1082 H         1 UNK         0.3040 
     91 H91        25.6214  -25.6170  -41.8864 H         1 UNK         0.1015 
     92 H92        24.7774  -26.1637  -44.1693 H         1 UNK         0.0786 
     93 H93        24.1856  -27.7186  -43.5932 H         1 UNK         0.0786 
     94 H94        25.9125  -27.3805  -43.6156 H         1 UNK         0.0786 
     95 H95        23.6702  -26.6776  -39.7381 H         1 UNK         0.3172 
     96 H96        23.7141  -27.9191  -37.9319 H         1 UNK         0.0595 
     97 H97        26.5646  -28.8043  -38.6166 H         1 UNK         0.0839 
     98 H98        25.7774  -28.9074  -37.0521 H         1 UNK         0.0839 
     99 H99        26.1444  -27.3338  -37.7381 H         1 UNK         0.0839 
    100 H100       22.4868  -28.8630  -40.1745 H         1 UNK         0.2998 
    101 H101       21.2629  -30.5370  -40.9109 H         1 UNK         0.0822 
    102 H102       22.2139  -32.1920  -38.5174 H         1 UNK         0.0787 
    103 H103       20.8158  -31.1181  -38.5310 H         1 UNK         0.0787 
    104 H104       20.8394  -32.5509  -39.5476 H         1 UNK         0.0787 
    105 H105       23.2718  -30.1224  -42.3912 H         1 UNK         0.3055 
    106 H106       25.0749  -32.3628  -42.8063 H         1 UNK         0.1106 
    107 H107       25.9061  -30.9821  -44.6834 H         1 UNK         0.0828 
    108 H108       24.5475  -29.8807  -44.5212 H         1 UNK         0.0828 
    109 H109       25.7524  -30.0045  -43.2363 H         1 UNK         0.0828 
    110 H110       22.8473  -33.6831  -42.8444 H         1 UNK         0.2931 
    111 H111       21.5731  -33.9326  -45.4370 H         1 UNK         0.0412 
    112 H112       21.7293  -35.6907  -46.9667 H         1 UNK         0.3472 
    113 H113       23.1600  -36.6868  -47.0200 H         1 UNK         0.3472 
    114 H114       20.4535  -35.9285  -44.4212 H         1 UNK         0.0970 
    115 H115       21.4881  -35.8265  -43.0286 H         1 UNK         0.0970 
    116 H116       20.6426  -32.1342  -43.9227 H         1 UNK         0.0612 
    117 H117       19.4973  -32.9094  -45.0013 H         1 UNK         0.0612 
@<TRIPOS>BOND
     1    1    2 1    
     2    1   62 1    
     3    1   63 1    
     4    1   64 1    
     5    2    3 2    
     6    2    4 am   BACKBONE|DICT|INTERRES
     7    4    5 1    
     8    4   65 1    
     9    5    6 1    
    10    5   25 1    
    11    5   66 1    
    12    6    7 1    
    13    6   67 1    
    14    6   68 1    
    15    7    8 1    
    16    8    9 1    
    17    8   69 1    
    18    8   70 1    
    19    9   10 ar   
    20    9   14 ar   
    21   10   11 ar   
    22   10   71 1    
    23   11   12 ar   
    24   11   61 1    
    25   12   13 ar   
    26   12   72 1    
    27   13   14 ar   
    28   13   15 1    
    29   14   73 1    
    30   15   16 1    
    31   15   74 1    
    32   15   75 1    
    33   16   17 1    
    34   17   18 1    
    35   17   76 1    
    36   17   77 1    
    37   18   19 1    
    38   18   27 1    
    39   18   78 1    
    40   19   20 am   BACKBONE|DICT|INTERRES
    41   19   79 1    
    42   20   21 2    
    43   20   22 1    
    44   22   23 1    
    45   22   24 1    
    46   22   80 1    
    47   23   81 1    
    48   23   82 1    
    49   23   83 1    
    50   24   25 am   BACKBONE|DICT|INTERRES
    51   24   84 1    
    52   25   26 2    
    53   27   28 2    
    54   27   29 am   BACKBONE|DICT|INTERRES
    55   29   30 1    
    56   29   85 1    
    57   30   31 1    
    58   30   32 1    
    59   30   86 1    
    60   31   87 1    
    61   31   88 1    
    62   31   89 1    
    63   32   33 2    
    64   32   34 am   BACKBONE|DICT|INTERRES
    65   34   35 1    
    66   34   90 1    
    67   35   36 1    
    68   35   37 1    
    69   35   91 1    
    70   36   92 1    
    71   36   93 1    
    72   36   94 1    
    73   37   38 2    
    74   37   39 am   BACKBONE|DICT|INTERRES
    75   39   40 1    
    76   39   95 1    
    77   40   41 1    
    78   40   42 1    
    79   40   96 1    
    80   41   97 1    
    81   41   98 1    
    82   41   99 1    
    83   42   43 2    
    84   42   44 am   BACKBONE|DICT|INTERRES
    85   44   45 1    
    86   44  100 1    
    87   45   46 1    
    88   45   47 1    
    89   45  101 1    
    90   46  102 1    
    91   46  103 1    
    92   46  104 1    
    93   47   48 2    
    94   47   49 am   BACKBONE|DICT|INTERRES
    95   49   50 1    
    96   49  105 1    
    97   50   51 1    
    98   50   52 1    
    99   50  106 1    
   100   51  107 1    
   101   51  108 1    
   102   51  109 1    
   103   52   53 2    
   104   52   54 am   BACKBONE|DICT|INTERRES
   105   54   55 1    
   106   54  110 1    
   107   55   56 1    
   108   55   59 1    
   109   55  111 1    
   110   56   57 am   BACKBONE|DICT|INTERRES
   111   56   58 2    
   112   57  112 1    
   113   57  113 1    
   114   59   60 1    
   115   59  114 1    
   116   59  115 1    
   117   60   61 1    
   118   61  116 1    
   119   61  117 1    
@<TRIPOS>SUBSTRUCTURE
     1 UNK         1 GROUP             0       ****    0 ROOT    
