@<TRIPOS>MOLECULE
3R8
117   119    1
SMALL
USER_CHARGES


@<TRIPOS>ATOM
      1 CA         14.1441  -24.2653  -43.1669 C.3       0 UNK        -0.2013 
      2 C          14.4033  -24.8863  -44.5312 C.2       0 UNK         0.4866 
      3 O          13.4820  -24.9950  -45.3408 O.2       0 UNK        -0.5176 
      4 N          15.6490  -25.2928  -44.7914 N.am      1 UNK        -0.4884 
      5 CA         16.1163  -25.8775  -46.0479 C.3       1 UNK         0.0853 
      6 C6         15.6008  -27.3331  -46.2745 C.3       10 UNK        -0.0849 
      7 S7         16.4956  -28.6398  -45.3648 S.3       10 UNK        -0.2776 
      8 C8         15.5785  -28.7156  -43.7989 C.3       10 UNK         0.0316 
      9 C9         16.4600  -29.3364  -42.7300 C.ar      10 UNK        -0.0863 
     10 C10        16.4369  -30.7140  -42.5031 C.ar      10 UNK        -0.1009 
     11 C11        17.2930  -31.2916  -41.5605 C.ar      10 UNK        -0.0712 
     12 C12        18.1778  -30.4779  -40.8437 C.ar      10 UNK        -0.0894 
     13 C13        18.2144  -29.0977  -41.0700 C.ar      10 UNK        -0.0745 
     14 C14        17.3365  -28.5320  -41.9987 C.ar      10 UNK        -0.0972 
     15 C15        19.1999  -28.2186  -40.3122 C.3       10 UNK         0.0209 
     16 S16        20.8236  -28.1283  -41.1386 S.3       10 UNK        -0.2568 
     17 C17        20.5051  -26.9908  -42.5324 C.3       10 UNK        -0.0983 
     18 CA         21.0733  -27.5104  -43.8796 C.3       3 UNK         0.0876 
     19 N          20.3616  -26.9045  -45.0084 N.am      3 UNK        -0.4424 
     20 C          20.4999  -27.2299  -46.2994 C.2       2 UNK         0.4918 
     21 O          21.1869  -28.1725  -46.6975 O.2       2 UNK        -0.4875 
     22 CA         19.7491  -26.3351  -47.3128 C.3       2 UNK         0.0481 
     23 CB         20.0384  -26.7294  -48.7733 C.3       2 UNK        -0.1831 
     24 N          18.2966  -26.3253  -47.1066 N.am      2 UNK        -0.4498 
     25 C          17.6497  -25.7028  -46.1116 C.2       1 UNK         0.5027 
     26 O          18.2244  -25.0260  -45.2510 O.2       1 UNK        -0.4969 
     27 C          22.5876  -27.2265  -43.9695 C.2       3 UNK         0.5005 
     28 O          22.9825  -26.1686  -44.4696 O.2       3 UNK        -0.5279 
     29 N          23.4091  -28.1325  -43.4230 N.am      4 UNK        -0.4463 
     30 CA         24.8587  -27.9439  -43.2997 C.3       4 UNK         0.0283 
     31 CB         25.5230  -29.3141  -43.1005 C.3       4 UNK        -0.1875 
     32 C          25.2615  -26.9951  -42.1530 C.2       4 UNK         0.4949 
     33 O          26.4449  -26.6731  -42.0451 O.2       4 UNK        -0.5039 
     34 N          24.2965  -26.6066  -41.3008 N.am      5 UNK        -0.4663 
     35 CA         24.4718  -25.9025  -40.0199 C.3       5 UNK         0.0242 
     36 CB         25.0438  -24.4835  -40.2256 C.3       5 UNK        -0.1982 
     37 C          25.2840  -26.7539  -39.0226 C.2       5 UNK         0.5017 
     38 O          26.1507  -26.2430  -38.3111 O.2       5 UNK        -0.5012 
     39 N          24.9858  -28.0558  -39.0268 N.am      6 UNK        -0.4439 
     40 CA         25.6303  -29.1401  -38.3000 C.3       6 UNK         0.0297 
     41 CB         27.0187  -29.4326  -38.9088 C.3       6 UNK        -0.2006 
     42 C          24.6891  -30.3512  -38.3971 C.2       6 UNK         0.4892 
     43 O          23.5655  -30.2131  -38.8916 O.2       6 UNK        -0.5089 
     44 N          25.1551  -31.5256  -37.9566 N.am      7 UNK        -0.4243 
     45 CA         24.4250  -32.7978  -38.0049 C.3       7 UNK         0.0196 
     46 CB         25.0449  -33.7620  -36.9750 C.3       7 UNK        -0.2007 
     47 C          24.3533  -33.4087  -39.4240 C.2       7 UNK         0.5020 
     48 O          24.6954  -34.5782  -39.6079 O.2       7 UNK        -0.5147 
     49 N          23.9055  -32.6170  -40.4038 N.am      8 UNK        -0.4734 
     50 CA         23.6621  -33.0213  -41.7843 C.3       8 UNK         0.0238 
     51 CB         24.9702  -33.0188  -42.5951 C.3       8 UNK        -0.1912 
     52 C          22.6055  -32.0885  -42.3878 C.2       8 UNK         0.5038 
     53 O          22.7462  -30.8658  -42.3068 O.2       8 UNK        -0.5046 
     54 N          21.5711  -32.6924  -42.9784 N.am      9 UNK        -0.4200 
     55 CA         20.3640  -32.0302  -43.5000 C.3       9 UNK         0.0839 
     56 C          20.5332  -31.3439  -44.8873 C.2       9 UNK         0.5513 
     57 N          21.7375  -31.2193  -45.4301 N.am      9 UNK        -0.7519 
     58 O          19.5533  -30.9063  -45.4814 O.2       9 UNK        -0.4960 
     59 C59        19.1515  -33.0021  -43.4686 C.3       10 UNK        -0.0876 
     60 S60        18.8244  -33.6235  -41.7788 S.3       10 UNK        -0.2414 
     61 C61        17.2613  -32.7977  -41.3337 C.3       10 UNK         0.0169 
     62 H62        15.0439  -24.2406  -42.5524 H         1 UNK         0.0903 
     63 H63        13.7835  -23.2434  -43.2819 H         1 UNK         0.0903 
     64 H64        13.3852  -24.8367  -42.6331 H         1 UNK         0.0903 
     65 H65        16.3994  -25.1132  -44.1346 H         1 UNK         0.3096 
     66 H66        15.7195  -25.2551  -46.8533 H         1 UNK         0.1121 
     67 H67        14.5361  -27.4065  -46.0488 H         1 UNK         0.0849 
     68 H68        15.6752  -27.5775  -47.3351 H         1 UNK         0.0849 
     69 H69        15.2709  -27.7166  -43.4893 H         1 UNK         0.0865 
     70 H70        14.6638  -29.2945  -43.9355 H         1 UNK         0.0865 
     71 H71        15.7644  -31.3379  -43.0762 H         1 UNK         0.1346 
     72 H72        18.8535  -30.9238  -40.1264 H         1 UNK         0.1412 
     73 H73        17.3483  -27.4660  -42.1758 H         1 UNK         0.1426 
     74 H74        19.3445  -28.6175  -39.3071 H         1 UNK         0.0716 
     75 H75        18.7982  -27.2124  -40.1826 H         1 UNK         0.0716 
     76 H76        20.9016  -26.0043  -42.2827 H         1 UNK         0.0695 
     77 H77        19.4306  -26.8465  -42.6219 H         1 UNK         0.0695 
     78 H78        20.9141  -28.5882  -43.9464 H         1 UNK         0.0983 
     79 H79        19.7649  -26.1112  -44.7979 H         1 UNK         0.3095 
     80 H80        20.1200  -25.3177  -47.1715 H         1 UNK         0.0454 
     81 H81        19.6889  -27.7383  -48.9961 H         1 UNK         0.0851 
     82 H82        21.1090  -26.7025  -48.9805 H         1 UNK         0.0851 
     83 H83        19.5594  -26.0446  -49.4732 H         1 UNK         0.0851 
     84 H84        17.7593  -26.9037  -47.7362 H         1 UNK         0.2976 
     85 H85        23.0250  -28.9804  -43.0104 H         1 UNK         0.3116 
     86 H86        25.2371  -27.5158  -44.2305 H         1 UNK         0.0646 
     87 H87        25.2352  -29.7582  -42.1468 H         1 UNK         0.0847 
     88 H88        26.6103  -29.2277  -43.1030 H         1 UNK         0.0847 
     89 H89        25.2510  -30.0078  -43.8960 H         1 UNK         0.0847 
     90 H90        23.3602  -26.9355  -41.4931 H         1 UNK         0.3040 
     91 H91        23.4759  -25.7948  -39.5864 H         1 UNK         0.1015 
     92 H92        26.0738  -24.5051  -40.5822 H         1 UNK         0.0786 
     93 H93        25.0389  -23.9239  -39.2895 H         1 UNK         0.0786 
     94 H94        24.4512  -23.9177  -40.9444 H         1 UNK         0.0786 
     95 H95        24.1991  -28.3762  -39.5808 H         1 UNK         0.3172 
     96 H96        25.7302  -28.8594  -37.2499 H         1 UNK         0.0595 
     97 H97        27.5505  -30.2005  -38.3467 H         1 UNK         0.0839 
     98 H98        27.6527  -28.5459  -38.9033 H         1 UNK         0.0839 
     99 H99        26.9399  -29.7746  -39.9418 H         1 UNK         0.0839 
    100 H100       26.0961  -31.5651  -37.5926 H         1 UNK         0.2998 
    101 H101       23.3940  -32.6109  -37.6963 H         1 UNK         0.0822 
    102 H102       24.4900  -34.7003  -36.9323 H         1 UNK         0.0787 
    103 H103       26.0793  -34.0050  -37.2216 H         1 UNK         0.0787 
    104 H104       25.0293  -33.3357  -35.9717 H         1 UNK         0.0787 
    105 H105       23.6202  -31.6682  -40.1663 H         1 UNK         0.3055 
    106 H106       23.2622  -34.0382  -41.7804 H         1 UNK         0.1106 
    107 H107       24.7801  -33.2067  -43.6525 H         1 UNK         0.0828 
    108 H108       25.4939  -32.0681  -42.5170 H         1 UNK         0.0828 
    109 H109       25.6496  -33.7966  -42.2465 H         1 UNK         0.0828 
    110 H110       21.5561  -33.7004  -43.0191 H         1 UNK         0.2931 
    111 H111       20.1325  -31.2090  -42.8191 H         1 UNK         0.0412 
    112 H112       22.5554  -31.5551  -44.9493 H         1 UNK         0.3472 
    113 H113       21.8235  -30.7350  -46.3108 H         1 UNK         0.3472 
    114 H114       18.2526  -32.5197  -43.8558 H         1 UNK         0.0970 
    115 H115       19.3329  -33.8563  -44.1228 H         1 UNK         0.0970 
    116 H116       17.0462  -32.9955  -40.2829 H         1 UNK         0.0612 
    117 H117       16.4525  -33.2581  -41.9034 H         1 UNK         0.0612 
@<TRIPOS>BOND
     1    1    2 1    
     2    1   62 1    
     3    1   63 1    
     4    1   64 1    
     5    2    3 2    
     6    2    4 am   BACKBONE|DICT|INTERRES
     7    4    5 1    
     8    4   65 1    
     9    5    6 1    
    10    5   25 1    
    11    5   66 1    
    12    6    7 1    
    13    6   67 1    
    14    6   68 1    
    15    7    8 1    
    16    8    9 1    
    17    8   69 1    
    18    8   70 1    
    19    9   10 ar   
    20    9   14 ar   
    21   10   11 ar   
    22   10   71 1    
    23   11   12 ar   
    24   11   61 1    
    25   12   13 ar   
    26   12   72 1    
    27   13   14 ar   
    28   13   15 1    
    29   14   73 1    
    30   15   16 1    
    31   15   74 1    
    32   15   75 1    
    33   16   17 1    
    34   17   18 1    
    35   17   76 1    
    36   17   77 1    
    37   18   19 1    
    38   18   27 1    
    39   18   78 1    
    40   19   20 am   BACKBONE|DICT|INTERRES
    41   19   79 1    
    42   20   21 2    
    43   20   22 1    
    44   22   23 1    
    45   22   24 1    
    46   22   80 1    
    47   23   81 1    
    48   23   82 1    
    49   23   83 1    
    50   24   25 am   BACKBONE|DICT|INTERRES
    51   24   84 1    
    52   25   26 2    
    53   27   28 2    
    54   27   29 am   BACKBONE|DICT|INTERRES
    55   29   30 1    
    56   29   85 1    
    57   30   31 1    
    58   30   32 1    
    59   30   86 1    
    60   31   87 1    
    61   31   88 1    
    62   31   89 1    
    63   32   33 2    
    64   32   34 am   BACKBONE|DICT|INTERRES
    65   34   35 1    
    66   34   90 1    
    67   35   36 1    
    68   35   37 1    
    69   35   91 1    
    70   36   92 1    
    71   36   93 1    
    72   36   94 1    
    73   37   38 2    
    74   37   39 am   BACKBONE|DICT|INTERRES
    75   39   40 1    
    76   39   95 1    
    77   40   41 1    
    78   40   42 1    
    79   40   96 1    
    80   41   97 1    
    81   41   98 1    
    82   41   99 1    
    83   42   43 2    
    84   42   44 am   BACKBONE|DICT|INTERRES
    85   44   45 1    
    86   44  100 1    
    87   45   46 1    
    88   45   47 1    
    89   45  101 1    
    90   46  102 1    
    91   46  103 1    
    92   46  104 1    
    93   47   48 2    
    94   47   49 am   BACKBONE|DICT|INTERRES
    95   49   50 1    
    96   49  105 1    
    97   50   51 1    
    98   50   52 1    
    99   50  106 1    
   100   51  107 1    
   101   51  108 1    
   102   51  109 1    
   103   52   53 2    
   104   52   54 am   BACKBONE|DICT|INTERRES
   105   54   55 1    
   106   54  110 1    
   107   55   56 1    
   108   55   59 1    
   109   55  111 1    
   110   56   57 am   BACKBONE|DICT|INTERRES
   111   56   58 2    
   112   57  112 1    
   113   57  113 1    
   114   59   60 1    
   115   59  114 1    
   116   59  115 1    
   117   60   61 1    
   118   61  116 1    
   119   61  117 1    
@<TRIPOS>SUBSTRUCTURE
     1 UNK         1 GROUP             0       ****    0 ROOT    
