@<TRIPOS>MOLECULE
3R8
117   119    1
SMALL
USER_CHARGES


@<TRIPOS>ATOM
      1 CA         17.9920  -23.5034  -40.1418 C.3       0 UNK        -0.2013 
      2 C          17.4257  -23.9865  -41.4687 C.2       0 UNK         0.4866 
      3 O          16.2148  -23.9198  -41.6800 O.2       0 UNK        -0.5176 
      4 N          18.2921  -24.4711  -42.3627 N.am      1 UNK        -0.4884 
      5 CA         17.9623  -24.9672  -43.6966 C.3       1 UNK         0.0853 
      6 C6         17.3108  -26.3740  -43.6609 C.3       10 UNK        -0.0849 
      7 S7         16.2432  -26.6967  -45.1033 S.3       10 UNK        -0.2776 
      8 C8         15.5709  -28.3373  -44.6733 C.3       10 UNK         0.0316 
      9 C9         16.6807  -29.3653  -44.5095 C.ar      10 UNK        -0.0863 
     10 C10        17.0700  -29.7916  -43.2351 C.ar      10 UNK        -0.1009 
     11 C11        18.1447  -30.6723  -43.0818 C.ar      10 UNK        -0.0712 
     12 C12        18.8190  -31.1388  -44.2133 C.ar      10 UNK        -0.0894 
     13 C13        18.4333  -30.7244  -45.4910 C.ar      10 UNK        -0.0745 
     14 C14        17.3545  -29.8483  -45.6340 C.ar      10 UNK        -0.0972 
     15 C15        19.2057  -31.1895  -46.7158 C.3       10 UNK         0.0209 
     16 S16        20.1548  -29.8294  -47.4697 S.3       10 UNK        -0.2568 
     17 C17        21.3552  -29.4422  -46.1519 C.3       10 UNK        -0.0983 
     18 CA         22.0295  -28.0671  -46.3656 C.3       3 UNK         0.0876 
     19 N          21.0620  -26.9632  -46.3740 N.am      3 UNK        -0.4424 
     20 C          21.3330  -25.7301  -46.8227 C.2       2 UNK         0.4918 
     21 O          22.4386  -25.3838  -47.2400 O.2       2 UNK        -0.4875 
     22 CA         20.1847  -24.7035  -46.8355 C.3       2 UNK         0.0481 
     23 CB         19.5691  -24.6205  -48.2418 C.3       2 UNK        -0.1831 
     24 N          19.1123  -24.9276  -45.8594 N.am      2 UNK        -0.4498 
     25 C          19.2578  -24.9381  -44.5283 C.2       1 UNK         0.5027 
     26 O          20.3519  -24.9219  -43.9549 O.2       1 UNK        -0.4969 
     27 C          23.1719  -27.8645  -45.3486 C.2       3 UNK         0.5005 
     28 O          24.2919  -28.2950  -45.6279 O.2       3 UNK        -0.5279 
     29 N          22.8826  -27.2234  -44.2061 N.am      4 UNK        -0.4463 
     30 CA         23.8360  -26.9206  -43.1354 C.3       4 UNK         0.0283 
     31 CB         24.5342  -28.1717  -42.5605 C.3       4 UNK        -0.1875 
     32 C          23.1976  -26.0516  -42.0371 C.2       4 UNK         0.4949 
     33 O          23.6810  -24.9410  -41.8310 O.2       4 UNK        -0.5039 
     34 N          22.1339  -26.4750  -41.3330 N.am      5 UNK        -0.4663 
     35 CA         21.4459  -27.7729  -41.3492 C.3       5 UNK         0.0242 
     36 CB         19.9510  -27.5140  -41.1210 C.3       5 UNK        -0.1982 
     37 C          21.9604  -28.7492  -40.2776 C.2       5 UNK         0.5017 
     38 O          21.7499  -29.9541  -40.4225 O.2       5 UNK        -0.5012 
     39 N          22.6330  -28.2350  -39.2373 N.am      6 UNK        -0.4439 
     40 CA         23.0882  -28.9992  -38.0681 C.3       6 UNK         0.0297 
     41 CB         23.7381  -28.0474  -37.0512 C.3       6 UNK        -0.2006 
     42 C          24.0381  -30.1623  -38.4020 C.2       6 UNK         0.4892 
     43 O          23.9108  -31.2359  -37.8156 O.2       6 UNK        -0.5089 
     44 N          24.9455  -29.9409  -39.3610 N.am      7 UNK        -0.4243 
     45 CA         25.8790  -30.9544  -39.8594 C.3       7 UNK         0.0196 
     46 CB         27.0775  -30.2530  -40.5208 C.3       7 UNK        -0.2007 
     47 C          25.2365  -31.9598  -40.8346 C.2       7 UNK         0.5020 
     48 O          25.8462  -32.9961  -41.0996 O.2       7 UNK        -0.5147 
     49 N          24.0473  -31.6447  -41.3684 N.am      8 UNK        -0.4734 
     50 CA         23.3312  -32.4838  -42.3300 C.3       8 UNK         0.0238 
     51 CB         22.5845  -31.6024  -43.3474 C.3       8 UNK        -0.1912 
     52 C          22.3788  -33.4548  -41.6197 C.2       8 UNK         0.5038 
     53 O          22.4344  -34.6534  -41.8982 O.2       8 UNK        -0.5046 
     54 N          21.5371  -32.9299  -40.7183 N.am      9 UNK        -0.4200 
     55 CA         20.5742  -33.7250  -39.9337 C.3       9 UNK         0.0839 
     56 C          21.1285  -34.2242  -38.5699 C.2       9 UNK         0.5513 
     57 N          22.2725  -33.7539  -38.0907 N.am      9 UNK        -0.7519 
     58 O          20.5105  -35.0761  -37.9364 O.2       9 UNK        -0.4960 
     59 C59        19.2184  -32.9921  -39.7577 C.3       10 UNK        -0.0876 
     60 S60        18.3196  -32.8220  -41.3375 S.3       10 UNK        -0.2414 
     61 C61        18.6246  -31.0709  -41.6961 C.3       10 UNK         0.0169 
     62 H62        17.5492  -24.0642  -39.3191 H         1 UNK         0.0903 
     63 H63        19.0739  -23.6257  -40.0913 H         1 UNK         0.0903 
     64 H64        17.7626  -22.4479  -39.9977 H         1 UNK         0.0903 
     65 H65        19.2897  -24.4592  -42.1826 H         1 UNK         0.3096 
     66 H66        17.2661  -24.2524  -44.1421 H         1 UNK         0.1121 
     67 H67        18.0681  -27.1558  -43.5901 H         1 UNK         0.0849 
     68 H68        16.6862  -26.4828  -42.7730 H         1 UNK         0.0849 
     69 H69        14.9761  -28.2580  -43.7619 H         1 UNK         0.0865 
     70 H70        14.8861  -28.6609  -45.4585 H         1 UNK         0.0865 
     71 H71        16.5598  -29.4099  -42.3613 H         1 UNK         0.1346 
     72 H72        19.6566  -31.8112  -44.0932 H         1 UNK         0.1412 
     73 H73        17.0676  -29.5080  -46.6199 H         1 UNK         0.1426 
     74 H74        18.5064  -31.5858  -47.4532 H         1 UNK         0.0716 
     75 H75        19.8850  -32.0058  -46.4648 H         1 UNK         0.0716 
     76 H76        20.8597  -29.4661  -45.1806 H         1 UNK         0.0695 
     77 H77        22.0992  -30.2413  -46.1408 H         1 UNK         0.0695 
     78 H78        22.5010  -28.0855  -47.3513 H         1 UNK         0.0983 
     79 H79        20.1203  -27.1812  -46.0840 H         1 UNK         0.3095 
     80 H80        20.6269  -23.7321  -46.6051 H         1 UNK         0.0454 
     81 H81        20.3343  -24.4219  -48.9937 H         1 UNK         0.0851 
     82 H82        19.0736  -25.5515  -48.5205 H         1 UNK         0.0851 
     83 H83        18.8374  -23.8155  -48.3102 H         1 UNK         0.0851 
     84 H84        18.1760  -24.9969  -46.2344 H         1 UNK         0.2976 
     85 H85        21.9588  -26.8227  -44.0926 H         1 UNK         0.3116 
     86 H86        24.6164  -26.3044  -43.5872 H         1 UNK         0.0646 
     87 H87        25.0127  -27.9506  -41.6065 H         1 UNK         0.0847 
     88 H88        25.3199  -28.5253  -43.2277 H         1 UNK         0.0847 
     89 H89        23.8446  -28.9987  -42.4125 H         1 UNK         0.0847 
     90 H90        21.7561  -25.8133  -40.6706 H         1 UNK         0.3040 
     91 H91        21.5495  -28.2680  -42.3131 H         1 UNK         0.1015 
     92 H92        19.5581  -26.8404  -41.8772 H         1 UNK         0.0786 
     93 H93        19.7555  -27.0694  -40.1443 H         1 UNK         0.0786 
     94 H94        19.3741  -28.4348  -41.1809 H         1 UNK         0.0786 
     95 H95        22.7787  -27.2364  -39.2125 H         1 UNK         0.3172 
     96 H96        22.2004  -29.4334  -37.6032 H         1 UNK         0.0595 
     97 H97        24.0697  -28.5909  -36.1651 H         1 UNK         0.0839 
     98 H98        23.0356  -27.2848  -36.7144 H         1 UNK         0.0839 
     99 H99        24.6102  -27.5416  -37.4674 H         1 UNK         0.0839 
    100 H100       24.9926  -29.0234  -39.7770 H         1 UNK         0.2998 
    101 H101       26.2537  -31.5268  -39.0076 H         1 UNK         0.0822 
    102 H102       27.5648  -29.5623  -39.8323 H         1 UNK         0.0787 
    103 H103       27.8293  -30.9798  -40.8317 H         1 UNK         0.0787 
    104 H104       26.7838  -29.6942  -41.4092 H         1 UNK         0.0787 
    105 H105       23.5622  -30.8226  -41.0329 H         1 UNK         0.3055 
    106 H106       24.0505  -33.0851  -42.8915 H         1 UNK         0.1106 
    107 H107       21.8371  -30.9650  -42.8764 H         1 UNK         0.0828 
    108 H108       23.2759  -30.9601  -43.8928 H         1 UNK         0.0828 
    109 H109       22.0701  -32.2180  -44.0862 H         1 UNK         0.0828 
    110 H110       21.5630  -31.9320  -40.5360 H         1 UNK         0.2931 
    111 H111       20.3544  -34.6391  -40.4891 H         1 UNK         0.0412 
    112 H112       22.7758  -33.0091  -38.5512 H         1 UNK         0.3472 
    113 H113       22.6086  -34.1003  -37.2063 H         1 UNK         0.3472 
    114 H114       19.3646  -32.0153  -39.2926 H         1 UNK         0.0970 
    115 H115       18.5635  -33.5487  -39.0843 H         1 UNK         0.0970 
    116 H116       19.6932  -30.8754  -41.6308 H         1 UNK         0.0612 
    117 H117       18.1444  -30.4647  -40.9267 H         1 UNK         0.0612 
@<TRIPOS>BOND
     1    1    2 1    
     2    1   62 1    
     3    1   63 1    
     4    1   64 1    
     5    2    3 2    
     6    2    4 am   BACKBONE|DICT|INTERRES
     7    4    5 1    
     8    4   65 1    
     9    5    6 1    
    10    5   25 1    
    11    5   66 1    
    12    6    7 1    
    13    6   67 1    
    14    6   68 1    
    15    7    8 1    
    16    8    9 1    
    17    8   69 1    
    18    8   70 1    
    19    9   10 ar   
    20    9   14 ar   
    21   10   11 ar   
    22   10   71 1    
    23   11   12 ar   
    24   11   61 1    
    25   12   13 ar   
    26   12   72 1    
    27   13   14 ar   
    28   13   15 1    
    29   14   73 1    
    30   15   16 1    
    31   15   74 1    
    32   15   75 1    
    33   16   17 1    
    34   17   18 1    
    35   17   76 1    
    36   17   77 1    
    37   18   19 1    
    38   18   27 1    
    39   18   78 1    
    40   19   20 am   BACKBONE|DICT|INTERRES
    41   19   79 1    
    42   20   21 2    
    43   20   22 1    
    44   22   23 1    
    45   22   24 1    
    46   22   80 1    
    47   23   81 1    
    48   23   82 1    
    49   23   83 1    
    50   24   25 am   BACKBONE|DICT|INTERRES
    51   24   84 1    
    52   25   26 2    
    53   27   28 2    
    54   27   29 am   BACKBONE|DICT|INTERRES
    55   29   30 1    
    56   29   85 1    
    57   30   31 1    
    58   30   32 1    
    59   30   86 1    
    60   31   87 1    
    61   31   88 1    
    62   31   89 1    
    63   32   33 2    
    64   32   34 am   BACKBONE|DICT|INTERRES
    65   34   35 1    
    66   34   90 1    
    67   35   36 1    
    68   35   37 1    
    69   35   91 1    
    70   36   92 1    
    71   36   93 1    
    72   36   94 1    
    73   37   38 2    
    74   37   39 am   BACKBONE|DICT|INTERRES
    75   39   40 1    
    76   39   95 1    
    77   40   41 1    
    78   40   42 1    
    79   40   96 1    
    80   41   97 1    
    81   41   98 1    
    82   41   99 1    
    83   42   43 2    
    84   42   44 am   BACKBONE|DICT|INTERRES
    85   44   45 1    
    86   44  100 1    
    87   45   46 1    
    88   45   47 1    
    89   45  101 1    
    90   46  102 1    
    91   46  103 1    
    92   46  104 1    
    93   47   48 2    
    94   47   49 am   BACKBONE|DICT|INTERRES
    95   49   50 1    
    96   49  105 1    
    97   50   51 1    
    98   50   52 1    
    99   50  106 1    
   100   51  107 1    
   101   51  108 1    
   102   51  109 1    
   103   52   53 2    
   104   52   54 am   BACKBONE|DICT|INTERRES
   105   54   55 1    
   106   54  110 1    
   107   55   56 1    
   108   55   59 1    
   109   55  111 1    
   110   56   57 am   BACKBONE|DICT|INTERRES
   111   56   58 2    
   112   57  112 1    
   113   57  113 1    
   114   59   60 1    
   115   59  114 1    
   116   59  115 1    
   117   60   61 1    
   118   61  116 1    
   119   61  117 1    
@<TRIPOS>SUBSTRUCTURE
     1 UNK         1 GROUP             0       ****    0 ROOT    
