@<TRIPOS>MOLECULE
3R8
117   119    1
SMALL
USER_CHARGES


@<TRIPOS>ATOM
      1 CA         18.5685  -27.5695  -50.1310 C.3       0 UNK        -0.2013 
      2 C          17.9765  -27.7173  -48.7375 C.2       0 UNK         0.4866 
      3 O          17.0836  -26.9522  -48.3707 O.2       0 UNK        -0.5176 
      4 N          18.4665  -28.6962  -47.9627 N.am      1 UNK        -0.4884 
      5 CA         18.0855  -29.0081  -46.5784 C.3       1 UNK         0.0853 
      6 C6         16.5665  -29.3064  -46.4074 C.3       10 UNK        -0.0849 
      7 S7         16.1818  -30.3466  -44.9582 S.3       10 UNK        -0.2776 
      8 C8         15.4806  -29.1623  -43.7446 C.3       10 UNK         0.0316 
      9 C9         16.4287  -28.8081  -42.5976 C.ar      10 UNK        -0.0863 
     10 C10        17.2896  -29.7681  -42.0547 C.ar      10 UNK        -0.1009 
     11 C11        18.1639  -29.4414  -41.0167 C.ar      10 UNK        -0.0712 
     12 C12        18.1462  -28.1530  -40.4815 C.ar      10 UNK        -0.0894 
     13 C13        17.2742  -27.1868  -40.9885 C.ar      10 UNK        -0.0745 
     14 C14        16.4145  -27.5214  -42.0430 C.ar      10 UNK        -0.0972 
     15 C15        17.2572  -25.7913  -40.3769 C.3       10 UNK         0.0209 
     16 S16        18.2106  -24.5789  -41.3481 S.3       10 UNK        -0.2568 
     17 C17        19.9110  -25.2428  -41.2879 C.3       10 UNK        -0.0983 
     18 CA         20.3350  -26.0001  -42.5795 C.3       3 UNK         0.0876 
     19 N          20.3713  -25.1364  -43.7656 N.am      3 UNK        -0.4424 
     20 C          19.4883  -25.0222  -44.7660 C.2       2 UNK         0.4918 
     21 O          19.7570  -24.3809  -45.7816 O.2       2 UNK        -0.4875 
     22 CA         18.0956  -25.6732  -44.6632 C.3       2 UNK         0.0481 
     23 CB         16.9841  -24.6385  -44.9066 C.3       2 UNK        -0.1831 
     24 N          17.9182  -26.7811  -45.5934 N.am      2 UNK        -0.4498 
     25 C          18.6009  -27.9320  -45.6046 C.2       1 UNK         0.5027 
     26 O          19.5892  -28.1649  -44.9062 O.2       1 UNK        -0.4969 
     27 C          21.7554  -26.5846  -42.4852 C.2       3 UNK         0.5005 
     28 O          22.5094  -26.2115  -41.5847 O.2       3 UNK        -0.5279 
     29 N          22.1236  -27.3955  -43.4926 N.am      4 UNK        -0.4463 
     30 CA         23.4875  -27.8366  -43.8265 C.3       4 UNK         0.0283 
     31 CB         23.4423  -28.8847  -44.9516 C.3       4 UNK        -0.1875 
     32 C          24.3068  -28.3440  -42.6265 C.2       4 UNK         0.4949 
     33 O          24.0725  -29.4516  -42.1375 O.2       4 UNK        -0.5039 
     34 N          25.2165  -27.4819  -42.1466 N.am      5 UNK        -0.4663 
     35 CA         26.1065  -27.6456  -40.9861 C.3       5 UNK         0.0242 
     36 CB         27.1538  -28.7416  -41.2776 C.3       5 UNK        -0.1982 
     37 C          25.3896  -27.8934  -39.6402 C.2       5 UNK         0.5017 
     38 O          26.0594  -28.2314  -38.6633 O.2       5 UNK        -0.5012 
     39 N          24.0527  -27.7646  -39.6174 N.am      6 UNK        -0.4439 
     40 CA         23.1253  -28.1918  -38.5633 C.3       6 UNK         0.0297 
     41 CB         23.2167  -27.2419  -37.3514 C.3       6 UNK        -0.2006 
     42 C          23.2789  -29.6803  -38.1697 C.2       6 UNK         0.4892 
     43 O          22.9984  -30.0337  -37.0225 O.2       6 UNK        -0.5089 
     44 N          23.7360  -30.5225  -39.1093 N.am      7 UNK        -0.4243 
     45 CA         24.0693  -31.9281  -38.8687 C.3       7 UNK         0.0196 
     46 CB         25.3992  -32.0503  -38.0989 C.3       7 UNK        -0.2007 
     47 C          24.1259  -32.7308  -40.1711 C.2       7 UNK         0.5020 
     48 O          23.5277  -33.8044  -40.2400 O.2       7 UNK        -0.5147 
     49 N          24.8191  -32.2031  -41.1923 N.am      8 UNK        -0.4734 
     50 CA         24.9431  -32.8237  -42.5210 C.3       8 UNK         0.0238 
     51 CB         25.9865  -32.0612  -43.3543 C.3       8 UNK        -0.1912 
     52 C          23.6026  -32.9166  -43.2728 C.2       8 UNK         0.5038 
     53 O          23.4286  -33.8093  -44.1029 O.2       8 UNK        -0.5046 
     54 N          22.6766  -32.0163  -42.9288 N.am      9 UNK        -0.4200 
     55 CA         21.2547  -32.0432  -43.2842 C.3       9 UNK         0.0839 
     56 C          20.4443  -33.2547  -42.7325 C.2       9 UNK         0.5513 
     57 N          20.9506  -34.0319  -41.7815 N.am      9 UNK        -0.7519 
     58 O          19.3291  -33.4961  -43.1862 O.2       9 UNK        -0.4960 
     59 C59        20.5781  -30.6985  -42.9201 C.3       10 UNK        -0.0876 
     60 S60        20.8043  -30.2051  -41.1708 S.3       10 UNK        -0.2414 
     61 C61        19.1433  -30.4737  -40.4851 C.3       10 UNK         0.0169 
     62 H62        19.3402  -28.3131  -50.3293 H         1 UNK         0.0903 
     63 H63        17.7881  -27.6822  -50.8832 H         1 UNK         0.0903 
     64 H64        19.0122  -26.5809  -50.2462 H         1 UNK         0.0903 
     65 H65        19.2140  -29.2701  -48.3299 H         1 UNK         0.3096 
     66 H66        18.6274  -29.9240  -46.3344 H         1 UNK         0.1121 
     67 H67        15.9593  -28.4005  -46.4006 H         1 UNK         0.0849 
     68 H68        16.2179  -29.8675  -47.2759 H         1 UNK         0.0849 
     69 H69        15.1475  -28.2584  -44.2560 H         1 UNK         0.0865 
     70 H70        14.5853  -29.6102  -43.3118 H         1 UNK         0.0865 
     71 H71        17.2954  -30.7739  -42.4513 H         1 UNK         0.1346 
     72 H72        18.8199  -27.9038  -39.6731 H         1 UNK         0.1412 
     73 H73        15.7400  -26.7725  -42.4355 H         1 UNK         0.1426 
     74 H74        17.6431  -25.8143  -39.3565 H         1 UNK         0.0716 
     75 H75        16.2261  -25.4435  -40.3007 H         1 UNK         0.0716 
     76 H76        20.0088  -25.8896  -40.4147 H         1 UNK         0.0695 
     77 H77        20.5809  -24.3999  -41.1082 H         1 UNK         0.0695 
     78 H78        19.6733  -26.8553  -42.7151 H         1 UNK         0.0983 
     79 H79        21.2564  -24.6651  -43.8849 H         1 UNK         0.3095 
     80 H80        17.9347  -26.0747  -43.6707 H         1 UNK         0.0454 
     81 H81        17.0138  -24.2421  -45.9224 H         1 UNK         0.0851 
     82 H82        17.0828  -23.7939  -44.2235 H         1 UNK         0.0851 
     83 H83        15.9968  -25.0706  -44.7433 H         1 UNK         0.0851 
     84 H84        17.2298  -26.6547  -46.3270 H         1 UNK         0.2976 
     85 H85        21.3964  -27.6567  -44.1526 H         1 UNK         0.3116 
     86 H86        23.9957  -26.9600  -44.2329 H         1 UNK         0.0646 
     87 H87        22.9038  -28.5137  -45.8237 H         1 UNK         0.0847 
     88 H88        24.4502  -29.1414  -45.2800 H         1 UNK         0.0847 
     89 H89        22.9684  -29.8114  -44.6341 H         1 UNK         0.0847 
     90 H90        25.2716  -26.5768  -42.5942 H         1 UNK         0.3040 
     91 H91        26.6367  -26.6990  -40.8699 H         1 UNK         0.1015 
     92 H92        26.6992  -29.7294  -41.3458 H         1 UNK         0.0786 
     93 H93        27.9082  -28.7859  -40.4910 H         1 UNK         0.0786 
     94 H94        27.6783  -28.5500  -42.2136 H         1 UNK         0.0786 
     95 H95        23.6084  -27.4136  -40.4628 H         1 UNK         0.3172 
     96 H96        22.1249  -28.0943  -38.9877 H         1 UNK         0.0595 
     97 H97        24.1790  -27.3263  -36.8455 H         1 UNK         0.0839 
     98 H98        22.4418  -27.4655  -36.6172 H         1 UNK         0.0839 
     99 H99        23.0848  -26.2026  -37.6521 H         1 UNK         0.0839 
    100 H100       23.8662  -30.1678  -40.0505 H         1 UNK         0.2998 
    101 H101       23.2757  -32.3678  -38.2602 H         1 UNK         0.0822 
    102 H102       25.6815  -33.0957  -37.9662 H         1 UNK         0.0787 
    103 H103       26.2157  -31.5526  -38.6236 H         1 UNK         0.0787 
    104 H104       25.3268  -31.6093  -37.1047 H         1 UNK         0.0787 
    105 H105       25.2570  -31.3005  -41.0790 H         1 UNK         0.3055 
    106 H106       25.3007  -33.8458  -42.3775 H         1 UNK         0.1106 
    107 H107       26.9560  -32.0404  -42.8566 H         1 UNK         0.0828 
    108 H108       26.1322  -32.5388  -44.3242 H         1 UNK         0.0828 
    109 H109       25.6833  -31.0317  -43.5444 H         1 UNK         0.0828 
    110 H110       22.9499  -31.2836  -42.2850 H         1 UNK         0.2931 
    111 H111       21.2151  -32.1366  -44.3710 H         1 UNK         0.0412 
    112 H112       21.8651  -33.8504  -41.3833 H         1 UNK         0.3472 
    113 H113       20.4075  -34.8110  -41.4457 H         1 UNK         0.3472 
    114 H114       21.0038  -29.9066  -43.5307 H         1 UNK         0.0970 
    115 H115       19.5239  -30.7142  -43.1924 H         1 UNK         0.0970 
    116 H116       18.8103  -31.4869  -40.7154 H         1 UNK         0.0612 
    117 H117       19.1950  -30.4052  -39.3976 H         1 UNK         0.0612 
@<TRIPOS>BOND
     1    1    2 1    
     2    1   62 1    
     3    1   63 1    
     4    1   64 1    
     5    2    3 2    
     6    2    4 am   BACKBONE|DICT|INTERRES
     7    4    5 1    
     8    4   65 1    
     9    5    6 1    
    10    5   25 1    
    11    5   66 1    
    12    6    7 1    
    13    6   67 1    
    14    6   68 1    
    15    7    8 1    
    16    8    9 1    
    17    8   69 1    
    18    8   70 1    
    19    9   10 ar   
    20    9   14 ar   
    21   10   11 ar   
    22   10   71 1    
    23   11   12 ar   
    24   11   61 1    
    25   12   13 ar   
    26   12   72 1    
    27   13   14 ar   
    28   13   15 1    
    29   14   73 1    
    30   15   16 1    
    31   15   74 1    
    32   15   75 1    
    33   16   17 1    
    34   17   18 1    
    35   17   76 1    
    36   17   77 1    
    37   18   19 1    
    38   18   27 1    
    39   18   78 1    
    40   19   20 am   BACKBONE|DICT|INTERRES
    41   19   79 1    
    42   20   21 2    
    43   20   22 1    
    44   22   23 1    
    45   22   24 1    
    46   22   80 1    
    47   23   81 1    
    48   23   82 1    
    49   23   83 1    
    50   24   25 am   BACKBONE|DICT|INTERRES
    51   24   84 1    
    52   25   26 2    
    53   27   28 2    
    54   27   29 am   BACKBONE|DICT|INTERRES
    55   29   30 1    
    56   29   85 1    
    57   30   31 1    
    58   30   32 1    
    59   30   86 1    
    60   31   87 1    
    61   31   88 1    
    62   31   89 1    
    63   32   33 2    
    64   32   34 am   BACKBONE|DICT|INTERRES
    65   34   35 1    
    66   34   90 1    
    67   35   36 1    
    68   35   37 1    
    69   35   91 1    
    70   36   92 1    
    71   36   93 1    
    72   36   94 1    
    73   37   38 2    
    74   37   39 am   BACKBONE|DICT|INTERRES
    75   39   40 1    
    76   39   95 1    
    77   40   41 1    
    78   40   42 1    
    79   40   96 1    
    80   41   97 1    
    81   41   98 1    
    82   41   99 1    
    83   42   43 2    
    84   42   44 am   BACKBONE|DICT|INTERRES
    85   44   45 1    
    86   44  100 1    
    87   45   46 1    
    88   45   47 1    
    89   45  101 1    
    90   46  102 1    
    91   46  103 1    
    92   46  104 1    
    93   47   48 2    
    94   47   49 am   BACKBONE|DICT|INTERRES
    95   49   50 1    
    96   49  105 1    
    97   50   51 1    
    98   50   52 1    
    99   50  106 1    
   100   51  107 1    
   101   51  108 1    
   102   51  109 1    
   103   52   53 2    
   104   52   54 am   BACKBONE|DICT|INTERRES
   105   54   55 1    
   106   54  110 1    
   107   55   56 1    
   108   55   59 1    
   109   55  111 1    
   110   56   57 am   BACKBONE|DICT|INTERRES
   111   56   58 2    
   112   57  112 1    
   113   57  113 1    
   114   59   60 1    
   115   59  114 1    
   116   59  115 1    
   117   60   61 1    
   118   61  116 1    
   119   61  117 1    
@<TRIPOS>SUBSTRUCTURE
     1 UNK         1 GROUP             0       ****    0 ROOT    
