@<TRIPOS>MOLECULE
3R8
117   119    1
SMALL
USER_CHARGES


@<TRIPOS>ATOM
      1 CA         17.5060  -21.9847  -46.2528 C.3       0 UNK        -0.2013 
      2 C          18.4986  -23.1125  -46.4916 C.2       0 UNK         0.4866 
      3 O          19.6380  -22.8530  -46.8788 O.2       0 UNK        -0.5176 
      4 N          18.0764  -24.3637  -46.2623 N.am      1 UNK        -0.4884 
      5 CA         18.9015  -25.5685  -46.4359 C.3       1 UNK         0.0853 
      6 C6         18.0158  -26.8285  -46.6180 C.3       10 UNK        -0.0849 
      7 S7         18.8091  -28.1050  -47.6568 S.3       10 UNK        -0.2776 
      8 C8         17.6612  -29.5090  -47.4751 C.3       10 UNK         0.0316 
      9 C9         17.7107  -30.0962  -46.0725 C.ar      10 UNK        -0.0863 
     10 C10        18.7067  -31.0129  -45.7231 C.ar      10 UNK        -0.1009 
     11 C11        18.7809  -31.5201  -44.4214 C.ar      10 UNK        -0.0712 
     12 C12        17.8473  -31.1027  -43.4670 C.ar      10 UNK        -0.0894 
     13 C13        16.8506  -30.1831  -43.8071 C.ar      10 UNK        -0.0745 
     14 C14        16.7741  -29.7015  -45.1151 C.ar      10 UNK        -0.0972 
     15 C15        15.8790  -29.6643  -42.7612 C.3       10 UNK         0.0209 
     16 S16        16.4353  -28.0561  -42.1108 S.3       10 UNK        -0.2568 
     17 C17        17.7595  -28.5677  -40.9672 C.3       10 UNK        -0.0983 
     18 CA         19.1885  -28.4135  -41.5527 C.3       3 UNK         0.0876 
     19 N          19.4760  -27.0367  -41.9807 N.am      3 UNK        -0.4424 
     20 C          20.6568  -26.4937  -42.3194 C.2       2 UNK         0.4918 
     21 O          21.7549  -27.0368  -42.1735 O.2       2 UNK        -0.4875 
     22 CA         20.5699  -25.0910  -42.9508 C.3       2 UNK         0.0481 
     23 CB         21.9514  -24.4691  -43.2509 C.3       2 UNK        -0.1831 
     24 N          19.7266  -25.0839  -44.1548 N.am      2 UNK        -0.4498 
     25 C          19.9395  -25.7548  -45.3022 C.2       1 UNK         0.5027 
     26 O          20.9115  -26.4844  -45.4972 O.2       1 UNK        -0.4969 
     27 C          20.2234  -29.0127  -40.5831 C.2       3 UNK         0.5005 
     28 O          20.9272  -29.9496  -40.9558 O.2       3 UNK        -0.5279 
     29 N          20.3086  -28.4543  -39.3701 N.am      4 UNK        -0.4463 
     30 CA         21.2874  -28.8537  -38.3540 C.3       4 UNK         0.0283 
     31 CB         20.6117  -28.8254  -36.9731 C.3       4 UNK        -0.1875 
     32 C          22.5288  -27.9466  -38.3542 C.2       4 UNK         0.4949 
     33 O          23.5540  -28.3327  -37.7935 O.2       4 UNK        -0.5039 
     34 N          22.4096  -26.7500  -38.9456 N.am      5 UNK        -0.4663 
     35 CA         23.4320  -25.7048  -38.9163 C.3       5 UNK         0.0242 
     36 CB         22.7730  -24.3437  -39.1937 C.3       5 UNK        -0.1982 
     37 C          24.6124  -25.9554  -39.8681 C.2       5 UNK         0.5017 
     38 O          25.7155  -25.4998  -39.5621 O.2       5 UNK        -0.5012 
     39 N          24.3812  -26.6556  -40.9880 N.am      6 UNK        -0.4439 
     40 CA         25.4221  -26.9656  -41.9723 C.3       6 UNK         0.0297 
     41 CB         25.5648  -25.8168  -42.9865 C.3       6 UNK        -0.2006 
     42 C          25.2080  -28.3028  -42.6925 C.2       6 UNK         0.4892 
     43 O          26.2002  -28.9805  -42.9640 O.2       6 UNK        -0.5089 
     44 N          23.9553  -28.6607  -43.0158 N.am      7 UNK        -0.4243 
     45 CA         23.6340  -29.8881  -43.7533 C.3       7 UNK         0.0196 
     46 CB         22.2051  -29.8043  -44.3106 C.3       7 UNK        -0.2007 
     47 C          23.8631  -31.1533  -42.9064 C.2       7 UNK         0.5020 
     48 O          24.5565  -32.0653  -43.3568 O.2       7 UNK        -0.5147 
     49 N          23.3221  -31.1504  -41.6797 N.am      8 UNK        -0.4734 
     50 CA         23.5558  -32.1012  -40.5852 C.3       8 UNK         0.0238 
     51 CB         24.9936  -31.9434  -40.0464 C.3       8 UNK        -0.1912 
     52 C          23.1948  -33.5632  -40.9168 C.2       8 UNK         0.5038 
     53 O          23.8949  -34.4799  -40.4815 O.2       8 UNK        -0.5046 
     54 N          22.1043  -33.7588  -41.6697 N.am      9 UNK        -0.4200 
     55 CA         21.5800  -35.0832  -42.0459 C.3       9 UNK         0.0839 
     56 C          20.7766  -35.8162  -40.9308 C.2       9 UNK         0.5513 
     57 N          20.4684  -35.1837  -39.8045 N.am      9 UNK        -0.7519 
     58 O          20.4418  -36.9880  -41.0858 O.2       9 UNK        -0.4960 
     59 C59        20.8306  -35.0478  -43.4042 C.3       10 UNK        -0.0876 
     60 S60        19.2913  -34.0623  -43.4126 S.3       10 UNK        -0.2414 
     61 C61        19.9057  -32.4703  -44.0375 C.3       10 UNK         0.0169 
     62 H62        17.3493  -21.4224  -47.1729 H         1 UNK         0.0903 
     63 H63        16.5388  -22.3557  -45.9141 H         1 UNK         0.0903 
     64 H64        17.8903  -21.3003  -45.4969 H         1 UNK         0.0903 
     65 H65        17.1263  -24.5173  -45.9529 H         1 UNK         0.3096 
     66 H66        19.4767  -25.4253  -47.3541 H         1 UNK         0.1121 
     67 H67        17.7368  -27.2439  -45.6491 H         1 UNK         0.0849 
     68 H68        17.0790  -26.5662  -47.1126 H         1 UNK         0.0849 
     69 H69        16.6484  -29.1894  -47.7259 H         1 UNK         0.0865 
     70 H70        17.9248  -30.2782  -48.2026 H         1 UNK         0.0865 
     71 H71        19.4384  -31.3107  -46.4619 H         1 UNK         0.1346 
     72 H72        17.9161  -31.4748  -42.4539 H         1 UNK         0.1412 
     73 H73        16.0069  -28.9847  -45.3755 H         1 UNK         0.1426 
     74 H74        15.7560  -30.3818  -41.9485 H         1 UNK         0.0716 
     75 H75        14.8916  -29.5408  -43.2086 H         1 UNK         0.0716 
     76 H76        17.6490  -27.9652  -40.0640 H         1 UNK         0.0695 
     77 H77        17.5792  -29.5993  -40.6584 H         1 UNK         0.0695 
     78 H78        19.2468  -29.0109  -42.4628 H         1 UNK         0.0983 
     79 H79        18.6504  -26.4815  -42.1528 H         1 UNK         0.3095 
     80 H80        20.0774  -24.4518  -42.2167 H         1 UNK         0.0454 
     81 H81        22.4875  -25.0242  -44.0196 H         1 UNK         0.0851 
     82 H82        21.8532  -23.4398  -43.5949 H         1 UNK         0.0851 
     83 H83        22.5881  -24.4552  -42.3676 H         1 UNK         0.0851 
     84 H84        18.8993  -24.5057  -44.1105 H         1 UNK         0.2976 
     85 H85        19.6798  -27.7001  -39.1330 H         1 UNK         0.3116 
     86 H86        21.6280  -29.8748  -38.5381 H         1 UNK         0.0646 
     87 H87        19.7558  -29.4996  -36.9368 H         1 UNK         0.0847 
     88 H88        20.2638  -27.8256  -36.7107 H         1 UNK         0.0847 
     89 H89        21.3049  -29.1435  -36.1929 H         1 UNK         0.0847 
     90 H90        21.5440  -26.5295  -39.4128 H         1 UNK         0.3040 
     91 H91        23.8495  -25.6686  -37.9070 H         1 UNK         0.1015 
     92 H92        22.0755  -24.0769  -38.3994 H         1 UNK         0.0786 
     93 H93        22.2213  -24.3405  -40.1322 H         1 UNK         0.0786 
     94 H94        23.5179  -23.5482  -39.2467 H         1 UNK         0.0786 
     95 H95        23.4373  -26.9738  -41.1858 H         1 UNK         0.3172 
     96 H96        26.3749  -27.0644  -41.4470 H         1 UNK         0.0595 
     97 H97        26.3804  -26.0134  -43.6837 H         1 UNK         0.0839 
     98 H98        25.7835  -24.8700  -42.4927 H         1 UNK         0.0839 
     99 H99        24.6591  -25.6886  -43.5773 H         1 UNK         0.0839 
    100 H100       23.1743  -28.0538  -42.7804 H         1 UNK         0.2998 
    101 H101       24.3103  -29.9453  -44.6093 H         1 UNK         0.0822 
    102 H102       22.0824  -28.9299  -44.9499 H         1 UNK         0.0787 
    103 H103       21.9762  -30.6780  -44.9198 H         1 UNK         0.0787 
    104 H104       21.4578  -29.7388  -43.5213 H         1 UNK         0.0787 
    105 H105       22.6497  -30.4169  -41.4612 H         1 UNK         0.3055 
    106 H106       22.8757  -31.8076  -39.7841 H         1 UNK         0.1106 
    107 H107       25.7358  -32.2536  -40.7828 H         1 UNK         0.0828 
    108 H108       25.2027  -30.9083  -39.7753 H         1 UNK         0.0828 
    109 H109       25.1484  -32.5476  -39.1516 H         1 UNK         0.0828 
    110 H110       21.5676  -32.9579  -41.9657 H         1 UNK         0.2931 
    111 H111       22.4494  -35.7216  -42.2159 H         1 UNK         0.0412 
    112 H112       20.7344  -34.2225  -39.6674 H         1 UNK         0.3472 
    113 H113       19.9539  -35.6729  -39.0888 H         1 UNK         0.3472 
    114 H114       21.5023  -34.6828  -44.1826 H         1 UNK         0.0970 
    115 H115       20.5738  -36.0637  -43.7106 H         1 UNK         0.0970 
    116 H116       20.5181  -31.9984  -43.2694 H         1 UNK         0.0612 
    117 H117       20.5558  -32.6524  -44.8944 H         1 UNK         0.0612 
@<TRIPOS>BOND
     1    1    2 1    
     2    1   62 1    
     3    1   63 1    
     4    1   64 1    
     5    2    3 2    
     6    2    4 am   BACKBONE|DICT|INTERRES
     7    4    5 1    
     8    4   65 1    
     9    5    6 1    
    10    5   25 1    
    11    5   66 1    
    12    6    7 1    
    13    6   67 1    
    14    6   68 1    
    15    7    8 1    
    16    8    9 1    
    17    8   69 1    
    18    8   70 1    
    19    9   10 ar   
    20    9   14 ar   
    21   10   11 ar   
    22   10   71 1    
    23   11   12 ar   
    24   11   61 1    
    25   12   13 ar   
    26   12   72 1    
    27   13   14 ar   
    28   13   15 1    
    29   14   73 1    
    30   15   16 1    
    31   15   74 1    
    32   15   75 1    
    33   16   17 1    
    34   17   18 1    
    35   17   76 1    
    36   17   77 1    
    37   18   19 1    
    38   18   27 1    
    39   18   78 1    
    40   19   20 am   BACKBONE|DICT|INTERRES
    41   19   79 1    
    42   20   21 2    
    43   20   22 1    
    44   22   23 1    
    45   22   24 1    
    46   22   80 1    
    47   23   81 1    
    48   23   82 1    
    49   23   83 1    
    50   24   25 am   BACKBONE|DICT|INTERRES
    51   24   84 1    
    52   25   26 2    
    53   27   28 2    
    54   27   29 am   BACKBONE|DICT|INTERRES
    55   29   30 1    
    56   29   85 1    
    57   30   31 1    
    58   30   32 1    
    59   30   86 1    
    60   31   87 1    
    61   31   88 1    
    62   31   89 1    
    63   32   33 2    
    64   32   34 am   BACKBONE|DICT|INTERRES
    65   34   35 1    
    66   34   90 1    
    67   35   36 1    
    68   35   37 1    
    69   35   91 1    
    70   36   92 1    
    71   36   93 1    
    72   36   94 1    
    73   37   38 2    
    74   37   39 am   BACKBONE|DICT|INTERRES
    75   39   40 1    
    76   39   95 1    
    77   40   41 1    
    78   40   42 1    
    79   40   96 1    
    80   41   97 1    
    81   41   98 1    
    82   41   99 1    
    83   42   43 2    
    84   42   44 am   BACKBONE|DICT|INTERRES
    85   44   45 1    
    86   44  100 1    
    87   45   46 1    
    88   45   47 1    
    89   45  101 1    
    90   46  102 1    
    91   46  103 1    
    92   46  104 1    
    93   47   48 2    
    94   47   49 am   BACKBONE|DICT|INTERRES
    95   49   50 1    
    96   49  105 1    
    97   50   51 1    
    98   50   52 1    
    99   50  106 1    
   100   51  107 1    
   101   51  108 1    
   102   51  109 1    
   103   52   53 2    
   104   52   54 am   BACKBONE|DICT|INTERRES
   105   54   55 1    
   106   54  110 1    
   107   55   56 1    
   108   55   59 1    
   109   55  111 1    
   110   56   57 am   BACKBONE|DICT|INTERRES
   111   56   58 2    
   112   57  112 1    
   113   57  113 1    
   114   59   60 1    
   115   59  114 1    
   116   59  115 1    
   117   60   61 1    
   118   61  116 1    
   119   61  117 1    
@<TRIPOS>SUBSTRUCTURE
     1 UNK         1 GROUP             0       ****    0 ROOT    
