@<TRIPOS>MOLECULE
3R8
117   119    1
SMALL
USER_CHARGES


@<TRIPOS>ATOM
      1 CA         15.6000  -23.4572  -46.4220 C.3       0 UNK        -0.2013 
      2 C          16.4660  -24.6755  -46.7063 C.2       0 UNK         0.4866 
      3 O          17.0074  -24.7989  -47.8057 O.2       0 UNK        -0.5176 
      4 N          16.5933  -25.5806  -45.7282 N.am      1 UNK        -0.4884 
      5 CA         17.4227  -26.7881  -45.8086 C.3       1 UNK         0.0853 
      6 C6         17.0815  -27.7948  -44.6807 C.3       10 UNK        -0.0849 
      7 S7         15.3817  -28.4413  -44.8182 S.3       10 UNK        -0.2776 
      8 C8         14.9637  -28.7704  -43.0734 C.3       10 UNK         0.0316 
      9 C9         15.9168  -29.7702  -42.4303 C.ar      10 UNK        -0.0863 
     10 C10        15.9382  -31.1004  -42.8595 C.ar      10 UNK        -0.1009 
     11 C11        16.8323  -32.0160  -42.2961 C.ar      10 UNK        -0.0712 
     12 C12        17.6843  -31.6022  -41.2686 C.ar      10 UNK        -0.0894 
     13 C13        17.6819  -30.2720  -40.8399 C.ar      10 UNK        -0.0745 
     14 C14        16.7895  -29.3627  -41.4171 C.ar      10 UNK        -0.0972 
     15 C15        18.6858  -29.8011  -39.7961 C.3       10 UNK         0.0209 
     16 S16        20.3832  -29.7232  -40.4627 S.3       10 UNK        -0.2568 
     17 C17        20.1246  -28.8026  -42.0130 C.3       10 UNK        -0.0983 
     18 CA         21.4299  -28.4339  -42.7623 C.3       3 UNK         0.0876 
     19 N          21.1003  -28.0335  -44.1300 N.am      3 UNK        -0.4424 
     20 C          21.8948  -27.5378  -45.0883 C.2       2 UNK         0.4918 
     21 O          23.1067  -27.3616  -44.9708 O.2       2 UNK        -0.4875 
     22 CA         21.2159  -27.1883  -46.4312 C.3       2 UNK         0.0481 
     23 CB         21.7539  -28.0950  -47.5513 C.3       2 UNK        -0.1831 
     24 N          19.7472  -27.2764  -46.4136 N.am      2 UNK        -0.4498 
     25 C          18.9249  -26.4376  -45.7655 C.2       1 UNK         0.5027 
     26 O          19.3155  -25.4741  -45.1016 O.2       1 UNK        -0.4969 
     27 C          22.2708  -27.3747  -42.0196 C.2       3 UNK         0.5005 
     28 O          23.4742  -27.5704  -41.8340 O.2       3 UNK        -0.5279 
     29 N          21.6163  -26.2816  -41.5917 N.am      4 UNK        -0.4463 
     30 CA         22.1772  -25.1228  -40.8757 C.3       4 UNK         0.0283 
     31 CB         23.0629  -24.2987  -41.8340 C.3       4 UNK        -0.1875 
     32 C          22.9210  -25.4637  -39.5634 C.2       4 UNK         0.4949 
     33 O          23.7185  -24.6517  -39.0936 O.2       4 UNK        -0.5039 
     34 N          22.6794  -26.6690  -39.0220 N.am      5 UNK        -0.4663 
     35 CA         23.4234  -27.3352  -37.9429 C.3       5 UNK         0.0242 
     36 CB         23.2466  -26.5867  -36.6045 C.3       5 UNK        -0.1982 
     37 C          24.9088  -27.6051  -38.2823 C.2       5 UNK         0.5017 
     38 O          25.7041  -27.8303  -37.3684 O.2       5 UNK        -0.5012 
     39 N          25.2558  -27.5863  -39.5766 N.am      6 UNK        -0.4439 
     40 CA         26.5952  -27.8338  -40.1091 C.3       6 UNK         0.0297 
     41 CB         26.9859  -26.6850  -41.0542 C.3       6 UNK        -0.2006 
     42 C          26.6328  -29.1804  -40.8430 C.2       6 UNK         0.4892 
     43 O          27.5376  -29.9786  -40.5954 O.2       6 UNK        -0.5089 
     44 N          25.6380  -29.4171  -41.7066 N.am      7 UNK        -0.4243 
     45 CA         25.3650  -30.7036  -42.3423 C.3       7 UNK         0.0196 
     46 CB         24.9403  -30.4545  -43.8000 C.3       7 UNK        -0.2007 
     47 C          24.2587  -31.4290  -41.5615 C.2       7 UNK         0.5020 
     48 O          23.5760  -30.8146  -40.7403 O.2       7 UNK        -0.5147 
     49 N          24.0902  -32.7284  -41.8336 N.am      8 UNK        -0.4734 
     50 CA         23.0688  -33.5678  -41.1949 C.3       8 UNK         0.0238 
     51 CB         23.4406  -35.0478  -41.3848 C.3       8 UNK        -0.1912 
     52 C          21.6413  -33.3051  -41.7094 C.2       8 UNK         0.5038 
     53 O          20.6850  -33.5924  -40.9895 O.2       8 UNK        -0.5046 
     54 N          21.5257  -32.7956  -42.9406 N.am      9 UNK        -0.4200 
     55 CA         20.2817  -32.4811  -43.6493 C.3       9 UNK         0.0839 
     56 C          20.5902  -31.5763  -44.8732 C.2       9 UNK         0.5513 
     57 N          19.5703  -31.0358  -45.5232 N.am      9 UNK        -0.7519 
     58 O          21.7436  -31.3551  -45.2387 O.2       9 UNK        -0.4960 
     59 C59        19.4757  -33.7681  -44.0027 C.3       10 UNK        -0.0876 
     60 S60        17.7230  -33.5016  -44.4474 S.3       10 UNK        -0.2414 
     61 C61        16.8924  -33.4400  -42.8261 C.3       10 UNK         0.0169 
     62 H62        15.1725  -23.4852  -45.4198 H         1 UNK         0.0903 
     63 H63        16.1922  -22.5470  -46.5126 H         1 UNK         0.0903 
     64 H64        14.7806  -23.4037  -47.1383 H         1 UNK         0.0903 
     65 H65        16.1329  -25.4254  -44.8429 H         1 UNK         0.3096 
     66 H66        17.2188  -27.2652  -46.7704 H         1 UNK         0.1121 
     67 H67        17.2174  -27.3304  -43.7018 H         1 UNK         0.0849 
     68 H68        17.7516  -28.6565  -44.7055 H         1 UNK         0.0849 
     69 H69        14.9550  -27.8283  -42.5230 H         1 UNK         0.0865 
     70 H70        13.9468  -29.1620  -43.0211 H         1 UNK         0.0865 
     71 H71        15.2791  -31.4161  -43.6570 H         1 UNK         0.1346 
     72 H72        18.3876  -32.3009  -40.8361 H         1 UNK         0.1412 
     73 H73        16.7913  -28.3311  -41.0923 H         1 UNK         0.1426 
     74 H74        18.6702  -30.4796  -38.9421 H         1 UNK         0.0716 
     75 H75        18.4110  -28.8175  -39.4124 H         1 UNK         0.0716 
     76 H76        19.5063  -27.9258  -41.8144 H         1 UNK         0.0695 
     77 H77        19.5212  -29.4445  -42.6565 H         1 UNK         0.0695 
     78 H78        22.0387  -29.3361  -42.8377 H         1 UNK         0.0983 
     79 H79        20.1317  -28.1399  -44.3825 H         1 UNK         0.3095 
     80 H80        21.4870  -26.1578  -46.6694 H         1 UNK         0.0454 
     81 H81        21.5377  -29.1468  -47.3598 H         1 UNK         0.0851 
     82 H82        22.8369  -28.0011  -47.6430 H         1 UNK         0.0851 
     83 H83        21.3275  -27.8314  -48.5192 H         1 UNK         0.0851 
     84 H84        19.3421  -28.0325  -46.9468 H         1 UNK         0.2976 
     85 H85        20.6281  -26.2207  -41.7941 H         1 UNK         0.3116 
     86 H86        21.3287  -24.5006  -40.5879 H         1 UNK         0.0646 
     87 H87        23.9656  -24.8425  -42.1152 H         1 UNK         0.0847 
     88 H88        23.3779  -23.3612  -41.3742 H         1 UNK         0.0847 
     89 H89        22.5281  -24.0437  -42.7488 H         1 UNK         0.0847 
     90 H90        22.0007  -27.2509  -39.4942 H         1 UNK         0.3040 
     91 H91        22.9675  -28.3205  -37.8306 H         1 UNK         0.1015 
     92 H92        23.7531  -25.6212  -36.6090 H         1 UNK         0.0786 
     93 H93        23.6587  -27.1636  -35.7757 H         1 UNK         0.0786 
     94 H94        22.1937  -26.4130  -36.3829 H         1 UNK         0.0786 
     95 H95        24.5210  -27.4443  -40.2661 H         1 UNK         0.3172 
     96 H96        27.3275  -27.8702  -39.2999 H         1 UNK         0.0595 
     97 H97        26.2874  -26.5859  -41.8865 H         1 UNK         0.0839 
     98 H98        27.9785  -26.8470  -41.4766 H         1 UNK         0.0839 
     99 H99        27.0092  -25.7317  -40.5257 H         1 UNK         0.0839 
    100 H100       24.8972  -28.7245  -41.7966 H         1 UNK         0.2998 
    101 H101       26.2606  -31.3287  -42.3371 H         1 UNK         0.0822 
    102 H102       25.7313  -29.9544  -44.3590 H         1 UNK         0.0787 
    103 H103       24.7216  -31.3888  -44.3182 H         1 UNK         0.0787 
    104 H104       24.0493  -29.8305  -43.8648 H         1 UNK         0.0787 
    105 H105       24.6921  -33.1736  -42.5126 H         1 UNK         0.3055 
    106 H106       23.0662  -33.3522  -40.1235 H         1 UNK         0.1106 
    107 H107       23.4690  -35.3268  -42.4389 H         1 UNK         0.0828 
    108 H108       22.7136  -35.6981  -40.8960 H         1 UNK         0.0828 
    109 H109       24.4149  -35.2719  -40.9501 H         1 UNK         0.0828 
    110 H110       22.3621  -32.5568  -43.4566 H         1 UNK         0.2931 
    111 H111       19.6974  -31.8677  -42.9670 H         1 UNK         0.0412 
    112 H112       18.6246  -31.2727  -45.2611 H         1 UNK         0.3472 
    113 H113       19.7503  -30.4975  -46.3530 H         1 UNK         0.3472 
    114 H114       19.4899  -34.4732  -43.1715 H         1 UNK         0.0970 
    115 H115       19.9598  -34.2943  -44.8272 H         1 UNK         0.0970 
    116 H116       15.8767  -33.8218  -42.9389 H         1 UNK         0.0612 
    117 H117       17.3917  -34.1036  -42.1185 H         1 UNK         0.0612 
@<TRIPOS>BOND
     1    1    2 1    
     2    1   62 1    
     3    1   63 1    
     4    1   64 1    
     5    2    3 2    
     6    2    4 am   BACKBONE|DICT|INTERRES
     7    4    5 1    
     8    4   65 1    
     9    5    6 1    
    10    5   25 1    
    11    5   66 1    
    12    6    7 1    
    13    6   67 1    
    14    6   68 1    
    15    7    8 1    
    16    8    9 1    
    17    8   69 1    
    18    8   70 1    
    19    9   10 ar   
    20    9   14 ar   
    21   10   11 ar   
    22   10   71 1    
    23   11   12 ar   
    24   11   61 1    
    25   12   13 ar   
    26   12   72 1    
    27   13   14 ar   
    28   13   15 1    
    29   14   73 1    
    30   15   16 1    
    31   15   74 1    
    32   15   75 1    
    33   16   17 1    
    34   17   18 1    
    35   17   76 1    
    36   17   77 1    
    37   18   19 1    
    38   18   27 1    
    39   18   78 1    
    40   19   20 am   BACKBONE|DICT|INTERRES
    41   19   79 1    
    42   20   21 2    
    43   20   22 1    
    44   22   23 1    
    45   22   24 1    
    46   22   80 1    
    47   23   81 1    
    48   23   82 1    
    49   23   83 1    
    50   24   25 am   BACKBONE|DICT|INTERRES
    51   24   84 1    
    52   25   26 2    
    53   27   28 2    
    54   27   29 am   BACKBONE|DICT|INTERRES
    55   29   30 1    
    56   29   85 1    
    57   30   31 1    
    58   30   32 1    
    59   30   86 1    
    60   31   87 1    
    61   31   88 1    
    62   31   89 1    
    63   32   33 2    
    64   32   34 am   BACKBONE|DICT|INTERRES
    65   34   35 1    
    66   34   90 1    
    67   35   36 1    
    68   35   37 1    
    69   35   91 1    
    70   36   92 1    
    71   36   93 1    
    72   36   94 1    
    73   37   38 2    
    74   37   39 am   BACKBONE|DICT|INTERRES
    75   39   40 1    
    76   39   95 1    
    77   40   41 1    
    78   40   42 1    
    79   40   96 1    
    80   41   97 1    
    81   41   98 1    
    82   41   99 1    
    83   42   43 2    
    84   42   44 am   BACKBONE|DICT|INTERRES
    85   44   45 1    
    86   44  100 1    
    87   45   46 1    
    88   45   47 1    
    89   45  101 1    
    90   46  102 1    
    91   46  103 1    
    92   46  104 1    
    93   47   48 2    
    94   47   49 am   BACKBONE|DICT|INTERRES
    95   49   50 1    
    96   49  105 1    
    97   50   51 1    
    98   50   52 1    
    99   50  106 1    
   100   51  107 1    
   101   51  108 1    
   102   51  109 1    
   103   52   53 2    
   104   52   54 am   BACKBONE|DICT|INTERRES
   105   54   55 1    
   106   54  110 1    
   107   55   56 1    
   108   55   59 1    
   109   55  111 1    
   110   56   57 am   BACKBONE|DICT|INTERRES
   111   56   58 2    
   112   57  112 1    
   113   57  113 1    
   114   59   60 1    
   115   59  114 1    
   116   59  115 1    
   117   60   61 1    
   118   61  116 1    
   119   61  117 1    
@<TRIPOS>SUBSTRUCTURE
     1 UNK         1 GROUP             0       ****    0 ROOT    
