@<TRIPOS>MOLECULE
3R8
117   119    1
SMALL
USER_CHARGES


@<TRIPOS>ATOM
      1 CA         15.7391  -24.1398  -47.7472 C.3       0 UNK        -0.2013 
      2 C          16.4765  -25.1091  -46.8370 C.2       0 UNK         0.4866 
      3 O          17.6374  -25.4310  -47.0930 O.2       0 UNK        -0.5176 
      4 N          15.8217  -25.5721  -45.7642 N.am      1 UNK        -0.4884 
      5 CA         16.3666  -26.5053  -44.7708 C.3       1 UNK         0.0853 
      6 C6         15.2315  -27.3321  -44.1119 C.3       10 UNK        -0.0849 
      7 S7         15.8320  -28.8874  -43.3730 S.3       10 UNK        -0.2776 
      8 C8         15.8426  -30.0155  -44.8040 C.3       10 UNK         0.0316 
      9 C9         17.2128  -30.6532  -44.9766 C.ar      10 UNK        -0.0863 
     10 C10        17.5172  -31.8552  -44.3287 C.ar      10 UNK        -0.1009 
     11 C11        18.7799  -32.4386  -44.4715 C.ar      10 UNK        -0.0712 
     12 C12        19.7412  -31.8081  -45.2674 C.ar      10 UNK        -0.0894 
     13 C13        19.4506  -30.6055  -45.9187 C.ar      10 UNK        -0.0745 
     14 C14        18.1796  -30.0401  -45.7800 C.ar      10 UNK        -0.0972 
     15 C15        20.5147  -29.9158  -46.7643 C.3       10 UNK         0.0209 
     16 S16        20.9781  -28.2751  -46.1151 S.3       10 UNK        -0.2568 
     17 C17        21.5468  -28.6968  -44.4326 C.3       10 UNK        -0.0983 
     18 CA         21.7543  -27.4672  -43.5120 C.3       3 UNK         0.0876 
     19 N          20.6135  -26.5444  -43.5628 N.am      3 UNK        -0.4424 
     20 C          20.6474  -25.2368  -43.2762 C.2       2 UNK         0.4918 
     21 O          21.6381  -24.6761  -42.8080 O.2       2 UNK        -0.4875 
     22 CA         19.3780  -24.4116  -43.5631 C.3       2 UNK         0.0481 
     23 CB         19.7165  -23.1511  -44.3784 C.3       2 UNK        -0.1831 
     24 N          18.3650  -25.1770  -44.2954 N.am      2 UNK        -0.4498 
     25 C          17.2890  -25.7726  -43.7663 C.2       1 UNK         0.5027 
     26 O          17.0100  -25.7310  -42.5668 O.2       1 UNK        -0.4969 
     27 C          22.1203  -27.9261  -42.0810 C.2       3 UNK         0.5005 
     28 O          22.9996  -28.7809  -41.9335 O.2       3 UNK        -0.5279 
     29 N          21.4657  -27.3719  -41.0493 N.am      4 UNK        -0.4463 
     30 CA         21.5704  -27.7103  -39.6230 C.3       4 UNK         0.0283 
     31 CB         20.3683  -27.0959  -38.8831 C.3       4 UNK        -0.1875 
     32 C          22.9205  -27.3538  -38.9565 C.2       4 UNK         0.4949 
     33 O          22.9485  -26.9093  -37.8086 O.2       4 UNK        -0.5039 
     34 N          24.0146  -27.5879  -39.6819 N.am      5 UNK        -0.4663 
     35 CA         25.4077  -27.4657  -39.2624 C.3       5 UNK         0.0242 
     36 CB         25.8311  -25.9882  -39.1562 C.3       5 UNK        -0.1982 
     37 C          26.2991  -28.2313  -40.2486 C.2       5 UNK         0.5017 
     38 O          27.1649  -28.9916  -39.8170 O.2       5 UNK        -0.5012 
     39 N          26.0517  -28.0318  -41.5531 N.am      6 UNK        -0.4439 
     40 CA         26.7469  -28.7013  -42.6553 C.3       6 UNK         0.0297 
     41 CB         26.4383  -27.9740  -43.9754 C.3       6 UNK        -0.2006 
     42 C          26.3942  -30.1946  -42.7607 C.2       6 UNK         0.4892 
     43 O          27.3001  -31.0268  -42.8215 O.2       6 UNK        -0.5089 
     44 N          25.0896  -30.4983  -42.7731 N.am      7 UNK        -0.4243 
     45 CA         24.5473  -31.8600  -42.7783 C.3       7 UNK         0.0196 
     46 CB         23.3851  -31.9354  -43.7821 C.3       7 UNK        -0.2007 
     47 C          24.0620  -32.2789  -41.3811 C.2       7 UNK         0.5020 
     48 O          23.9678  -33.4772  -41.1175 O.2       7 UNK        -0.5147 
     49 N          23.7643  -31.2893  -40.5236 N.am      8 UNK        -0.4734 
     50 CA         23.2060  -31.4136  -39.1708 C.3       8 UNK         0.0238 
     51 CB         24.1482  -32.2019  -38.2356 C.3       8 UNK        -0.1912 
     52 C          21.7599  -31.9476  -39.1805 C.2       8 UNK         0.5038 
     53 O          21.3776  -32.7158  -38.2958 O.2       8 UNK        -0.5046 
     54 N          20.9801  -31.5110  -40.1747 N.am      9 UNK        -0.4200 
     55 CA         19.5663  -31.8434  -40.3721 C.3       9 UNK         0.0839 
     56 C          18.8302  -30.7181  -41.1397 C.2       9 UNK         0.5513 
     57 N          17.5052  -30.7222  -41.1115 N.am      9 UNK        -0.7519 
     58 O          19.4410  -29.8427  -41.7466 O.2       9 UNK        -0.4960 
     59 C59        19.3515  -33.2533  -40.9940 C.3       10 UNK        -0.0876 
     60 S60        20.3524  -33.5982  -42.4857 S.3       10 UNK        -0.2414 
     61 C61        19.1027  -33.7664  -43.8004 C.3       10 UNK         0.0169 
     62 H62        15.7025  -24.5337  -48.7637 H         1 UNK         0.0903 
     63 H63        14.7151  -23.9653  -47.4140 H         1 UNK         0.0903 
     64 H64        16.2580  -23.1808  -47.7710 H         1 UNK         0.0903 
     65 H65        14.8837  -25.2422  -45.5822 H         1 UNK         0.3096 
     66 H66        17.0051  -27.2095  -45.3069 H         1 UNK         0.1121 
     67 H67        14.4675  -27.5858  -44.8489 H         1 UNK         0.0849 
     68 H68        14.7121  -26.7516  -43.3471 H         1 UNK         0.0849 
     69 H69        15.0837  -30.7854  -44.6564 H         1 UNK         0.0865 
     70 H70        15.5635  -29.4882  -45.7173 H         1 UNK         0.0865 
     71 H71        16.7718  -32.3324  -43.7073 H         1 UNK         0.1346 
     72 H72        20.7197  -32.2564  -45.3725 H         1 UNK         0.1412 
     73 H73        17.9545  -29.1127  -46.2874 H         1 UNK         0.1426 
     74 H74        20.1409  -29.7998  -47.7823 H         1 UNK         0.0716 
     75 H75        21.4135  -30.5304  -46.8349 H         1 UNK         0.0716 
     76 H76        22.4797  -29.2525  -44.5345 H         1 UNK         0.0695 
     77 H77        20.8261  -29.3796  -43.9808 H         1 UNK         0.0695 
     78 H78        22.6265  -26.9265  -43.8858 H         1 UNK         0.0983 
     79 H79        19.7591  -26.9310  -43.9351 H         1 UNK         0.3095 
     80 H80        18.9778  -24.0916  -42.5991 H         1 UNK         0.0454 
     81 H81        20.1599  -23.4012  -45.3432 H         1 UNK         0.0851 
     82 H82        20.4269  -22.5159  -43.8472 H         1 UNK         0.0851 
     83 H83        18.8268  -22.5493  -44.5646 H         1 UNK         0.0851 
     84 H84        18.4772  -25.2365  -45.3046 H         1 UNK         0.2976 
     85 H85        20.7875  -26.6615  -41.2808 H         1 UNK         0.3116 
     86 H86        21.4706  -28.7928  -39.5463 H         1 UNK         0.0646 
     87 H87        19.4244  -27.4178  -39.3243 H         1 UNK         0.0847 
     88 H88        20.3974  -26.0059  -38.9050 H         1 UNK         0.0847 
     89 H89        20.3503  -27.4016  -37.8361 H         1 UNK         0.0847 
     90 H90        23.8539  -28.0060  -40.5957 H         1 UNK         0.3040 
     91 H91        25.5157  -27.9360  -38.2823 H         1 UNK         0.1015 
     92 H92        25.6831  -25.4549  -40.0958 H         1 UNK         0.0786 
     93 H93        26.8864  -25.9033  -38.8930 H         1 UNK         0.0786 
     94 H94        25.2652  -25.4662  -38.3845 H         1 UNK         0.0786 
     95 H95        25.3496  -27.3541  -41.8099 H         1 UNK         0.3172 
     96 H96        27.8210  -28.6244  -42.4719 H         1 UNK         0.0595 
     97 H97        25.3719  -27.9760  -44.2053 H         1 UNK         0.0839 
     98 H98        26.9515  -28.4515  -44.8114 H         1 UNK         0.0839 
     99 H99        26.7728  -26.9368  -43.9443 H         1 UNK         0.0839 
    100 H100       24.4104  -29.7473  -42.6882 H         1 UNK         0.2998 
    101 H101       25.3152  -32.5701  -43.0927 H         1 UNK         0.0822 
    102 H102       23.6807  -31.5749  -44.7673 H         1 UNK         0.0787 
    103 H103       23.0470  -32.9654  -43.9020 H         1 UNK         0.0787 
    104 H104       22.5255  -31.3524  -43.4491 H         1 UNK         0.0787 
    105 H105       23.8205  -30.3467  -40.8883 H         1 UNK         0.3055 
    106 H106       23.1453  -30.4014  -38.7712 H         1 UNK         0.1106 
    107 H107       24.2006  -33.2574  -38.5030 H         1 UNK         0.0828 
    108 H108       23.8037  -32.1492  -37.2022 H         1 UNK         0.0828 
    109 H109       25.1603  -31.7976  -38.2599 H         1 UNK         0.0828 
    110 H110       21.3524  -30.8708  -40.8634 H         1 UNK         0.2931 
    111 H111       19.1088  -31.8505  -39.3805 H         1 UNK         0.0412 
    112 H112       17.0138  -30.0126  -41.6362 H         1 UNK         0.3472 
    113 H113       16.9885  -31.4206  -40.6020 H         1 UNK         0.3472 
    114 H114       18.2953  -33.4296  -41.2023 H         1 UNK         0.0970 
    115 H115       19.6220  -34.0062  -40.2524 H         1 UNK         0.0970 
    116 H116       19.4929  -34.4496  -44.5559 H         1 UNK         0.0612 
    117 H117       18.2033  -34.2401  -43.4047 H         1 UNK         0.0612 
@<TRIPOS>BOND
     1    1    2 1    
     2    1   62 1    
     3    1   63 1    
     4    1   64 1    
     5    2    3 2    
     6    2    4 am   BACKBONE|DICT|INTERRES
     7    4    5 1    
     8    4   65 1    
     9    5    6 1    
    10    5   25 1    
    11    5   66 1    
    12    6    7 1    
    13    6   67 1    
    14    6   68 1    
    15    7    8 1    
    16    8    9 1    
    17    8   69 1    
    18    8   70 1    
    19    9   10 ar   
    20    9   14 ar   
    21   10   11 ar   
    22   10   71 1    
    23   11   12 ar   
    24   11   61 1    
    25   12   13 ar   
    26   12   72 1    
    27   13   14 ar   
    28   13   15 1    
    29   14   73 1    
    30   15   16 1    
    31   15   74 1    
    32   15   75 1    
    33   16   17 1    
    34   17   18 1    
    35   17   76 1    
    36   17   77 1    
    37   18   19 1    
    38   18   27 1    
    39   18   78 1    
    40   19   20 am   BACKBONE|DICT|INTERRES
    41   19   79 1    
    42   20   21 2    
    43   20   22 1    
    44   22   23 1    
    45   22   24 1    
    46   22   80 1    
    47   23   81 1    
    48   23   82 1    
    49   23   83 1    
    50   24   25 am   BACKBONE|DICT|INTERRES
    51   24   84 1    
    52   25   26 2    
    53   27   28 2    
    54   27   29 am   BACKBONE|DICT|INTERRES
    55   29   30 1    
    56   29   85 1    
    57   30   31 1    
    58   30   32 1    
    59   30   86 1    
    60   31   87 1    
    61   31   88 1    
    62   31   89 1    
    63   32   33 2    
    64   32   34 am   BACKBONE|DICT|INTERRES
    65   34   35 1    
    66   34   90 1    
    67   35   36 1    
    68   35   37 1    
    69   35   91 1    
    70   36   92 1    
    71   36   93 1    
    72   36   94 1    
    73   37   38 2    
    74   37   39 am   BACKBONE|DICT|INTERRES
    75   39   40 1    
    76   39   95 1    
    77   40   41 1    
    78   40   42 1    
    79   40   96 1    
    80   41   97 1    
    81   41   98 1    
    82   41   99 1    
    83   42   43 2    
    84   42   44 am   BACKBONE|DICT|INTERRES
    85   44   45 1    
    86   44  100 1    
    87   45   46 1    
    88   45   47 1    
    89   45  101 1    
    90   46  102 1    
    91   46  103 1    
    92   46  104 1    
    93   47   48 2    
    94   47   49 am   BACKBONE|DICT|INTERRES
    95   49   50 1    
    96   49  105 1    
    97   50   51 1    
    98   50   52 1    
    99   50  106 1    
   100   51  107 1    
   101   51  108 1    
   102   51  109 1    
   103   52   53 2    
   104   52   54 am   BACKBONE|DICT|INTERRES
   105   54   55 1    
   106   54  110 1    
   107   55   56 1    
   108   55   59 1    
   109   55  111 1    
   110   56   57 am   BACKBONE|DICT|INTERRES
   111   56   58 2    
   112   57  112 1    
   113   57  113 1    
   114   59   60 1    
   115   59  114 1    
   116   59  115 1    
   117   60   61 1    
   118   61  116 1    
   119   61  117 1    
@<TRIPOS>SUBSTRUCTURE
     1 UNK         1 GROUP             0       ****    0 ROOT    
