@<TRIPOS>MOLECULE
3R8
117   119    1
SMALL
USER_CHARGES


@<TRIPOS>ATOM
      1 CA         13.8942  -24.7272  -41.0069 C.3       0 UNK        -0.2013 
      2 C          14.7166  -24.9042  -42.2745 C.2       0 UNK         0.4866 
      3 O          15.4030  -23.9721  -42.6933 O.2       0 UNK        -0.5176 
      4 N          14.6509  -26.0928  -42.8900 N.am      1 UNK        -0.4884 
      5 CA         15.3925  -26.4449  -44.1093 C.3       1 UNK         0.0853 
      6 C6         14.7945  -27.7126  -44.7748 C.3       10 UNK        -0.0849 
      7 S7         15.1573  -27.8196  -46.5607 S.3       10 UNK        -0.2776 
      8 C8         15.9189  -29.4706  -46.7082 C.3       10 UNK         0.0316 
      9 C9         17.3541  -29.5145  -46.1965 C.ar      10 UNK        -0.0863 
     10 C10        17.6735  -30.2271  -45.0358 C.ar      10 UNK        -0.1009 
     11 C11        18.9993  -30.3138  -44.5976 C.ar      10 UNK        -0.0712 
     12 C12        20.0080  -29.6824  -45.3303 C.ar      10 UNK        -0.0894 
     13 C13        19.7017  -28.9496  -46.4791 C.ar      10 UNK        -0.0745 
     14 C14        18.3732  -28.8745  -46.9101 C.ar      10 UNK        -0.0972 
     15 C15        20.8047  -28.2615  -47.2720 C.3       10 UNK         0.0209 
     16 S16        21.0880  -26.5473  -46.7182 S.3       10 UNK        -0.2568 
     17 C17        22.2556  -26.7553  -45.3293 C.3       10 UNK        -0.0983 
     18 CA         21.7172  -26.1718  -43.9990 C.3       3 UNK         0.0876 
     19 N          20.5011  -26.8574  -43.5630 N.am      3 UNK        -0.4424 
     20 C          19.7249  -26.4929  -42.5358 C.2       2 UNK         0.4918 
     21 O          19.8754  -25.4601  -41.8798 O.2       2 UNK        -0.4875 
     22 CA         18.5894  -27.4687  -42.1823 C.3       2 UNK         0.0481 
     23 CB         18.5447  -27.7417  -40.6696 C.3       2 UNK        -0.1831 
     24 N          17.2582  -27.0617  -42.6395 N.am      2 UNK        -0.4498 
     25 C          16.9068  -26.6078  -43.8545 C.2       1 UNK         0.5027 
     26 O          17.6974  -26.3311  -44.7553 O.2       1 UNK        -0.4969 
     27 C          22.7982  -26.2651  -42.9042 C.2       3 UNK         0.5005 
     28 O          22.9689  -27.3362  -42.3161 O.2       3 UNK        -0.5279 
     29 N          23.5398  -25.1721  -42.6752 N.am      4 UNK        -0.4463 
     30 CA         24.5676  -25.0619  -41.6292 C.3       4 UNK         0.0283 
     31 CB         25.1169  -23.6266  -41.6008 C.3       4 UNK        -0.1875 
     32 C          25.7214  -26.0743  -41.7562 C.2       4 UNK         0.4949 
     33 O          26.2766  -26.4877  -40.7388 O.2       4 UNK        -0.5039 
     34 N          26.0422  -26.4720  -42.9949 N.am      5 UNK        -0.4663 
     35 CA         27.0321  -27.5076  -43.3022 C.3       5 UNK         0.0242 
     36 CB         27.4613  -27.3673  -44.7720 C.3       5 UNK        -0.1982 
     37 C          26.5255  -28.9363  -43.0267 C.2       5 UNK         0.5017 
     38 O          27.3480  -29.8320  -42.8328 O.2       5 UNK        -0.5012 
     39 N          25.1992  -29.1292  -43.0304 N.am      6 UNK        -0.4439 
     40 CA         24.5410  -30.4101  -42.7704 C.3       6 UNK         0.0297 
     41 CB         23.2688  -30.5070  -43.6233 C.3       6 UNK        -0.2006 
     42 C          24.1996  -30.5723  -41.2829 C.2       6 UNK         0.4892 
     43 O          24.3290  -31.6798  -40.7598 O.2       6 UNK        -0.5089 
     44 N          23.7746  -29.4733  -40.6383 N.am      7 UNK        -0.4243 
     45 CA         23.4230  -29.3382  -39.2213 C.3       7 UNK         0.0196 
     46 CB         24.6902  -29.4184  -38.3411 C.3       7 UNK        -0.2007 
     47 C          22.3148  -30.3227  -38.8063 C.2       7 UNK         0.5020 
     48 O          21.1405  -30.0470  -39.0511 O.2       7 UNK        -0.5147 
     49 N          22.7056  -31.4596  -38.2142 N.am      8 UNK        -0.4734 
     50 CA         21.8224  -32.5706  -37.8451 C.3       8 UNK         0.0238 
     51 CB         22.5871  -33.5292  -36.9173 C.3       8 UNK        -0.1912 
     52 C          21.2414  -33.3355  -39.0511 C.2       8 UNK         0.5038 
     53 O          20.2619  -34.0611  -38.8754 O.2       8 UNK        -0.5046 
     54 N          21.8360  -33.1600  -40.2406 N.am      9 UNK        -0.4200 
     55 CA         21.4152  -33.7536  -41.5209 C.3       9 UNK         0.0839 
     56 C          21.7387  -35.2710  -41.6721 C.2       9 UNK         0.5513 
     57 N          22.5780  -35.8537  -40.8240 N.am      9 UNK        -0.7519 
     58 O          21.2467  -35.9284  -42.5855 O.2       9 UNK        -0.4960 
     59 C59        19.9443  -33.3894  -41.8998 C.3       10 UNK        -0.0876 
     60 S60        19.7663  -32.7953  -43.6175 S.3       10 UNK        -0.2414 
     61 C61        19.3353  -31.0560  -43.3125 C.3       10 UNK         0.0169 
     62 H62        14.5464  -24.4896  -40.1669 H         1 UNK         0.0903 
     63 H63        13.1862  -23.9081  -41.1307 H         1 UNK         0.0903 
     64 H64        13.3314  -25.6260  -40.7554 H         1 UNK         0.0903 
     65 H65        14.0562  -26.8154  -42.5079 H         1 UNK         0.3096 
     66 H66        15.2772  -25.6087  -44.8035 H         1 UNK         0.1121 
     67 H67        13.7067  -27.6987  -44.6878 H         1 UNK         0.0849 
     68 H68        15.1178  -28.6201  -44.2610 H         1 UNK         0.0849 
     69 H69        15.2968  -30.2056  -46.1949 H         1 UNK         0.0865 
     70 H70        15.9148  -29.7603  -47.7600 H         1 UNK         0.0865 
     71 H71        16.8925  -30.7221  -44.4749 H         1 UNK         0.1346 
     72 H72        21.0339  -29.7600  -45.0081 H         1 UNK         0.1412 
     73 H73        18.1294  -28.3164  -47.8040 H         1 UNK         0.1426 
     74 H74        21.7328  -28.8325  -47.2176 H         1 UNK         0.0716 
     75 H75        20.5317  -28.2397  -48.3281 H         1 UNK         0.0716 
     76 H76        23.1822  -26.2539  -45.6158 H         1 UNK         0.0695 
     77 H77        22.5105  -27.8099  -45.2129 H         1 UNK         0.0695 
     78 H78        21.4650  -25.1200  -44.1509 H         1 UNK         0.0983 
     79 H79        20.2432  -27.6753  -44.0951 H         1 UNK         0.3095 
     80 H80        18.8044  -28.4170  -42.6690 H         1 UNK         0.0454 
     81 H81        18.2489  -26.8550  -40.1076 H         1 UNK         0.0851 
     82 H82        17.8468  -28.5433  -40.4281 H         1 UNK         0.0851 
     83 H83        19.5246  -28.0490  -40.3003 H         1 UNK         0.0851 
     84 H84        16.5088  -27.1997  -41.9780 H         1 UNK         0.2976 
     85 H85        23.3522  -24.3352  -43.2097 H         1 UNK         0.3116 
     86 H86        24.0766  -25.2556  -40.6731 H         1 UNK         0.0646 
     87 H87        24.3278  -22.9016  -41.4003 H         1 UNK         0.0847 
     88 H88        25.8653  -23.5108  -40.8154 H         1 UNK         0.0847 
     89 H89        25.5922  -23.3560  -42.5445 H         1 UNK         0.0847 
     90 H90        25.5490  -26.0605  -43.7739 H         1 UNK         0.3040 
     91 H91        27.9101  -27.3468  -42.6721 H         1 UNK         0.1015 
     92 H92        26.6230  -27.5132  -45.4545 H         1 UNK         0.0786 
     93 H93        28.2221  -28.1062  -45.0284 H         1 UNK         0.0786 
     94 H94        27.8891  -26.3840  -44.9687 H         1 UNK         0.0786 
     95 H95        24.5942  -28.3208  -43.1102 H         1 UNK         0.3172 
     96 H96        25.2036  -31.2287  -43.0600 H         1 UNK         0.0595 
     97 H97        22.5301  -29.7658  -43.3193 H         1 UNK         0.0839 
     98 H98        22.8049  -31.4880  -43.5261 H         1 UNK         0.0839 
     99 H99        23.4866  -30.3576  -44.6809 H         1 UNK         0.0839 
    100 H100       23.6032  -28.6416  -41.2008 H         1 UNK         0.2998 
    101 H101       23.0040  -28.3375  -39.1035 H         1 UNK         0.0822 
    102 H102       24.4411  -29.3265  -37.2830 H         1 UNK         0.0787 
    103 H103       25.2350  -30.3534  -38.4750 H         1 UNK         0.0787 
    104 H104       25.3770  -28.6058  -38.5801 H         1 UNK         0.0787 
    105 H105       23.6977  -31.6087  -38.0950 H         1 UNK         0.3055 
    106 H106       20.9751  -32.1583  -37.2925 H         1 UNK         0.1106 
    107 H107       22.9291  -33.0208  -36.0156 H         1 UNK         0.0828 
    108 H108       21.9503  -34.3555  -36.5977 H         1 UNK         0.0828 
    109 H109       23.4582  -33.9616  -37.4111 H         1 UNK         0.0828 
    110 H110       22.6710  -32.5824  -40.2815 H         1 UNK         0.2931 
    111 H111       22.0761  -33.2750  -42.2424 H         1 UNK         0.0412 
    112 H112       22.7907  -36.8332  -40.9328 H         1 UNK         0.3472 
    113 H113       23.0022  -35.3233  -40.0802 H         1 UNK         0.3472 
    114 H114       19.2731  -34.2373  -41.7505 H         1 UNK         0.0970 
    115 H115       19.5579  -32.6166  -41.2340 H         1 UNK         0.0970 
    116 H116       18.4840  -31.0095  -42.6312 H         1 UNK         0.0612 
    117 H117       20.1652  -30.5664  -42.8000 H         1 UNK         0.0612 
@<TRIPOS>BOND
     1    1    2 1    
     2    1   62 1    
     3    1   63 1    
     4    1   64 1    
     5    2    3 2    
     6    2    4 am   BACKBONE|DICT|INTERRES
     7    4    5 1    
     8    4   65 1    
     9    5    6 1    
    10    5   25 1    
    11    5   66 1    
    12    6    7 1    
    13    6   67 1    
    14    6   68 1    
    15    7    8 1    
    16    8    9 1    
    17    8   69 1    
    18    8   70 1    
    19    9   10 ar   
    20    9   14 ar   
    21   10   11 ar   
    22   10   71 1    
    23   11   12 ar   
    24   11   61 1    
    25   12   13 ar   
    26   12   72 1    
    27   13   14 ar   
    28   13   15 1    
    29   14   73 1    
    30   15   16 1    
    31   15   74 1    
    32   15   75 1    
    33   16   17 1    
    34   17   18 1    
    35   17   76 1    
    36   17   77 1    
    37   18   19 1    
    38   18   27 1    
    39   18   78 1    
    40   19   20 am   BACKBONE|DICT|INTERRES
    41   19   79 1    
    42   20   21 2    
    43   20   22 1    
    44   22   23 1    
    45   22   24 1    
    46   22   80 1    
    47   23   81 1    
    48   23   82 1    
    49   23   83 1    
    50   24   25 am   BACKBONE|DICT|INTERRES
    51   24   84 1    
    52   25   26 2    
    53   27   28 2    
    54   27   29 am   BACKBONE|DICT|INTERRES
    55   29   30 1    
    56   29   85 1    
    57   30   31 1    
    58   30   32 1    
    59   30   86 1    
    60   31   87 1    
    61   31   88 1    
    62   31   89 1    
    63   32   33 2    
    64   32   34 am   BACKBONE|DICT|INTERRES
    65   34   35 1    
    66   34   90 1    
    67   35   36 1    
    68   35   37 1    
    69   35   91 1    
    70   36   92 1    
    71   36   93 1    
    72   36   94 1    
    73   37   38 2    
    74   37   39 am   BACKBONE|DICT|INTERRES
    75   39   40 1    
    76   39   95 1    
    77   40   41 1    
    78   40   42 1    
    79   40   96 1    
    80   41   97 1    
    81   41   98 1    
    82   41   99 1    
    83   42   43 2    
    84   42   44 am   BACKBONE|DICT|INTERRES
    85   44   45 1    
    86   44  100 1    
    87   45   46 1    
    88   45   47 1    
    89   45  101 1    
    90   46  102 1    
    91   46  103 1    
    92   46  104 1    
    93   47   48 2    
    94   47   49 am   BACKBONE|DICT|INTERRES
    95   49   50 1    
    96   49  105 1    
    97   50   51 1    
    98   50   52 1    
    99   50  106 1    
   100   51  107 1    
   101   51  108 1    
   102   51  109 1    
   103   52   53 2    
   104   52   54 am   BACKBONE|DICT|INTERRES
   105   54   55 1    
   106   54  110 1    
   107   55   56 1    
   108   55   59 1    
   109   55  111 1    
   110   56   57 am   BACKBONE|DICT|INTERRES
   111   56   58 2    
   112   57  112 1    
   113   57  113 1    
   114   59   60 1    
   115   59  114 1    
   116   59  115 1    
   117   60   61 1    
   118   61  116 1    
   119   61  117 1    
@<TRIPOS>SUBSTRUCTURE
     1 UNK         1 GROUP             0       ****    0 ROOT    
