@<TRIPOS>MOLECULE
3R8
117   119    1
SMALL
USER_CHARGES


@<TRIPOS>ATOM
      1 CA         16.9099  -23.7020  -49.3419 C.3       0 UNK        -0.2013 
      2 C          17.8903  -24.5762  -48.5743 C.2       0 UNK         0.4866 
      3 O          18.7553  -25.2075  -49.1823 O.2       0 UNK        -0.5176 
      4 N          17.7662  -24.6148  -47.2452 N.am      1 UNK        -0.4884 
      5 CA         18.6137  -25.3807  -46.3326 C.3       1 UNK         0.0853 
      6 C6         18.2809  -26.9002  -46.3285 C.3       10 UNK        -0.0849 
      7 S7         16.5812  -27.2955  -45.7796 S.3       10 UNK        -0.2776 
      8 C8         16.6338  -29.1128  -45.7129 C.3       10 UNK         0.0316 
      9 C9         17.4862  -29.6301  -44.5614 C.ar      10 UNK        -0.0863 
     10 C10        18.7566  -30.1575  -44.8072 C.ar      10 UNK        -0.1009 
     11 C11        19.5135  -30.6995  -43.7648 C.ar      10 UNK        -0.0712 
     12 C12        19.0058  -30.6898  -42.4620 C.ar      10 UNK        -0.0894 
     13 C13        17.7386  -30.1588  -42.2017 C.ar      10 UNK        -0.0745 
     14 C14        16.9842  -29.6319  -43.2563 C.ar      10 UNK        -0.0972 
     15 C15        17.1515  -30.2064  -40.7976 C.3       10 UNK         0.0209 
     16 S16        16.9703  -28.5457  -40.0756 S.3       10 UNK        -0.2568 
     17 C17        18.5581  -28.3115  -39.2056 C.3       10 UNK        -0.0983 
     18 CA         19.7000  -27.7545  -40.0930 C.3       3 UNK         0.0876 
     19 N          19.2731  -26.6103  -40.9035 N.am      3 UNK        -0.4424 
     20 C          20.0092  -26.0398  -41.8620 C.2       2 UNK         0.4918 
     21 O          21.1404  -26.4137  -42.1803 O.2       2 UNK        -0.4875 
     22 CA         19.3739  -24.8652  -42.6067 C.3       2 UNK         0.0481 
     23 CB         20.1221  -23.5470  -42.3445 C.3       2 UNK        -0.1831 
     24 N          19.3970  -25.1922  -44.0257 N.am      2 UNK        -0.4498 
     25 C          18.5192  -24.7508  -44.9308 C.2       1 UNK         0.5027 
     26 O          17.6497  -23.9057  -44.6917 O.2       1 UNK        -0.4969 
     27 C          20.9133  -27.3764  -39.2199 C.2       3 UNK         0.5005 
     28 O          20.9932  -26.2352  -38.7566 O.2       3 UNK        -0.5279 
     29 N          21.8440  -28.3207  -39.0280 N.am      4 UNK        -0.4463 
     30 CA         23.1224  -28.1961  -38.3098 C.3       4 UNK         0.0283 
     31 CB         22.9469  -27.7099  -36.8576 C.3       4 UNK        -0.1875 
     32 C          24.1728  -27.3625  -39.0655 C.2       4 UNK         0.4949 
     33 O          25.3358  -27.7619  -39.0924 O.2       4 UNK        -0.5039 
     34 N          23.7560  -26.2731  -39.7247 N.am      5 UNK        -0.4663 
     35 CA         24.5760  -25.4935  -40.6582 C.3       5 UNK         0.0242 
     36 CB         23.8473  -24.1928  -41.0259 C.3       5 UNK        -0.1982 
     37 C          24.9372  -26.3047  -41.9154 C.2       5 UNK         0.5017 
     38 O          26.1024  -26.3243  -42.3109 O.2       5 UNK        -0.5012 
     39 N          23.9455  -27.0169  -42.4688 N.am      6 UNK        -0.4439 
     40 CA         24.1051  -28.0288  -43.5183 C.3       6 UNK         0.0297 
     41 CB         22.8856  -27.9666  -44.4575 C.3       6 UNK        -0.2006 
     42 C          24.2897  -29.4465  -42.9338 C.2       6 UNK         0.4892 
     43 O          24.0793  -30.4229  -43.6542 O.2       6 UNK        -0.5089 
     44 N          24.6618  -29.5365  -41.6464 N.am      7 UNK        -0.4243 
     45 CA         24.7332  -30.7391  -40.8089 C.3       7 UNK         0.0196 
     46 CB         25.7676  -31.7448  -41.3658 C.3       7 UNK        -0.2007 
     47 C          23.3387  -31.3533  -40.5687 C.2       7 UNK         0.5020 
     48 O          22.3251  -30.6592  -40.6938 O.2       7 UNK        -0.5147 
     49 N          23.3083  -32.6358  -40.1878 N.am      8 UNK        -0.4734 
     50 CA         22.0820  -33.4361  -40.1086 C.3       8 UNK         0.0238 
     51 CB         22.2714  -34.5565  -39.0726 C.3       8 UNK        -0.1912 
     52 C          21.6937  -34.0265  -41.4765 C.2       8 UNK         0.5038 
     53 O          20.5120  -34.2892  -41.6937 O.2       8 UNK        -0.5046 
     54 N          22.7004  -34.2260  -42.3434 N.am      9 UNK        -0.4200 
     55 CA         22.6556  -34.7299  -43.7290 C.3       9 UNK         0.0839 
     56 C          21.9312  -36.0897  -43.9784 C.2       9 UNK         0.5513 
     57 N          21.6778  -36.9010  -42.9592 N.am      9 UNK        -0.7519 
     58 O          21.6429  -36.4443  -45.1189 O.2       9 UNK        -0.4960 
     59 C59        22.3406  -33.6209  -44.7753 C.3       10 UNK        -0.0876 
     60 S60        20.6260  -33.0012  -44.7634 S.3       10 UNK        -0.2414 
     61 C61        20.8580  -31.3408  -44.0593 C.3       10 UNK         0.0169 
     62 H62        16.2014  -23.2055  -48.6790 H         1 UNK         0.0903 
     63 H63        17.4472  -22.9354  -49.8997 H         1 UNK         0.0903 
     64 H64        16.3443  -24.3063  -50.0506 H         1 UNK         0.0903 
     65 H65        17.0719  -24.0521  -46.7671 H         1 UNK         0.3096 
     66 H66        19.6492  -25.2546  -46.6580 H         1 UNK         0.1121 
     67 H67        18.9893  -27.4349  -45.6942 H         1 UNK         0.0849 
     68 H68        18.4205  -27.3108  -47.3295 H         1 UNK         0.0849 
     69 H69        15.6155  -29.4884  -45.6012 H         1 UNK         0.0865 
     70 H70        16.9932  -29.5002  -46.6676 H         1 UNK         0.0865 
     71 H71        19.1464  -30.1799  -45.8159 H         1 UNK         0.1346 
     72 H72        19.5883  -31.1218  -41.6592 H         1 UNK         0.1412 
     73 H73        15.9974  -29.2337  -43.0616 H         1 UNK         0.1426 
     74 H74        17.7481  -30.8403  -40.1399 H         1 UNK         0.0716 
     75 H75        16.1652  -30.6701  -40.8482 H         1 UNK         0.0716 
     76 H76        18.8576  -29.2558  -38.7472 H         1 UNK         0.0695 
     77 H77        18.3586  -27.6293  -38.3763 H         1 UNK         0.0695 
     78 H78        20.0114  -28.5380  -40.7876 H         1 UNK         0.0983 
     79 H79        18.3536  -26.2479  -40.7001 H         1 UNK         0.3095 
     80 H80        18.3392  -24.7581  -42.2728 H         1 UNK         0.0454 
     81 H81        21.1228  -23.5600  -42.7761 H         1 UNK         0.0851 
     82 H82        20.2243  -23.3585  -41.2750 H         1 UNK         0.0851 
     83 H83        19.5881  -22.6995  -42.7743 H         1 UNK         0.0851 
     84 H84        20.0778  -25.8956  -44.2813 H         1 UNK         0.2976 
     85 H85        21.7371  -29.2016  -39.5276 H         1 UNK         0.3116 
     86 H86        23.5148  -29.2123  -38.2550 H         1 UNK         0.0646 
     87 H87        22.6295  -26.6684  -36.8048 H         1 UNK         0.0847 
     88 H88        23.8882  -27.7833  -36.3115 H         1 UNK         0.0847 
     89 H89        22.2140  -28.3130  -36.3221 H         1 UNK         0.0847 
     90 H90        22.7813  -26.0078  -39.6178 H         1 UNK         0.3040 
     91 H91        25.5086  -25.2324  -40.1528 H         1 UNK         0.1015 
     92 H92        22.8881  -24.3927  -41.5010 H         1 UNK         0.0786 
     93 H93        24.4393  -23.5950  -41.7203 H         1 UNK         0.0786 
     94 H94        23.6626  -23.5788  -40.1443 H         1 UNK         0.0786 
     95 H95        22.9985  -26.8900  -42.1179 H         1 UNK         0.3172 
     96 H96        24.9954  -27.8049  -44.1091 H         1 UNK         0.0595 
     97 H97        21.9721  -28.2807  -43.9505 H         1 UNK         0.0839 
     98 H98        23.0199  -28.6213  -45.3194 H         1 UNK         0.0839 
     99 H99        22.7284  -26.9581  -44.8397 H         1 UNK         0.0839 
    100 H100       24.8236  -28.6686  -41.1540 H         1 UNK         0.2998 
    101 H101       25.0919  -30.4066  -39.8343 H         1 UNK         0.0822 
    102 H102       26.7059  -31.2462  -41.6099 H         1 UNK         0.0787 
    103 H103       26.0062  -32.5199  -40.6372 H         1 UNK         0.0787 
    104 H104       25.4128  -32.2391  -42.2709 H         1 UNK         0.0787 
    105 H105       24.1826  -33.1173  -40.0320 H         1 UNK         0.3055 
    106 H106       21.2550  -32.8029  -39.7778 H         1 UNK         0.1106 
    107 H107       21.3653  -35.1569  -38.9786 H         1 UNK         0.0828 
    108 H108       23.0830  -35.2320  -39.3457 H         1 UNK         0.0828 
    109 H109       22.4910  -34.1495  -38.0854 H         1 UNK         0.0828 
    110 H110       23.6247  -33.9864  -42.0215 H         1 UNK         0.2931 
    111 H111       23.6976  -34.9927  -43.9155 H         1 UNK         0.0412 
    112 H112       21.2256  -37.7852  -43.1319 H         1 UNK         0.3472 
    113 H113       21.8987  -36.6210  -42.0175 H         1 UNK         0.3472 
    114 H114       22.5508  -33.9896  -45.7807 H         1 UNK         0.0970 
    115 H115       23.0261  -32.7837  -44.6346 H         1 UNK         0.0970 
    116 H116       21.4230  -30.7234  -44.7588 H         1 UNK         0.0612 
    117 H117       21.4554  -31.4103  -43.1498 H         1 UNK         0.0612 
@<TRIPOS>BOND
     1    1    2 1    
     2    1   62 1    
     3    1   63 1    
     4    1   64 1    
     5    2    3 2    
     6    2    4 am   BACKBONE|DICT|INTERRES
     7    4    5 1    
     8    4   65 1    
     9    5    6 1    
    10    5   25 1    
    11    5   66 1    
    12    6    7 1    
    13    6   67 1    
    14    6   68 1    
    15    7    8 1    
    16    8    9 1    
    17    8   69 1    
    18    8   70 1    
    19    9   10 ar   
    20    9   14 ar   
    21   10   11 ar   
    22   10   71 1    
    23   11   12 ar   
    24   11   61 1    
    25   12   13 ar   
    26   12   72 1    
    27   13   14 ar   
    28   13   15 1    
    29   14   73 1    
    30   15   16 1    
    31   15   74 1    
    32   15   75 1    
    33   16   17 1    
    34   17   18 1    
    35   17   76 1    
    36   17   77 1    
    37   18   19 1    
    38   18   27 1    
    39   18   78 1    
    40   19   20 am   BACKBONE|DICT|INTERRES
    41   19   79 1    
    42   20   21 2    
    43   20   22 1    
    44   22   23 1    
    45   22   24 1    
    46   22   80 1    
    47   23   81 1    
    48   23   82 1    
    49   23   83 1    
    50   24   25 am   BACKBONE|DICT|INTERRES
    51   24   84 1    
    52   25   26 2    
    53   27   28 2    
    54   27   29 am   BACKBONE|DICT|INTERRES
    55   29   30 1    
    56   29   85 1    
    57   30   31 1    
    58   30   32 1    
    59   30   86 1    
    60   31   87 1    
    61   31   88 1    
    62   31   89 1    
    63   32   33 2    
    64   32   34 am   BACKBONE|DICT|INTERRES
    65   34   35 1    
    66   34   90 1    
    67   35   36 1    
    68   35   37 1    
    69   35   91 1    
    70   36   92 1    
    71   36   93 1    
    72   36   94 1    
    73   37   38 2    
    74   37   39 am   BACKBONE|DICT|INTERRES
    75   39   40 1    
    76   39   95 1    
    77   40   41 1    
    78   40   42 1    
    79   40   96 1    
    80   41   97 1    
    81   41   98 1    
    82   41   99 1    
    83   42   43 2    
    84   42   44 am   BACKBONE|DICT|INTERRES
    85   44   45 1    
    86   44  100 1    
    87   45   46 1    
    88   45   47 1    
    89   45  101 1    
    90   46  102 1    
    91   46  103 1    
    92   46  104 1    
    93   47   48 2    
    94   47   49 am   BACKBONE|DICT|INTERRES
    95   49   50 1    
    96   49  105 1    
    97   50   51 1    
    98   50   52 1    
    99   50  106 1    
   100   51  107 1    
   101   51  108 1    
   102   51  109 1    
   103   52   53 2    
   104   52   54 am   BACKBONE|DICT|INTERRES
   105   54   55 1    
   106   54  110 1    
   107   55   56 1    
   108   55   59 1    
   109   55  111 1    
   110   56   57 am   BACKBONE|DICT|INTERRES
   111   56   58 2    
   112   57  112 1    
   113   57  113 1    
   114   59   60 1    
   115   59  114 1    
   116   59  115 1    
   117   60   61 1    
   118   61  116 1    
   119   61  117 1    
@<TRIPOS>SUBSTRUCTURE
     1 UNK         1 GROUP             0       ****    0 ROOT    
