@<TRIPOS>MOLECULE
3R8
117   119    1
SMALL
USER_CHARGES


@<TRIPOS>ATOM
      1 CA         19.0240  -21.5083  -46.2172 C.3       0 UNK        -0.2013 
      2 C          18.8327  -22.9547  -45.7857 C.2       0 UNK         0.4866 
      3 O          17.7622  -23.5134  -46.0221 O.2       0 UNK        -0.5176 
      4 N          19.8620  -23.5361  -45.1500 N.am      1 UNK        -0.4884 
      5 CA         20.0297  -24.9028  -44.6184 C.3       1 UNK         0.0853 
      6 C6         20.3305  -25.9937  -45.6874 C.3       10 UNK        -0.0849 
      7 S7         18.9779  -26.3853  -46.8481 S.3       10 UNK        -0.2776 
      8 C8         19.6376  -27.8552  -47.6955 C.3       10 UNK         0.0316 
      9 C9         19.4380  -29.1198  -46.8732 C.ar      10 UNK        -0.0863 
     10 C10        20.5266  -29.7716  -46.2866 C.ar      10 UNK        -0.1009 
     11 C11        20.3383  -30.9465  -45.5512 C.ar      10 UNK        -0.0712 
     12 C12        19.0481  -31.4651  -45.3968 C.ar      10 UNK        -0.0894 
     13 C13        17.9495  -30.8085  -45.9618 C.ar      10 UNK        -0.0745 
     14 C14        18.1547  -29.6484  -46.7137 C.ar      10 UNK        -0.0972 
     15 C15        16.5356  -31.3277  -45.7406 C.3       10 UNK         0.0209 
     16 S16        15.5226  -30.1424  -44.7925 S.3       10 UNK        -0.2568 
     17 C17        16.2736  -30.2371  -43.1309 C.3       10 UNK        -0.0983 
     18 CA         17.4755  -29.2711  -42.9295 C.3       3 UNK         0.0876 
     19 N          17.1909  -27.8745  -43.2743 N.am      3 UNK        -0.4424 
     20 C          16.4380  -27.0050  -42.5876 C.2       2 UNK         0.4918 
     21 O          15.7283  -27.3201  -41.6313 O.2       2 UNK        -0.4875 
     22 CA         16.5250  -25.5221  -43.0172 C.3       2 UNK         0.0481 
     23 CB         16.4531  -24.5748  -41.8020 C.3       2 UNK        -0.1831 
     24 N          17.6956  -25.1817  -43.8439 N.am      2 UNK        -0.4498 
     25 C          18.9950  -25.3655  -43.5687 C.2       1 UNK         0.5027 
     26 O          19.3981  -25.9107  -42.5402 O.2       1 UNK        -0.4969 
     27 C          18.1421  -29.4198  -41.5405 C.2       3 UNK         0.5005 
     28 O          17.9133  -30.4185  -40.8558 O.2       3 UNK        -0.5279 
     29 N          18.9694  -28.4390  -41.1497 N.am      4 UNK        -0.4463 
     30 CA         19.6762  -28.3934  -39.8689 C.3       4 UNK         0.0283 
     31 CB         18.7564  -27.7876  -38.7897 C.3       4 UNK        -0.1875 
     32 C          21.0081  -27.6382  -40.0162 C.2       4 UNK         0.4949 
     33 O          21.3820  -26.8712  -39.1270 O.2       4 UNK        -0.5039 
     34 N          21.6938  -27.8458  -41.1486 N.am      5 UNK        -0.4663 
     35 CA         22.9741  -27.2113  -41.4674 C.3       5 UNK         0.0242 
     36 CB         23.1943  -27.2747  -42.9891 C.3       5 UNK        -0.1982 
     37 C          24.1521  -27.8606  -40.7199 C.2       5 UNK         0.5017 
     38 O          24.0197  -28.9587  -40.1705 O.2       5 UNK        -0.5012 
     39 N          25.3119  -27.1885  -40.7792 N.am      6 UNK        -0.4439 
     40 CA         26.5928  -27.5904  -40.1773 C.3       6 UNK         0.0297 
     41 CB         27.6185  -26.4647  -40.3911 C.3       6 UNK        -0.2006 
     42 C          27.1632  -28.9376  -40.6693 C.2       6 UNK         0.4892 
     43 O          28.0747  -29.4702  -40.0358 O.2       6 UNK        -0.5089 
     44 N          26.5993  -29.4827  -41.7561 N.am      7 UNK        -0.4243 
     45 CA         26.8248  -30.8434  -42.2501 C.3       7 UNK         0.0196 
     46 CB         26.2382  -30.9493  -43.6686 C.3       7 UNK        -0.2007 
     47 C          26.2400  -31.9467  -41.3394 C.2       7 UNK         0.5020 
     48 O          26.4919  -33.1218  -41.6063 O.2       7 UNK        -0.5147 
     49 N          25.4761  -31.5619  -40.3030 N.am      8 UNK        -0.4734 
     50 CA         24.7723  -32.4124  -39.3350 C.3       8 UNK         0.0238 
     51 CB         25.7425  -33.3292  -38.5577 C.3       8 UNK        -0.1912 
     52 C          23.6065  -33.1637  -39.9976 C.2       8 UNK         0.5038 
     53 O          23.4962  -34.3855  -39.8756 O.2       8 UNK        -0.5046 
     54 N          22.7731  -32.3944  -40.7076 N.am      9 UNK        -0.4200 
     55 CA         21.5626  -32.8400  -41.4101 C.3       9 UNK         0.0839 
     56 C          20.5201  -33.5069  -40.4704 C.2       9 UNK         0.5513 
     57 N          19.8018  -34.5099  -40.9568 N.am      9 UNK        -0.7519 
     58 O          20.3315  -33.0979  -39.3265 O.2       9 UNK        -0.4960 
     59 C59        20.9115  -31.6646  -42.1798 C.3       10 UNK        -0.0876 
     60 S60        22.0483  -30.8850  -43.3732 S.3       10 UNK        -0.2414 
     61 C61        21.5369  -31.6558  -44.9388 C.3       10 UNK         0.0169 
     62 H62        20.0100  -21.1269  -45.9522 H         1 UNK         0.0903 
     63 H63        18.9072  -21.4221  -47.2972 H         1 UNK         0.0903 
     64 H64        18.2762  -20.8736  -45.7425 H         1 UNK         0.0903 
     65 H65        20.6734  -22.9541  -44.9913 H         1 UNK         0.3096 
     66 H66        20.9514  -24.8157  -44.0398 H         1 UNK         0.1121 
     67 H67        20.6282  -26.9209  -45.1945 H         1 UNK         0.0849 
     68 H68        21.1957  -25.6877  -46.2774 H         1 UNK         0.0849 
     69 H69        19.1230  -27.9692  -48.6507 H         1 UNK         0.0865 
     70 H70        20.6909  -27.7018  -47.9358 H         1 UNK         0.0865 
     71 H71        21.5240  -29.3701  -46.4048 H         1 UNK         0.1346 
     72 H72        18.8970  -32.3700  -44.8246 H         1 UNK         0.1412 
     73 H73        17.3078  -29.1399  -47.1549 H         1 UNK         0.1426 
     74 H74        16.5426  -32.2916  -45.2294 H         1 UNK         0.0716 
     75 H75        16.0648  -31.4970  -46.7100 H         1 UNK         0.0716 
     76 H76        16.5763  -31.2706  -42.9526 H         1 UNK         0.0695 
     77 H77        15.4931  -30.0211  -42.3995 H         1 UNK         0.0695 
     78 H78        18.2601  -29.5697  -43.6209 H         1 UNK         0.0983 
     79 H79        17.7026  -27.5119  -44.0657 H         1 UNK         0.3095 
     80 H80        15.6503  -25.3344  -43.6410 H         1 UNK         0.0454 
     81 H81        17.2735  -24.7511  -41.1054 H         1 UNK         0.0851 
     82 H82        15.5225  -24.7104  -41.2496 H         1 UNK         0.0851 
     83 H83        16.4931  -23.5302  -42.1103 H         1 UNK         0.0851 
     84 H84        17.4982  -24.7097  -44.7271 H         1 UNK         0.2976 
     85 H85        19.1014  -27.6230  -41.7460 H         1 UNK         0.3116 
     86 H86        19.9378  -29.4089  -39.5645 H         1 UNK         0.0646 
     87 H87        18.4785  -26.7615  -39.0335 H         1 UNK         0.0847 
     88 H88        19.2466  -27.7741  -37.8156 H         1 UNK         0.0847 
     89 H89        17.8386  -28.3651  -38.6792 H         1 UNK         0.0847 
     90 H90        21.3452  -28.5203  -41.8134 H         1 UNK         0.3040 
     91 H91        22.9184  -26.1620  -41.1678 H         1 UNK         0.1015 
     92 H92        23.3544  -28.2950  -43.3366 H         1 UNK         0.0786 
     93 H93        24.0654  -26.6914  -43.2895 H         1 UNK         0.0786 
     94 H94        22.3400  -26.8687  -43.5278 H         1 UNK         0.0786 
     95 H95        25.3203  -26.3064  -41.2717 H         1 UNK         0.3172 
     96 H96        26.4234  -27.6960  -39.1039 H         1 UNK         0.0595 
     97 H97        27.8126  -26.2910  -41.4503 H         1 UNK         0.0839 
     98 H98        28.5729  -26.7096  -39.9224 H         1 UNK         0.0839 
     99 H99        27.2791  -25.5266  -39.9515 H         1 UNK         0.0839 
    100 H100       25.8629  -28.9610  -42.2071 H         1 UNK         0.2998 
    101 H101       27.9026  -31.0100  -42.3072 H         1 UNK         0.0822 
    102 H102       26.6876  -30.2183  -44.3411 H         1 UNK         0.0787 
    103 H103       26.4226  -31.9355  -44.0969 H         1 UNK         0.0787 
    104 H104       25.1590  -30.7911  -43.6711 H         1 UNK         0.0787 
    105 H105       25.2773  -30.5697  -40.2172 H         1 UNK         0.3055 
    106 H106       24.3195  -31.7350  -38.6085 H         1 UNK         0.1106 
    107 H107       25.2214  -33.8484  -37.7525 H         1 UNK         0.0828 
    108 H108       26.1874  -34.0931  -39.1956 H         1 UNK         0.0828 
    109 H109       26.5515  -32.7568  -38.1042 H         1 UNK         0.0828 
    110 H110       22.9677  -31.4050  -40.7589 H         1 UNK         0.2931 
    111 H111       21.8832  -33.5873  -42.1389 H         1 UNK         0.0412 
    112 H112       19.1092  -34.9457  -40.3677 H         1 UNK         0.3472 
    113 H113       19.9472  -34.8518  -41.8941 H         1 UNK         0.3472 
    114 H114       20.0055  -31.9882  -42.6938 H         1 UNK         0.0970 
    115 H115       20.5990  -30.8976  -41.4721 H         1 UNK         0.0970 
    116 H116       21.3268  -32.7146  -44.7797 H         1 UNK         0.0612 
    117 H117       22.3754  -31.6147  -45.6356 H         1 UNK         0.0612 
@<TRIPOS>BOND
     1    1    2 1    
     2    1   62 1    
     3    1   63 1    
     4    1   64 1    
     5    2    3 2    
     6    2    4 am   BACKBONE|DICT|INTERRES
     7    4    5 1    
     8    4   65 1    
     9    5    6 1    
    10    5   25 1    
    11    5   66 1    
    12    6    7 1    
    13    6   67 1    
    14    6   68 1    
    15    7    8 1    
    16    8    9 1    
    17    8   69 1    
    18    8   70 1    
    19    9   10 ar   
    20    9   14 ar   
    21   10   11 ar   
    22   10   71 1    
    23   11   12 ar   
    24   11   61 1    
    25   12   13 ar   
    26   12   72 1    
    27   13   14 ar   
    28   13   15 1    
    29   14   73 1    
    30   15   16 1    
    31   15   74 1    
    32   15   75 1    
    33   16   17 1    
    34   17   18 1    
    35   17   76 1    
    36   17   77 1    
    37   18   19 1    
    38   18   27 1    
    39   18   78 1    
    40   19   20 am   BACKBONE|DICT|INTERRES
    41   19   79 1    
    42   20   21 2    
    43   20   22 1    
    44   22   23 1    
    45   22   24 1    
    46   22   80 1    
    47   23   81 1    
    48   23   82 1    
    49   23   83 1    
    50   24   25 am   BACKBONE|DICT|INTERRES
    51   24   84 1    
    52   25   26 2    
    53   27   28 2    
    54   27   29 am   BACKBONE|DICT|INTERRES
    55   29   30 1    
    56   29   85 1    
    57   30   31 1    
    58   30   32 1    
    59   30   86 1    
    60   31   87 1    
    61   31   88 1    
    62   31   89 1    
    63   32   33 2    
    64   32   34 am   BACKBONE|DICT|INTERRES
    65   34   35 1    
    66   34   90 1    
    67   35   36 1    
    68   35   37 1    
    69   35   91 1    
    70   36   92 1    
    71   36   93 1    
    72   36   94 1    
    73   37   38 2    
    74   37   39 am   BACKBONE|DICT|INTERRES
    75   39   40 1    
    76   39   95 1    
    77   40   41 1    
    78   40   42 1    
    79   40   96 1    
    80   41   97 1    
    81   41   98 1    
    82   41   99 1    
    83   42   43 2    
    84   42   44 am   BACKBONE|DICT|INTERRES
    85   44   45 1    
    86   44  100 1    
    87   45   46 1    
    88   45   47 1    
    89   45  101 1    
    90   46  102 1    
    91   46  103 1    
    92   46  104 1    
    93   47   48 2    
    94   47   49 am   BACKBONE|DICT|INTERRES
    95   49   50 1    
    96   49  105 1    
    97   50   51 1    
    98   50   52 1    
    99   50  106 1    
   100   51  107 1    
   101   51  108 1    
   102   51  109 1    
   103   52   53 2    
   104   52   54 am   BACKBONE|DICT|INTERRES
   105   54   55 1    
   106   54  110 1    
   107   55   56 1    
   108   55   59 1    
   109   55  111 1    
   110   56   57 am   BACKBONE|DICT|INTERRES
   111   56   58 2    
   112   57  112 1    
   113   57  113 1    
   114   59   60 1    
   115   59  114 1    
   116   59  115 1    
   117   60   61 1    
   118   61  116 1    
   119   61  117 1    
@<TRIPOS>SUBSTRUCTURE
     1 UNK         1 GROUP             0       ****    0 ROOT    
