@<TRIPOS>MOLECULE
3R8
117   119    1
SMALL
USER_CHARGES


@<TRIPOS>ATOM
      1 CA         19.4568  -25.3379  -39.6931 C.3       0 UNK        -0.2013 
      2 C          19.1116  -25.5535  -41.1585 C.2       0 UNK         0.4866 
      3 O          20.0098  -25.7406  -41.9811 O.2       0 UNK        -0.5176 
      4 N          17.8110  -25.5077  -41.4844 N.am      1 UNK        -0.4884 
      5 CA         17.2513  -25.5665  -42.8432 C.3       1 UNK         0.0853 
      6 C6         17.4597  -26.9482  -43.5384 C.3       10 UNK        -0.0849 
      7 S7         16.6573  -28.3169  -42.6376 S.3       10 UNK        -0.2776 
      8 C8         16.3625  -29.5264  -43.9692 C.3       10 UNK         0.0316 
      9 C9         17.6401  -30.2343  -44.4045 C.ar      10 UNK        -0.0863 
     10 C10        18.0470  -31.4105  -43.7641 C.ar      10 UNK        -0.1009 
     11 C11        19.1955  -32.0882  -44.1868 C.ar      10 UNK        -0.0712 
     12 C12        19.9436  -31.5746  -45.2502 C.ar      10 UNK        -0.0894 
     13 C13        19.5639  -30.3882  -45.8812 C.ar      10 UNK        -0.0745 
     14 C14        18.4015  -29.7305  -45.4646 C.ar      10 UNK        -0.0972 
     15 C15        20.4220  -29.8194  -47.0041 C.3       10 UNK         0.0209 
     16 S16        21.9656  -29.0859  -46.3654 S.3       10 UNK        -0.2568 
     17 C17        21.3159  -27.7109  -45.3619 C.3       10 UNK        -0.0983 
     18 CA         21.9754  -26.3488  -45.6922 C.3       3 UNK         0.0876 
     19 N          21.0767  -25.2641  -45.3113 N.am      3 UNK        -0.4424 
     20 C          20.3878  -24.5006  -46.1683 C.2       2 UNK         0.4918 
     21 O          20.5589  -24.5033  -47.3882 O.2       2 UNK        -0.4875 
     22 CA         19.2451  -23.6826  -45.5508 C.3       2 UNK         0.0481 
     23 CB         18.3819  -22.9399  -46.5890 C.3       2 UNK        -0.1831 
     24 N          18.4281  -24.6217  -44.7884 N.am      2 UNK        -0.4498 
     25 C          17.7729  -24.3564  -43.6558 C.2       1 UNK         0.5027 
     26 O          17.6061  -23.2161  -43.2160 O.2       1 UNK        -0.4969 
     27 C          23.3070  -26.1944  -44.9453 C.2       3 UNK         0.5005 
     28 O          23.3101  -25.8014  -43.7759 O.2       3 UNK        -0.5279 
     29 N          24.4080  -26.5888  -45.6006 N.am      4 UNK        -0.4463 
     30 CA         25.7526  -26.6580  -45.0140 C.3       4 UNK         0.0283 
     31 CB         26.7778  -26.9381  -46.1245 C.3       4 UNK        -0.1875 
     32 C          25.8767  -27.7058  -43.8907 C.2       4 UNK         0.4949 
     33 O          26.7563  -27.5783  -43.0395 O.2       4 UNK        -0.5039 
     34 N          24.9810  -28.7037  -43.8930 N.am      5 UNK        -0.4663 
     35 CA         24.8430  -29.7157  -42.8443 C.3       5 UNK         0.0242 
     36 CB         24.0330  -30.8965  -43.4032 C.3       5 UNK        -0.1982 
     37 C          24.1914  -29.1841  -41.5528 C.2       5 UNK         0.5017 
     38 O          24.2170  -29.8927  -40.5462 O.2       5 UNK        -0.5012 
     39 N          23.5925  -27.9806  -41.5997 N.am      6 UNK        -0.4439 
     40 CA         22.9436  -27.2666  -40.4894 C.3       6 UNK         0.0297 
     41 CB         24.0073  -26.7538  -39.4962 C.3       6 UNK        -0.2006 
     42 C          21.8241  -28.0673  -39.7896 C.2       6 UNK         0.4892 
     43 O          21.6012  -27.8879  -38.5914 O.2       6 UNK        -0.5089 
     44 N          21.1617  -28.9517  -40.5508 N.am      7 UNK        -0.4243 
     45 CA         20.1243  -29.9014  -40.1316 C.3       7 UNK         0.0196 
     46 CB         18.8553  -29.1617  -39.6623 C.3       7 UNK        -0.2007 
     47 C          20.5900  -30.9524  -39.1014 C.2       7 UNK         0.5020 
     48 O          19.7403  -31.6101  -38.4990 O.2       7 UNK        -0.5147 
     49 N          21.9091  -31.1502  -38.9333 N.am      8 UNK        -0.4734 
     50 CA         22.4853  -32.1736  -38.0438 C.3       8 UNK         0.0238 
     51 CB         24.0031  -31.9603  -37.9349 C.3       8 UNK        -0.1912 
     52 C          22.1711  -33.6122  -38.4982 C.2       8 UNK         0.5038 
     53 O          22.1263  -34.5258  -37.6741 O.2       8 UNK        -0.5046 
     54 N          21.9278  -33.7581  -39.8029 N.am      9 UNK        -0.4200 
     55 CA         21.3567  -34.9221  -40.4866 C.3       9 UNK         0.0839 
     56 C          19.8655  -35.2233  -40.1503 C.2       9 UNK         0.5513 
     57 N          19.1325  -34.3535  -39.4646 N.am      9 UNK        -0.7519 
     58 O          19.3638  -36.2827  -40.5169 O.2       9 UNK        -0.4960 
     59 C59        21.5886  -34.8153  -42.0201 C.3       10 UNK        -0.0876 
     60 S60        21.2490  -33.1479  -42.6961 S.3       10 UNK        -0.2414 
     61 C61        19.6384  -33.3740  -43.5036 C.3       10 UNK         0.0169 
     62 H62        20.4747  -24.9621  -39.5916 H         1 UNK         0.0903 
     63 H63        18.7852  -24.6147  -39.2313 H         1 UNK         0.0903 
     64 H64        19.3838  -26.2740  -39.1423 H         1 UNK         0.0903 
     65 H65        17.1325  -25.3369  -40.7553 H         1 UNK         0.3096 
     66 H66        16.1763  -25.4066  -42.7437 H         1 UNK         0.1121 
     67 H67        17.0416  -26.9269  -44.5462 H         1 UNK         0.0849 
     68 H68        18.5195  -27.1886  -43.6397 H         1 UNK         0.0849 
     69 H69        15.6419  -30.2641  -43.6128 H         1 UNK         0.0865 
     70 H70        15.8869  -29.0357  -44.8197 H         1 UNK         0.0865 
     71 H71        17.4639  -31.8012  -42.9412 H         1 UNK         0.1346 
     72 H72        20.8404  -32.0874  -45.5707 H         1 UNK         0.1412 
     73 H73        18.0923  -28.8216  -45.9615 H         1 UNK         0.1426 
     74 H74        19.8721  -29.0691  -47.5746 H         1 UNK         0.0716 
     75 H75        20.6728  -30.6151  -47.7070 H         1 UNK         0.0716 
     76 H76        20.2453  -27.6386  -45.5518 H         1 UNK         0.0695 
     77 H77        21.4011  -27.9643  -44.3027 H         1 UNK         0.0695 
     78 H78        22.1773  -26.2950  -46.7646 H         1 UNK         0.0983 
     79 H79        20.9294  -25.1598  -44.3139 H         1 UNK         0.3095 
     80 H80        19.6968  -22.9518  -44.8766 H         1 UNK         0.0454 
     81 H81        18.9853  -22.2420  -47.1705 H         1 UNK         0.0851 
     82 H82        17.9112  -23.6302  -47.2899 H         1 UNK         0.0851 
     83 H83        17.5929  -22.3622  -46.1077 H         1 UNK         0.0851 
     84 H84        18.5231  -25.5873  -45.0691 H         1 UNK         0.2976 
     85 H85        24.3144  -26.9212  -46.5507 H         1 UNK         0.3116 
     86 H86        25.9779  -25.6829  -44.5768 H         1 UNK         0.0646 
     87 H87        27.7911  -26.9663  -45.7211 H         1 UNK         0.0847 
     88 H88        26.7587  -26.1617  -46.8895 H         1 UNK         0.0847 
     89 H89        26.5956  -27.8968  -46.6117 H         1 UNK         0.0847 
     90 H90        24.3093  -28.7393  -44.6470 H         1 UNK         0.3040 
     91 H91        25.8392  -30.0759  -42.5775 H         1 UNK         0.1015 
     92 H92        24.5022  -31.3171  -44.2927 H         1 UNK         0.0786 
     93 H93        23.0158  -30.6033  -43.6677 H         1 UNK         0.0786 
     94 H94        23.9605  -31.7001  -42.6691 H         1 UNK         0.0786 
     95 H95        23.6206  -27.4664  -42.4738 H         1 UNK         0.3172 
     96 H96        22.4608  -26.3955  -40.9340 H         1 UNK         0.0595 
     97 H97        24.7771  -26.1734  -40.0047 H         1 UNK         0.0839 
     98 H98        24.4970  -27.5750  -38.9716 H         1 UNK         0.0839 
     99 H99        23.5606  -26.1050  -38.7418 H         1 UNK         0.0839 
    100 H100       21.4345  -29.0110  -41.5213 H         1 UNK         0.2998 
    101 H101       19.8601  -30.4631  -41.0295 H         1 UNK         0.0822 
    102 H102       18.5512  -28.4034  -40.3816 H         1 UNK         0.0787 
    103 H103       18.0183  -29.8520  -39.5515 H         1 UNK         0.0787 
    104 H104       19.0039  -28.6744  -38.6986 H         1 UNK         0.0787 
    105 H105       22.5657  -30.5818  -39.4599 H         1 UNK         0.3055 
    106 H106       22.0455  -32.0426  -37.0526 H         1 UNK         0.1106 
    107 H107       24.4994  -32.0946  -38.8969 H         1 UNK         0.0828 
    108 H108       24.2389  -30.9588  -37.5744 H         1 UNK         0.0828 
    109 H109       24.4481  -32.6702  -37.2364 H         1 UNK         0.0828 
    110 H110       21.9967  -32.9319  -40.3790 H         1 UNK         0.2931 
    111 H111       21.9123  -35.7933  -40.1346 H         1 UNK         0.0412 
    112 H112       18.1732  -34.5818  -39.2583 H         1 UNK         0.3472 
    113 H113       19.5131  -33.4685  -39.1473 H         1 UNK         0.3472 
    114 H114       21.0251  -35.5712  -42.5707 H         1 UNK         0.0970 
    115 H115       22.6364  -35.0335  -42.2317 H         1 UNK         0.0970 
    116 H116       18.9061  -33.6948  -42.7611 H         1 UNK         0.0612 
    117 H117       19.7100  -34.1709  -44.2451 H         1 UNK         0.0612 
@<TRIPOS>BOND
     1    1    2 1    
     2    1   62 1    
     3    1   63 1    
     4    1   64 1    
     5    2    3 2    
     6    2    4 am   BACKBONE|DICT|INTERRES
     7    4    5 1    
     8    4   65 1    
     9    5    6 1    
    10    5   25 1    
    11    5   66 1    
    12    6    7 1    
    13    6   67 1    
    14    6   68 1    
    15    7    8 1    
    16    8    9 1    
    17    8   69 1    
    18    8   70 1    
    19    9   10 ar   
    20    9   14 ar   
    21   10   11 ar   
    22   10   71 1    
    23   11   12 ar   
    24   11   61 1    
    25   12   13 ar   
    26   12   72 1    
    27   13   14 ar   
    28   13   15 1    
    29   14   73 1    
    30   15   16 1    
    31   15   74 1    
    32   15   75 1    
    33   16   17 1    
    34   17   18 1    
    35   17   76 1    
    36   17   77 1    
    37   18   19 1    
    38   18   27 1    
    39   18   78 1    
    40   19   20 am   BACKBONE|DICT|INTERRES
    41   19   79 1    
    42   20   21 2    
    43   20   22 1    
    44   22   23 1    
    45   22   24 1    
    46   22   80 1    
    47   23   81 1    
    48   23   82 1    
    49   23   83 1    
    50   24   25 am   BACKBONE|DICT|INTERRES
    51   24   84 1    
    52   25   26 2    
    53   27   28 2    
    54   27   29 am   BACKBONE|DICT|INTERRES
    55   29   30 1    
    56   29   85 1    
    57   30   31 1    
    58   30   32 1    
    59   30   86 1    
    60   31   87 1    
    61   31   88 1    
    62   31   89 1    
    63   32   33 2    
    64   32   34 am   BACKBONE|DICT|INTERRES
    65   34   35 1    
    66   34   90 1    
    67   35   36 1    
    68   35   37 1    
    69   35   91 1    
    70   36   92 1    
    71   36   93 1    
    72   36   94 1    
    73   37   38 2    
    74   37   39 am   BACKBONE|DICT|INTERRES
    75   39   40 1    
    76   39   95 1    
    77   40   41 1    
    78   40   42 1    
    79   40   96 1    
    80   41   97 1    
    81   41   98 1    
    82   41   99 1    
    83   42   43 2    
    84   42   44 am   BACKBONE|DICT|INTERRES
    85   44   45 1    
    86   44  100 1    
    87   45   46 1    
    88   45   47 1    
    89   45  101 1    
    90   46  102 1    
    91   46  103 1    
    92   46  104 1    
    93   47   48 2    
    94   47   49 am   BACKBONE|DICT|INTERRES
    95   49   50 1    
    96   49  105 1    
    97   50   51 1    
    98   50   52 1    
    99   50  106 1    
   100   51  107 1    
   101   51  108 1    
   102   51  109 1    
   103   52   53 2    
   104   52   54 am   BACKBONE|DICT|INTERRES
   105   54   55 1    
   106   54  110 1    
   107   55   56 1    
   108   55   59 1    
   109   55  111 1    
   110   56   57 am   BACKBONE|DICT|INTERRES
   111   56   58 2    
   112   57  112 1    
   113   57  113 1    
   114   59   60 1    
   115   59  114 1    
   116   59  115 1    
   117   60   61 1    
   118   61  116 1    
   119   61  117 1    
@<TRIPOS>SUBSTRUCTURE
     1 UNK         1 GROUP             0       ****    0 ROOT    
