@<TRIPOS>MOLECULE
3R8
117   119    1
SMALL
USER_CHARGES


@<TRIPOS>ATOM
      1 CA         19.9378  -26.3647  -38.5290 C.3       0 UNK        -0.2013 
      2 C          19.4903  -25.9413  -39.9204 C.2       0 UNK         0.4866 
      3 O          19.1885  -24.7661  -40.1302 O.2       0 UNK        -0.5176 
      4 N          19.4326  -26.8843  -40.8679 N.am      1 UNK        -0.4884 
      5 CA         18.9866  -26.6447  -42.2443 C.3       1 UNK         0.0853 
      6 C6         18.4628  -27.9364  -42.9143 C.3       10 UNK        -0.0849 
      7 S7         17.1216  -28.7532  -41.9746 S.3       10 UNK        -0.2776 
      8 C8         16.3498  -29.8281  -43.2342 C.3       10 UNK         0.0316 
      9 C9         17.3884  -30.6080  -44.0273 C.ar      10 UNK        -0.0863 
     10 C10        18.0029  -31.7351  -43.4808 C.ar      10 UNK        -0.1009 
     11 C11        19.0249  -32.3895  -44.1735 C.ar      10 UNK        -0.0712 
     12 C12        19.4331  -31.9052  -45.4224 C.ar      10 UNK        -0.0894 
     13 C13        18.8276  -30.7733  -45.9830 C.ar      10 UNK        -0.0745 
     14 C14        17.7785  -30.1572  -45.2891 C.ar      10 UNK        -0.0972 
     15 C15        19.3427  -30.2256  -47.3173 C.3       10 UNK         0.0209 
     16 S16        19.0146  -28.4406  -47.5636 S.3       10 UNK        -0.2568 
     17 C17        20.5299  -27.8444  -48.3871 C.3       10 UNK        -0.0983 
     18 CA         21.5446  -27.1670  -47.4272 C.3       3 UNK         0.0876 
     19 N          20.9061  -26.1911  -46.5287 N.am      3 UNK        -0.4424 
     20 C          21.5578  -25.2766  -45.7972 C.2       2 UNK         0.4918 
     21 O          22.7819  -25.1493  -45.7965 O.2       2 UNK        -0.4875 
     22 CA         20.7055  -24.3919  -44.8720 C.3       2 UNK         0.0481 
     23 CB         19.9442  -23.3304  -45.6821 C.3       2 UNK        -0.1831 
     24 N          19.7666  -25.1468  -44.0330 N.am      2 UNK        -0.4498 
     25 C          20.1250  -26.0196  -43.0792 C.2       1 UNK         0.5027 
     26 O          21.2957  -26.3498  -42.8663 O.2       1 UNK        -0.4969 
     27 C          22.4052  -28.2096  -46.6813 C.2       3 UNK         0.5005 
     28 O          23.3209  -28.7776  -47.2780 O.2       3 UNK        -0.5279 
     29 N          22.1169  -28.4200  -45.3908 N.am      4 UNK        -0.4463 
     30 CA         22.8855  -29.2690  -44.4823 C.3       4 UNK         0.0283 
     31 CB         21.9496  -29.7500  -43.3684 C.3       4 UNK        -0.1875 
     32 C          24.1066  -28.5543  -43.8728 C.2       4 UNK         0.4949 
     33 O          24.8646  -29.1991  -43.1488 O.2       4 UNK        -0.5039 
     34 N          24.2653  -27.2492  -44.1486 N.am      5 UNK        -0.4663 
     35 CA         25.2755  -26.3388  -43.5990 C.3       5 UNK         0.0242 
     36 CB         26.6999  -26.7541  -44.0275 C.3       5 UNK        -0.1982 
     37 C          25.1196  -26.1518  -42.0778 C.2       5 UNK         0.5017 
     38 O          26.1067  -26.2210  -41.3433 O.2       5 UNK        -0.5012 
     39 N          23.8717  -25.9086  -41.6481 N.am      6 UNK        -0.4439 
     40 CA         23.4280  -25.6965  -40.2675 C.3       6 UNK         0.0297 
     41 CB         24.0891  -24.4499  -39.6404 C.3       6 UNK        -0.2006 
     42 C          23.5676  -26.9656  -39.4076 C.2       6 UNK         0.4892 
     43 O          24.1545  -26.9217  -38.3248 O.2       6 UNK        -0.5089 
     44 N          22.9984  -28.0688  -39.9048 N.am      7 UNK        -0.4243 
     45 CA         22.8687  -29.3456  -39.2049 C.3       7 UNK         0.0196 
     46 CB         23.8850  -30.3498  -39.7731 C.3       7 UNK        -0.2007 
     47 C          21.4308  -29.8536  -39.3673 C.2       7 UNK         0.5020 
     48 O          20.7287  -29.4174  -40.2829 O.2       7 UNK        -0.5147 
     49 N          21.0057  -30.7374  -38.4569 N.am      8 UNK        -0.4734 
     50 CA         19.6555  -31.3086  -38.4499 C.3       8 UNK         0.0238 
     51 CB         19.2558  -31.6713  -37.0097 C.3       8 UNK        -0.1912 
     52 C          19.5275  -32.5302  -39.3731 C.2       8 UNK         0.5038 
     53 O          18.5174  -32.6416  -40.0669 O.2       8 UNK        -0.5046 
     54 N          20.5432  -33.4116  -39.3453 N.am      9 UNK        -0.4200 
     55 CA         20.6821  -34.6600  -40.1286 C.3       9 UNK         0.0839 
     56 C          19.4300  -35.5905  -40.2007 C.2       9 UNK         0.5513 
     57 N          18.6084  -35.6463  -39.1594 N.am      9 UNK        -0.7519 
     58 O          19.2162  -36.3000  -41.1806 O.2       9 UNK        -0.4960 
     59 C59        21.4591  -34.4880  -41.4748 C.3       10 UNK        -0.0876 
     60 S60        21.0600  -33.0051  -42.4542 S.3       10 UNK        -0.2414 
     61 C61        19.7196  -33.5811  -43.5336 C.3       10 UNK         0.0169 
     62 H62        19.1995  -26.0540  -37.7904 H         1 UNK         0.0903 
     63 H63        20.0536  -27.4440  -38.4482 H         1 UNK         0.0903 
     64 H64        20.8874  -25.8955  -38.2751 H         1 UNK         0.0903 
     65 H65        19.7370  -27.8348  -40.6654 H         1 UNK         0.3096 
     66 H66        18.1611  -25.9298  -42.2110 H         1 UNK         0.1121 
     67 H67        18.0933  -27.7087  -43.9156 H         1 UNK         0.0849 
     68 H68        19.2690  -28.6609  -43.0372 H         1 UNK         0.0849 
     69 H69        15.6651  -30.5204  -42.7422 H         1 UNK         0.0865 
     70 H70        15.7383  -29.2163  -43.8994 H         1 UNK         0.0865 
     71 H71        17.7149  -32.0788  -42.4966 H         1 UNK         0.1346 
     72 H72        20.2454  -32.3939  -45.9429 H         1 UNK         0.1412 
     73 H73        17.2866  -29.2881  -45.7012 H         1 UNK         0.1426 
     74 H74        18.8851  -30.7852  -48.1339 H         1 UNK         0.0716 
     75 H75        20.4172  -30.4028  -47.3818 H         1 UNK         0.0716 
     76 H76        20.2144  -27.1143  -49.1339 H         1 UNK         0.0695 
     77 H77        20.9915  -28.6534  -48.9571 H         1 UNK         0.0695 
     78 H78        22.2459  -26.6063  -48.0499 H         1 UNK         0.0983 
     79 H79        19.8993  -26.2461  -46.4679 H         1 UNK         0.3095 
     80 H80        21.3908  -23.8682  -44.2018 H         1 UNK         0.0454 
     81 H81        20.6271  -22.7515  -46.3057 H         1 UNK         0.0851 
     82 H82        19.4326  -22.6243  -45.0278 H         1 UNK         0.0851 
     83 H83        19.1992  -23.7756  -46.3425 H         1 UNK         0.0851 
     84 H84        18.7865  -24.9344  -44.1554 H         1 UNK         0.2976 
     85 H85        21.3565  -27.8976  -44.9811 H         1 UNK         0.3116 
     86 H86        23.2464  -30.1432  -45.0281 H         1 UNK         0.0646 
     87 H87        21.6296  -28.9319  -42.7259 H         1 UNK         0.0847 
     88 H88        21.0588  -30.2314  -43.7691 H         1 UNK         0.0847 
     89 H89        22.4506  -30.4781  -42.7331 H         1 UNK         0.0847 
     90 H90        23.5841  -26.8079  -44.7557 H         1 UNK         0.3040 
     91 H91        25.0764  -25.3617  -44.0428 H         1 UNK         0.1015 
     92 H92        27.4300  -26.0004  -43.7299 H         1 UNK         0.0786 
     93 H93        26.7717  -26.8646  -45.1095 H         1 UNK         0.0786 
     94 H94        27.0057  -27.6964  -43.5723 H         1 UNK         0.0786 
     95 H95        23.1166  -25.9493  -42.3291 H         1 UNK         0.3172 
     96 H96        22.3605  -25.4881  -40.3335 H         1 UNK         0.0595 
     97 H97        25.1602  -24.5860  -39.4887 H         1 UNK         0.0839 
     98 H98        23.6521  -24.2292  -38.6658 H         1 UNK         0.0839 
     99 H99        23.9472  -23.5683  -40.2654 H         1 UNK         0.0839 
    100 H100       22.4847  -28.0083  -40.7743 H         1 UNK         0.2998 
    101 H101       23.0569  -29.2096  -38.1376 H         1 UNK         0.0822 
    102 H102       23.7316  -30.5241  -40.8374 H         1 UNK         0.0787 
    103 H103       23.8124  -31.3146  -39.2700 H         1 UNK         0.0787 
    104 H104       24.9061  -29.9911  -39.6424 H         1 UNK         0.0787 
    105 H105       21.6359  -31.0318  -37.7242 H         1 UNK         0.3055 
    106 H106       18.9497  -30.5557  -38.8108 H         1 UNK         0.1106 
    107 H107       19.2602  -30.7921  -36.3652 H         1 UNK         0.0828 
    108 H108       18.2475  -32.0869  -36.9790 H         1 UNK         0.0828 
    109 H109       19.9268  -32.4114  -36.5722 H         1 UNK         0.0828 
    110 H110       21.3120  -33.2118  -38.7244 H         1 UNK         0.2931 
    111 H111       21.3521  -35.2584  -39.5097 H         1 UNK         0.0412 
    112 H112       17.8049  -36.2536  -39.1970 H         1 UNK         0.3472 
    113 H113       18.7705  -35.0722  -38.3477 H         1 UNK         0.3472 
    114 H114       22.5221  -34.4076  -41.2433 H         1 UNK         0.0970 
    115 H115       21.3862  -35.3730  -42.1090 H         1 UNK         0.0970 
    116 H116       19.0003  -34.1566  -42.9494 H         1 UNK         0.0612 
    117 H117       20.1212  -34.2524  -44.2938 H         1 UNK         0.0612 
@<TRIPOS>BOND
     1    1    2 1    
     2    1   62 1    
     3    1   63 1    
     4    1   64 1    
     5    2    3 2    
     6    2    4 am   BACKBONE|DICT|INTERRES
     7    4    5 1    
     8    4   65 1    
     9    5    6 1    
    10    5   25 1    
    11    5   66 1    
    12    6    7 1    
    13    6   67 1    
    14    6   68 1    
    15    7    8 1    
    16    8    9 1    
    17    8   69 1    
    18    8   70 1    
    19    9   10 ar   
    20    9   14 ar   
    21   10   11 ar   
    22   10   71 1    
    23   11   12 ar   
    24   11   61 1    
    25   12   13 ar   
    26   12   72 1    
    27   13   14 ar   
    28   13   15 1    
    29   14   73 1    
    30   15   16 1    
    31   15   74 1    
    32   15   75 1    
    33   16   17 1    
    34   17   18 1    
    35   17   76 1    
    36   17   77 1    
    37   18   19 1    
    38   18   27 1    
    39   18   78 1    
    40   19   20 am   BACKBONE|DICT|INTERRES
    41   19   79 1    
    42   20   21 2    
    43   20   22 1    
    44   22   23 1    
    45   22   24 1    
    46   22   80 1    
    47   23   81 1    
    48   23   82 1    
    49   23   83 1    
    50   24   25 am   BACKBONE|DICT|INTERRES
    51   24   84 1    
    52   25   26 2    
    53   27   28 2    
    54   27   29 am   BACKBONE|DICT|INTERRES
    55   29   30 1    
    56   29   85 1    
    57   30   31 1    
    58   30   32 1    
    59   30   86 1    
    60   31   87 1    
    61   31   88 1    
    62   31   89 1    
    63   32   33 2    
    64   32   34 am   BACKBONE|DICT|INTERRES
    65   34   35 1    
    66   34   90 1    
    67   35   36 1    
    68   35   37 1    
    69   35   91 1    
    70   36   92 1    
    71   36   93 1    
    72   36   94 1    
    73   37   38 2    
    74   37   39 am   BACKBONE|DICT|INTERRES
    75   39   40 1    
    76   39   95 1    
    77   40   41 1    
    78   40   42 1    
    79   40   96 1    
    80   41   97 1    
    81   41   98 1    
    82   41   99 1    
    83   42   43 2    
    84   42   44 am   BACKBONE|DICT|INTERRES
    85   44   45 1    
    86   44  100 1    
    87   45   46 1    
    88   45   47 1    
    89   45  101 1    
    90   46  102 1    
    91   46  103 1    
    92   46  104 1    
    93   47   48 2    
    94   47   49 am   BACKBONE|DICT|INTERRES
    95   49   50 1    
    96   49  105 1    
    97   50   51 1    
    98   50   52 1    
    99   50  106 1    
   100   51  107 1    
   101   51  108 1    
   102   51  109 1    
   103   52   53 2    
   104   52   54 am   BACKBONE|DICT|INTERRES
   105   54   55 1    
   106   54  110 1    
   107   55   56 1    
   108   55   59 1    
   109   55  111 1    
   110   56   57 am   BACKBONE|DICT|INTERRES
   111   56   58 2    
   112   57  112 1    
   113   57  113 1    
   114   59   60 1    
   115   59  114 1    
   116   59  115 1    
   117   60   61 1    
   118   61  116 1    
   119   61  117 1    
@<TRIPOS>SUBSTRUCTURE
     1 UNK         1 GROUP             0       ****    0 ROOT    
