@<TRIPOS>MOLECULE
3R8
117   119    1
SMALL
USER_CHARGES


@<TRIPOS>ATOM
      1 CA         18.2622  -29.2235  -40.4293 C.3       0 UNK        -0.2013 
      2 C          18.1567  -27.8593  -41.0898 C.2       0 UNK         0.4866 
      3 O          18.3564  -26.8412  -40.4267 O.2       0 UNK        -0.5176 
      4 N          17.8239  -27.8279  -42.3852 N.am      1 UNK        -0.4884 
      5 CA         17.6991  -26.5958  -43.1746 C.3       1 UNK         0.0853 
      6 C6         16.6518  -26.7143  -44.3171 C.3       10 UNK        -0.0849 
      7 S7         15.1124  -27.5783  -43.8064 S.3       10 UNK        -0.2776 
      8 C8         14.9422  -28.9754  -44.9770 C.3       10 UNK         0.0316 
      9 C9         16.2274  -29.7739  -45.1549 C.ar      10 UNK        -0.0863 
     10 C10        16.5937  -30.7777  -44.2542 C.ar      10 UNK        -0.1009 
     11 C11        17.7965  -31.4727  -44.4264 C.ar      10 UNK        -0.0712 
     12 C12        18.6542  -31.1220  -45.4765 C.ar      10 UNK        -0.0894 
     13 C13        18.3077  -30.1059  -46.3732 C.ar      10 UNK        -0.0745 
     14 C14        17.0608  -29.4882  -46.2365 C.ar      10 UNK        -0.0972 
     15 C15        19.2928  -29.6691  -47.4602 C.3       10 UNK         0.0209 
     16 S16        19.1519  -27.8896  -47.8639 S.3       10 UNK        -0.2568 
     17 C17        20.8419  -27.4132  -48.3586 C.3       10 UNK        -0.0983 
     18 CA         21.6932  -26.7917  -47.2145 C.3       3 UNK         0.0876 
     19 N          20.9073  -25.9097  -46.3433 N.am      3 UNK        -0.4424 
     20 C          21.4098  -24.9776  -45.5260 C.2       2 UNK         0.4918 
     21 O          22.6057  -24.6882  -45.4808 O.2       2 UNK        -0.4875 
     22 CA         20.4240  -24.2327  -44.5993 C.3       2 UNK         0.0481 
     23 CB         20.0675  -22.8648  -45.2038 C.3       2 UNK        -0.1831 
     24 N          19.1793  -24.9347  -44.2395 N.am      2 UNK        -0.4498 
     25 C          19.0900  -26.1566  -43.6917 C.2       1 UNK         0.5027 
     26 O          20.0526  -26.9205  -43.5923 O.2       1 UNK        -0.4969 
     27 C          22.4791  -27.8771  -46.4465 C.2       3 UNK         0.5005 
     28 O          23.4619  -28.3859  -46.9898 O.2       3 UNK        -0.5279 
     29 N          22.0531  -28.2326  -45.2259 N.am      4 UNK        -0.4463 
     30 CA         22.7249  -29.2252  -44.3897 C.3       4 UNK         0.0283 
     31 CB         21.7182  -29.8266  -43.4025 C.3       4 UNK        -0.1875 
     32 C          23.8991  -28.5873  -43.6390 C.2       4 UNK         0.4949 
     33 O          23.7243  -27.5422  -43.0073 O.2       4 UNK        -0.5039 
     34 N          25.0638  -29.2470  -43.6922 N.am      5 UNK        -0.4663 
     35 CA         26.2948  -28.8436  -43.0083 C.3       5 UNK         0.0242 
     36 CB         27.4247  -29.8207  -43.3730 C.3       5 UNK        -0.1982 
     37 C          26.0904  -28.7835  -41.4867 C.2       5 UNK         0.5017 
     38 O          25.7874  -29.8117  -40.8786 O.2       5 UNK        -0.5012 
     39 N          26.1934  -27.5713  -40.9223 N.am      6 UNK        -0.4439 
     40 CA         25.9712  -27.2283  -39.5101 C.3       6 UNK         0.0297 
     41 CB         27.0955  -27.8224  -38.6343 C.3       6 UNK        -0.2006 
     42 C          24.5661  -27.5911  -38.9767 C.2       6 UNK         0.4892 
     43 O          24.4061  -27.7311  -37.7631 O.2       6 UNK        -0.5089 
     44 N          23.5841  -27.7498  -39.8823 N.am      7 UNK        -0.4243 
     45 CA         22.2146  -28.2185  -39.6285 C.3       7 UNK         0.0196 
     46 CB         21.4192  -27.1668  -38.8263 C.3       7 UNK        -0.2007 
     47 C          22.1547  -29.6248  -38.9904 C.2       7 UNK         0.5020 
     48 O          21.2390  -29.9030  -38.2146 O.2       7 UNK        -0.5147 
     49 N          23.1302  -30.4892  -39.3167 N.am      8 UNK        -0.4734 
     50 CA         23.3617  -31.7926  -38.6763 C.3       8 UNK         0.0238 
     51 CB         24.6274  -32.4319  -39.2695 C.3       8 UNK        -0.1912 
     52 C          22.1883  -32.7888  -38.7245 C.2       8 UNK         0.5038 
     53 O          22.0878  -33.6297  -37.8297 O.2       8 UNK        -0.5046 
     54 N          21.3293  -32.6818  -39.7456 N.am      9 UNK        -0.4200 
     55 CA         20.0884  -33.4617  -39.8730 C.3       9 UNK         0.0839 
     56 C          18.9146  -32.9766  -38.9696 C.2       9 UNK         0.5513 
     57 N          19.0305  -31.8653  -38.2512 N.am      9 UNK        -0.7519 
     58 O          17.8811  -33.6375  -38.9057 O.2       9 UNK        -0.4960 
     59 C59        19.6711  -33.6389  -41.3561 C.3       10 UNK        -0.0876 
     60 S60        19.3530  -32.0659  -42.2216 S.3       10 UNK        -0.2414 
     61 C61        18.1693  -32.6088  -43.4861 C.3       10 UNK         0.0169 
     62 H62        19.2975  -29.5617  -40.4271 H         1 UNK         0.0903 
     63 H63        17.9200  -29.1749  -39.3959 H         1 UNK         0.0903 
     64 H64        17.6554  -29.9658  -40.9472 H         1 UNK         0.0903 
     65 H65        17.6920  -28.6880  -42.8993 H         1 UNK         0.3096 
     66 H66        17.3502  -25.8051  -42.5062 H         1 UNK         0.1121 
     67 H67        16.3643  -25.7170  -44.6540 H         1 UNK         0.0849 
     68 H68        17.0900  -27.1842  -45.1923 H         1 UNK         0.0849 
     69 H69        14.1482  -29.6352  -44.6243 H         1 UNK         0.0865 
     70 H70        14.6017  -28.5878  -45.9386 H         1 UNK         0.0865 
     71 H71        15.9418  -31.0207  -43.4260 H         1 UNK         0.1346 
     72 H72        19.5995  -31.6359  -45.5856 H         1 UNK         0.1412 
     73 H73        16.7557  -28.7259  -46.9394 H         1 UNK         0.1426 
     74 H74        19.1223  -30.2576  -48.3623 H         1 UNK         0.0716 
     75 H75        20.3118  -29.8798  -47.1329 H         1 UNK         0.0716 
     76 H76        20.7308  -26.6695  -49.1491 H         1 UNK         0.0695 
     77 H77        21.3429  -28.2591  -48.8344 H         1 UNK         0.0695 
     78 H78        22.4561  -26.1704  -47.6896 H         1 UNK         0.0983 
     79 H79        19.9140  -26.0907  -46.3251 H         1 UNK         0.3095 
     80 H80        20.9575  -24.0542  -43.6636 H         1 UNK         0.0454 
     81 H81        19.4934  -22.2563  -44.5048 H         1 UNK         0.0851 
     82 H82        19.4838  -22.9689  -46.1192 H         1 UNK         0.0851 
     83 H83        20.9666  -22.2998  -45.4543 H         1 UNK         0.0851 
     84 H84        18.3358  -24.3833  -44.3084 H         1 UNK         0.2976 
     85 H85        21.2884  -27.7218  -44.7897 H         1 UNK         0.3116 
     86 H86        23.0947  -30.0347  -45.0230 H         1 UNK         0.0646 
     87 H87        20.8914  -30.2929  -43.9342 H         1 UNK         0.0847 
     88 H88        22.1835  -30.5921  -42.7806 H         1 UNK         0.0847 
     89 H89        21.2968  -29.0729  -42.7387 H         1 UNK         0.0847 
     90 H90        25.1057  -30.1108  -44.2138 H         1 UNK         0.3040 
     91 H91        26.5699  -27.8519  -43.3740 H         1 UNK         0.1015 
     92 H92        28.3574  -29.5378  -42.8828 H         1 UNK         0.0786 
     93 H93        27.6137  -29.8280  -44.4467 H         1 UNK         0.0786 
     94 H94        27.1925  -30.8413  -43.0652 H         1 UNK         0.0786 
     95 H95        26.3963  -26.7863  -41.5269 H         1 UNK         0.3172 
     96 H96        26.0427  -26.1416  -39.4476 H         1 UNK         0.0595 
     97 H97        27.0424  -28.9110  -38.5938 H         1 UNK         0.0839 
     98 H98        27.0316  -27.4563  -37.6089 H         1 UNK         0.0839 
     99 H99        28.0807  -27.5483  -39.0113 H         1 UNK         0.0839 
    100 H100       23.8156  -27.6025  -40.8597 H         1 UNK         0.2998 
    101 H101       21.7377  -28.3089  -40.6041 H         1 UNK         0.0822 
    102 H102       20.3759  -27.4638  -38.7163 H         1 UNK         0.0787 
    103 H103       21.4251  -26.1991  -39.3277 H         1 UNK         0.0787 
    104 H104       21.8211  -27.0303  -37.8222 H         1 UNK         0.0787 
    105 H105       23.8634  -30.1700  -39.9414 H         1 UNK         0.3055 
    106 H106       23.5499  -31.5931  -37.6191 H         1 UNK         0.1106 
    107 H107       25.5076  -31.8180  -39.0775 H         1 UNK         0.0828 
    108 H108       24.8195  -33.4113  -38.8289 H         1 UNK         0.0828 
    109 H109       24.5426  -32.5685  -40.3483 H         1 UNK         0.0828 
    110 H110       21.4689  -31.9512  -40.4267 H         1 UNK         0.2931 
    111 H111       20.3127  -34.4673  -39.5116 H         1 UNK         0.0412 
    112 H112       18.2628  -31.5806  -37.6650 H         1 UNK         0.3472 
    113 H113       19.8733  -31.2999  -38.2839 H         1 UNK         0.3472 
    114 H114       20.4576  -34.1672  -41.8969 H         1 UNK         0.0970 
    115 H115       18.7891  -34.2786  -41.4247 H         1 UNK         0.0970 
    116 H116       18.6039  -33.4299  -44.0583 H         1 UNK         0.0612 
    117 H117       17.2782  -33.0070  -42.9980 H         1 UNK         0.0612 
@<TRIPOS>BOND
     1    1    2 1    
     2    1   62 1    
     3    1   63 1    
     4    1   64 1    
     5    2    3 2    
     6    2    4 am   BACKBONE|DICT|INTERRES
     7    4    5 1    
     8    4   65 1    
     9    5    6 1    
    10    5   25 1    
    11    5   66 1    
    12    6    7 1    
    13    6   67 1    
    14    6   68 1    
    15    7    8 1    
    16    8    9 1    
    17    8   69 1    
    18    8   70 1    
    19    9   10 ar   
    20    9   14 ar   
    21   10   11 ar   
    22   10   71 1    
    23   11   12 ar   
    24   11   61 1    
    25   12   13 ar   
    26   12   72 1    
    27   13   14 ar   
    28   13   15 1    
    29   14   73 1    
    30   15   16 1    
    31   15   74 1    
    32   15   75 1    
    33   16   17 1    
    34   17   18 1    
    35   17   76 1    
    36   17   77 1    
    37   18   19 1    
    38   18   27 1    
    39   18   78 1    
    40   19   20 am   BACKBONE|DICT|INTERRES
    41   19   79 1    
    42   20   21 2    
    43   20   22 1    
    44   22   23 1    
    45   22   24 1    
    46   22   80 1    
    47   23   81 1    
    48   23   82 1    
    49   23   83 1    
    50   24   25 am   BACKBONE|DICT|INTERRES
    51   24   84 1    
    52   25   26 2    
    53   27   28 2    
    54   27   29 am   BACKBONE|DICT|INTERRES
    55   29   30 1    
    56   29   85 1    
    57   30   31 1    
    58   30   32 1    
    59   30   86 1    
    60   31   87 1    
    61   31   88 1    
    62   31   89 1    
    63   32   33 2    
    64   32   34 am   BACKBONE|DICT|INTERRES
    65   34   35 1    
    66   34   90 1    
    67   35   36 1    
    68   35   37 1    
    69   35   91 1    
    70   36   92 1    
    71   36   93 1    
    72   36   94 1    
    73   37   38 2    
    74   37   39 am   BACKBONE|DICT|INTERRES
    75   39   40 1    
    76   39   95 1    
    77   40   41 1    
    78   40   42 1    
    79   40   96 1    
    80   41   97 1    
    81   41   98 1    
    82   41   99 1    
    83   42   43 2    
    84   42   44 am   BACKBONE|DICT|INTERRES
    85   44   45 1    
    86   44  100 1    
    87   45   46 1    
    88   45   47 1    
    89   45  101 1    
    90   46  102 1    
    91   46  103 1    
    92   46  104 1    
    93   47   48 2    
    94   47   49 am   BACKBONE|DICT|INTERRES
    95   49   50 1    
    96   49  105 1    
    97   50   51 1    
    98   50   52 1    
    99   50  106 1    
   100   51  107 1    
   101   51  108 1    
   102   51  109 1    
   103   52   53 2    
   104   52   54 am   BACKBONE|DICT|INTERRES
   105   54   55 1    
   106   54  110 1    
   107   55   56 1    
   108   55   59 1    
   109   55  111 1    
   110   56   57 am   BACKBONE|DICT|INTERRES
   111   56   58 2    
   112   57  112 1    
   113   57  113 1    
   114   59   60 1    
   115   59  114 1    
   116   59  115 1    
   117   60   61 1    
   118   61  116 1    
   119   61  117 1    
@<TRIPOS>SUBSTRUCTURE
     1 UNK         1 GROUP             0       ****    0 ROOT    
