@<TRIPOS>MOLECULE
3R8
117   119    1
SMALL
USER_CHARGES


@<TRIPOS>ATOM
      1 CA         18.1046  -22.8115  -49.7440 C.3       0 UNK        -0.2013 
      2 C          18.9678  -23.7622  -48.9275 C.2       0 UNK         0.4866 
      3 O          20.1841  -23.5804  -48.8599 O.2       0 UNK        -0.5176 
      4 N          18.3504  -24.7792  -48.3151 N.am      1 UNK        -0.4884 
      5 CA         19.0044  -25.7440  -47.4254 C.3       1 UNK         0.0853 
      6 C6         18.2139  -27.0794  -47.3554 C.3       10 UNK        -0.0849 
      7 S7         16.5079  -26.9101  -46.7219 S.3       10 UNK        -0.2776 
      8 C8         15.9773  -28.6499  -46.6655 C.3       10 UNK         0.0316 
      9 C9         16.5484  -29.4001  -45.4682 C.ar      10 UNK        -0.0863 
     10 C10        17.6193  -30.2858  -45.6299 C.ar      10 UNK        -0.1009 
     11 C11        18.0884  -31.0411  -44.5494 C.ar      10 UNK        -0.0712 
     12 C12        17.4719  -30.9029  -43.3023 C.ar      10 UNK        -0.0894 
     13 C13        16.4269  -29.9936  -43.1144 C.ar      10 UNK        -0.0745 
     14 C14        15.9674  -29.2480  -44.2048 C.ar      10 UNK        -0.0972 
     15 C15        15.7559  -29.8504  -41.7512 C.3       10 UNK         0.0209 
     16 S16        16.9355  -29.7071  -40.3639 S.3       10 UNK        -0.2568 
     17 C17        17.7089  -28.0850  -40.6807 C.3       10 UNK        -0.0983 
     18 CA         19.2189  -28.1896  -41.0281 C.3       3 UNK         0.0876 
     19 N          19.6413  -27.0279  -41.8106 N.am      3 UNK        -0.4424 
     20 C          19.9117  -27.0510  -43.1182 C.2       2 UNK         0.4918 
     21 O          19.9183  -28.0739  -43.8059 O.2       2 UNK        -0.4875 
     22 CA         20.1975  -25.6971  -43.7854 C.3       2 UNK         0.0481 
     23 CB         21.6213  -25.2045  -43.4929 C.3       2 UNK        -0.1831 
     24 N          20.0381  -25.8815  -45.2235 N.am      2 UNK        -0.4498 
     25 C          19.2579  -25.1495  -46.0216 C.2       1 UNK         0.5027 
     26 O          18.7249  -24.0900  -45.6782 O.2       1 UNK        -0.4969 
     27 C          20.1013  -28.3186  -39.7701 C.2       3 UNK         0.5005 
     28 O          20.8005  -27.3694  -39.4011 O.2       3 UNK        -0.5279 
     29 N          20.0165  -29.4875  -39.1175 N.am      4 UNK        -0.4463 
     30 CA         20.7700  -29.9059  -37.9319 C.3       4 UNK         0.0283 
     31 CB         20.4200  -29.0299  -36.7061 C.3       4 UNK        -0.1875 
     32 C          22.2749  -30.0164  -38.2391 C.2       4 UNK         0.4949 
     33 O          22.6392  -30.7352  -39.1709 O.2       4 UNK        -0.5039 
     34 N          23.1262  -29.3450  -37.4519 N.am      5 UNK        -0.4663 
     35 CA         24.5824  -29.3481  -37.6237 C.3       5 UNK         0.0242 
     36 CB         25.2430  -28.6934  -36.4001 C.3       5 UNK        -0.1982 
     37 C          25.0399  -28.6579  -38.9197 C.2       5 UNK         0.5017 
     38 O          26.0362  -29.0789  -39.5097 O.2       5 UNK        -0.5012 
     39 N          24.2976  -27.6295  -39.3519 N.am      6 UNK        -0.4439 
     40 CA         24.5084  -26.9426  -40.6233 C.3       6 UNK         0.0297 
     41 CB         23.7437  -25.6127  -40.6178 C.3       6 UNK        -0.2006 
     42 C          24.0696  -27.8493  -41.7834 C.2       6 UNK         0.4892 
     43 O          22.9937  -28.4437  -41.7173 O.2       6 UNK        -0.5089 
     44 N          24.9448  -27.9775  -42.7903 N.am      7 UNK        -0.4243 
     45 CA         24.8680  -28.9145  -43.9235 C.3       7 UNK         0.0196 
     46 CB         23.6195  -28.6484  -44.7932 C.3       7 UNK        -0.2007 
     47 C          24.9962  -30.4047  -43.5307 C.2       7 UNK         0.5020 
     48 O          24.8692  -31.2623  -44.4052 O.2       7 UNK        -0.5147 
     49 N          25.2786  -30.6895  -42.2479 N.am      8 UNK        -0.4734 
     50 CA         25.4534  -32.0121  -41.6331 C.3       8 UNK         0.0238 
     51 CB         26.7612  -32.6665  -42.1275 C.3       8 UNK        -0.1912 
     52 C          24.2285  -32.9396  -41.7776 C.2       8 UNK         0.5038 
     53 O          24.3950  -34.1558  -41.8942 O.2       8 UNK        -0.5046 
     54 N          23.0237  -32.3556  -41.7682 N.am      9 UNK        -0.4200 
     55 CA         21.7476  -33.0821  -41.8481 C.3       9 UNK         0.0839 
     56 C          21.3988  -33.8854  -40.5637 C.2       9 UNK         0.5513 
     57 N          21.8481  -33.4692  -39.3872 N.am      9 UNK        -0.7519 
     58 O          20.7132  -34.9015  -40.6411 O.2       9 UNK        -0.4960 
     59 C59        20.5807  -32.1437  -42.2388 C.3       10 UNK        -0.0876 
     60 S60        20.7705  -31.4693  -43.9257 S.3       10 UNK        -0.2414 
     61 C61        19.2367  -32.0261  -44.7400 C.3       10 UNK         0.0169 
     62 H62        17.0536  -23.0994  -49.7281 H         1 UNK         0.0903 
     63 H63        18.1846  -21.7994  -49.3483 H         1 UNK         0.0903 
     64 H64        18.4371  -22.7993  -50.7816 H         1 UNK         0.0903 
     65 H65        17.3447  -24.8624  -48.3684 H         1 UNK         0.3096 
     66 H66        19.9870  -25.9696  -47.8473 H         1 UNK         0.1121 
     67 H67        18.7453  -27.8084  -46.7409 H         1 UNK         0.0849 
     68 H68        18.1633  -27.5214  -48.3518 H         1 UNK         0.0849 
     69 H69        14.8876  -28.6793  -46.6176 H         1 UNK         0.0865 
     70 H70        16.2474  -29.1461  -47.5991 H         1 UNK         0.0865 
     71 H71        18.0757  -30.4021  -46.6033 H         1 UNK         0.1346 
     72 H72        17.8056  -31.4980  -42.4668 H         1 UNK         0.1412 
     73 H73        15.1414  -28.5613  -44.0787 H         1 UNK         0.1426 
     74 H74        15.1275  -30.7258  -41.5829 H         1 UNK         0.0716 
     75 H75        15.0894  -28.9866  -41.7343 H         1 UNK         0.0716 
     76 H76        17.5422  -27.4356  -39.8190 H         1 UNK         0.0695 
     77 H77        17.1705  -27.6150  -41.5056 H         1 UNK         0.0695 
     78 H78        19.3841  -29.0929  -41.6201 H         1 UNK         0.0983 
     79 H79        19.7543  -26.1731  -41.2843 H         1 UNK         0.3095 
     80 H80        19.4766  -24.9681  -43.4095 H         1 UNK         0.0454 
     81 H81        22.3657  -25.9820  -43.6661 H         1 UNK         0.0851 
     82 H82        21.7030  -24.8865  -42.4553 H         1 UNK         0.0851 
     83 H83        21.8815  -24.3451  -44.1109 H         1 UNK         0.0851 
     84 H84        20.3551  -26.7862  -45.5478 H         1 UNK         0.2976 
     85 H85        19.3841  -30.1824  -39.4903 H         1 UNK         0.3116 
     86 H86        20.4386  -30.9212  -37.7086 H         1 UNK         0.0646 
     87 H87        20.7415  -27.9950  -36.8265 H         1 UNK         0.0847 
     88 H88        20.8814  -29.4191  -35.7976 H         1 UNK         0.0847 
     89 H89        19.3440  -29.0183  -36.5317 H         1 UNK         0.0847 
     90 H90        22.7519  -28.7829  -36.7012 H         1 UNK         0.3040 
     91 H91        24.9129  -30.3881  -37.6766 H         1 UNK         0.1015 
     92 H92        24.9355  -27.6535  -36.2814 H         1 UNK         0.0786 
     93 H93        26.3300  -28.7031  -36.4929 H         1 UNK         0.0786 
     94 H94        24.9937  -29.2254  -35.4819 H         1 UNK         0.0786 
     95 H95        23.4373  -27.4228  -38.8631 H         1 UNK         0.3172 
     96 H96        25.5734  -26.7203  -40.7204 H         1 UNK         0.0595 
     97 H97        23.9192  -25.0608  -41.5416 H         1 UNK         0.0839 
     98 H98        24.0654  -24.9737  -39.7953 H         1 UNK         0.0839 
     99 H99        22.6695  -25.7693  -40.5176 H         1 UNK         0.0839 
    100 H100       25.8052  -27.4490  -42.7342 H         1 UNK         0.2998 
    101 H101       25.7420  -28.7015  -44.5407 H         1 UNK         0.0822 
    102 H102       23.6378  -29.2541  -45.6999 H         1 UNK         0.0787 
    103 H103       22.6953  -28.8910  -44.2677 H         1 UNK         0.0787 
    104 H104       23.5666  -27.6058  -45.1047 H         1 UNK         0.0787 
    105 H105       25.3631  -29.9107  -41.6067 H         1 UNK         0.3055 
    106 H106       25.5595  -31.8335  -40.5615 H         1 UNK         0.1106 
    107 H107       26.9728  -33.5853  -41.5793 H         1 UNK         0.0828 
    108 H108       26.7084  -32.9242  -43.1857 H         1 UNK         0.0828 
    109 H109       27.6149  -32.0041  -41.9849 H         1 UNK         0.0828 
    110 H110       22.9668  -31.3550  -41.6354 H         1 UNK         0.2931 
    111 H111       21.8486  -33.8207  -42.6463 H         1 UNK         0.0412 
    112 H112       21.6313  -33.9950  -38.5559 H         1 UNK         0.3472 
    113 H113       22.3400  -32.5822  -39.3213 H         1 UNK         0.3472 
    114 H114       20.5067  -31.3129  -41.5358 H         1 UNK         0.0970 
    115 H115       19.6373  -32.6864  -42.1740 H         1 UNK         0.0970 
    116 H116       19.4482  -32.1523  -45.8027 H         1 UNK         0.0612 
    117 H117       18.9486  -33.0126  -44.3745 H         1 UNK         0.0612 
@<TRIPOS>BOND
     1    1    2 1    
     2    1   62 1    
     3    1   63 1    
     4    1   64 1    
     5    2    3 2    
     6    2    4 am   BACKBONE|DICT|INTERRES
     7    4    5 1    
     8    4   65 1    
     9    5    6 1    
    10    5   25 1    
    11    5   66 1    
    12    6    7 1    
    13    6   67 1    
    14    6   68 1    
    15    7    8 1    
    16    8    9 1    
    17    8   69 1    
    18    8   70 1    
    19    9   10 ar   
    20    9   14 ar   
    21   10   11 ar   
    22   10   71 1    
    23   11   12 ar   
    24   11   61 1    
    25   12   13 ar   
    26   12   72 1    
    27   13   14 ar   
    28   13   15 1    
    29   14   73 1    
    30   15   16 1    
    31   15   74 1    
    32   15   75 1    
    33   16   17 1    
    34   17   18 1    
    35   17   76 1    
    36   17   77 1    
    37   18   19 1    
    38   18   27 1    
    39   18   78 1    
    40   19   20 am   BACKBONE|DICT|INTERRES
    41   19   79 1    
    42   20   21 2    
    43   20   22 1    
    44   22   23 1    
    45   22   24 1    
    46   22   80 1    
    47   23   81 1    
    48   23   82 1    
    49   23   83 1    
    50   24   25 am   BACKBONE|DICT|INTERRES
    51   24   84 1    
    52   25   26 2    
    53   27   28 2    
    54   27   29 am   BACKBONE|DICT|INTERRES
    55   29   30 1    
    56   29   85 1    
    57   30   31 1    
    58   30   32 1    
    59   30   86 1    
    60   31   87 1    
    61   31   88 1    
    62   31   89 1    
    63   32   33 2    
    64   32   34 am   BACKBONE|DICT|INTERRES
    65   34   35 1    
    66   34   90 1    
    67   35   36 1    
    68   35   37 1    
    69   35   91 1    
    70   36   92 1    
    71   36   93 1    
    72   36   94 1    
    73   37   38 2    
    74   37   39 am   BACKBONE|DICT|INTERRES
    75   39   40 1    
    76   39   95 1    
    77   40   41 1    
    78   40   42 1    
    79   40   96 1    
    80   41   97 1    
    81   41   98 1    
    82   41   99 1    
    83   42   43 2    
    84   42   44 am   BACKBONE|DICT|INTERRES
    85   44   45 1    
    86   44  100 1    
    87   45   46 1    
    88   45   47 1    
    89   45  101 1    
    90   46  102 1    
    91   46  103 1    
    92   46  104 1    
    93   47   48 2    
    94   47   49 am   BACKBONE|DICT|INTERRES
    95   49   50 1    
    96   49  105 1    
    97   50   51 1    
    98   50   52 1    
    99   50  106 1    
   100   51  107 1    
   101   51  108 1    
   102   51  109 1    
   103   52   53 2    
   104   52   54 am   BACKBONE|DICT|INTERRES
   105   54   55 1    
   106   54  110 1    
   107   55   56 1    
   108   55   59 1    
   109   55  111 1    
   110   56   57 am   BACKBONE|DICT|INTERRES
   111   56   58 2    
   112   57  112 1    
   113   57  113 1    
   114   59   60 1    
   115   59  114 1    
   116   59  115 1    
   117   60   61 1    
   118   61  116 1    
   119   61  117 1    
@<TRIPOS>SUBSTRUCTURE
     1 UNK         1 GROUP             0       ****    0 ROOT    
