@<TRIPOS>MOLECULE
3R8
117   119    1
SMALL
USER_CHARGES


@<TRIPOS>ATOM
      1 CA         14.7911  -25.9983  -47.2261 C.3       0 UNK        -0.2013 
      2 C          16.2138  -25.4739  -47.3490 C.2       0 UNK         0.4866 
      3 O          16.6204  -25.0522  -48.4320 O.2       0 UNK        -0.5176 
      4 N          16.9711  -25.4976  -46.2486 N.am      1 UNK        -0.4884 
      5 CA         18.3449  -25.0058  -46.1440 C.3       1 UNK         0.0853 
      6 C6         19.3841  -25.9134  -46.8717 C.3       10 UNK        -0.0849 
      7 S7         19.7889  -27.4701  -46.0103 S.3       10 UNK        -0.2776 
      8 C8         18.5814  -28.6319  -46.7136 C.3       10 UNK         0.0316 
      9 C9         18.2699  -29.7304  -45.7107 C.ar      10 UNK        -0.0863 
     10 C10        18.7599  -31.0283  -45.8887 C.ar      10 UNK        -0.1009 
     11 C11        18.4773  -32.0276  -44.9504 C.ar      10 UNK        -0.0712 
     12 C12        17.6947  -31.7183  -43.8338 C.ar      10 UNK        -0.0894 
     13 C13        17.2200  -30.4192  -43.6352 C.ar      10 UNK        -0.0745 
     14 C14        17.4970  -29.4340  -44.5850 C.ar      10 UNK        -0.0972 
     15 C15        16.4149  -30.0834  -42.3903 C.3       10 UNK         0.0209 
     16 S16        17.4983  -29.7373  -40.9671 S.3       10 UNK        -0.2568 
     17 C17        18.0813  -28.0394  -41.3118 C.3       10 UNK        -0.0983 
     18 CA         19.6313  -27.9234  -41.4129 C.3       3 UNK         0.0876 
     19 N          20.0323  -26.7630  -42.2254 N.am      3 UNK        -0.4424 
     20 C          19.8934  -25.4707  -41.8840 C.2       2 UNK         0.4918 
     21 O          19.3959  -25.0782  -40.8283 O.2       2 UNK        -0.4875 
     22 CA         20.3860  -24.4261  -42.9026 C.3       2 UNK         0.0481 
     23 CB         21.9202  -24.3461  -42.8906 C.3       2 UNK        -0.1831 
     24 N          19.9181  -24.6658  -44.2709 N.am      2 UNK        -0.4498 
     25 C          18.6334  -24.7070  -44.6553 C.2       1 UNK         0.5027 
     26 O          17.6866  -24.5176  -43.8855 O.2       1 UNK        -0.4969 
     27 C          20.3428  -27.9240  -40.0328 C.2       3 UNK         0.5005 
     28 O          19.6908  -28.0714  -38.9953 O.2       3 UNK        -0.5279 
     29 N          21.6604  -27.6807  -40.0313 N.am      4 UNK        -0.4463 
     30 CA         22.4561  -27.4369  -38.8282 C.3       4 UNK         0.0283 
     31 CB         22.3609  -25.9444  -38.4396 C.3       4 UNK        -0.1875 
     32 C          23.8835  -27.9496  -39.0578 C.2       4 UNK         0.4949 
     33 O          24.0494  -29.1333  -39.3478 O.2       4 UNK        -0.5039 
     34 N          24.8912  -27.0723  -38.9291 N.am      5 UNK        -0.4663 
     35 CA         26.2980  -27.3761  -39.2238 C.3       5 UNK         0.0242 
     36 CB         27.1876  -26.2186  -38.7426 C.3       5 UNK        -0.1982 
     37 C          26.5335  -27.6631  -40.7174 C.2       5 UNK         0.5017 
     38 O          27.3391  -28.5324  -41.0515 O.2       5 UNK        -0.5012 
     39 N          25.7859  -26.9563  -41.5740 N.am      6 UNK        -0.4439 
     40 CA         25.5651  -27.3097  -42.9711 C.3       6 UNK         0.0297 
     41 CB         25.4823  -26.0315  -43.8203 C.3       6 UNK        -0.2006 
     42 C          24.2561  -28.1071  -43.0370 C.2       6 UNK         0.4892 
     43 O          23.2658  -27.6869  -42.4297 O.2       6 UNK        -0.5089 
     44 N          24.2909  -29.2347  -43.7601 N.am      7 UNK        -0.4243 
     45 CA         23.2321  -30.2454  -43.8645 C.3       7 UNK         0.0196 
     46 CB         21.9896  -29.6841  -44.5776 C.3       7 UNK        -0.2007 
     47 C          22.9025  -30.8702  -42.4979 C.2       7 UNK         0.5020 
     48 O          21.7745  -30.7664  -42.0117 O.2       7 UNK        -0.5147 
     49 N          23.9067  -31.5264  -41.9024 N.am      8 UNK        -0.4734 
     50 CA         23.8137  -32.2467  -40.6277 C.3       8 UNK         0.0238 
     51 CB         25.2295  -32.4025  -40.0408 C.3       8 UNK        -0.1912 
     52 C          23.0773  -33.5948  -40.7770 C.2       8 UNK         0.5038 
     53 O          23.6365  -34.6477  -40.4642 O.2       8 UNK        -0.5046 
     54 N          21.8425  -33.5320  -41.2845 N.am      9 UNK        -0.4200 
     55 CA         20.9613  -34.6727  -41.5703 C.3       9 UNK         0.0839 
     56 C          20.3404  -35.3458  -40.3115 C.2       9 UNK         0.5513 
     57 N          20.4395  -34.7638  -39.1222 N.am      9 UNK        -0.7519 
     58 O          19.7604  -36.4233  -40.4180 O.2       9 UNK        -0.4960 
     59 C59        19.8595  -34.2786  -42.5877 C.3       10 UNK        -0.0876 
     60 S60        20.5364  -33.7351  -44.1955 S.3       10 UNK        -0.2414 
     61 C61        19.0115  -33.4399  -45.1485 C.3       10 UNK         0.0169 
     62 H62        14.5717  -26.3503  -46.2182 H         1 UNK         0.0903 
     63 H63        14.0784  -25.2122  -47.4738 H         1 UNK         0.0903 
     64 H64        14.6369  -26.8283  -47.9152 H         1 UNK         0.0903 
     65 H65        16.5730  -25.7703  -45.3585 H         1 UNK         0.3096 
     66 H66        18.3677  -24.0298  -46.6343 H         1 UNK         0.1121 
     67 H67        20.3166  -25.3634  -47.0068 H         1 UNK         0.0849 
     68 H68        19.0505  -26.1430  -47.8846 H         1 UNK         0.0849 
     69 H69        17.6581  -28.1130  -46.9710 H         1 UNK         0.0865 
     70 H70        18.9748  -29.0446  -47.6436 H         1 UNK         0.0865 
     71 H71        19.3689  -31.2594  -46.7520 H         1 UNK         0.1346 
     72 H72        17.4631  -32.4841  -43.1077 H         1 UNK         0.1412 
     73 H73        17.1300  -28.4272  -44.4420 H         1 UNK         0.1426 
     74 H74        15.7658  -30.9237  -42.1395 H         1 UNK         0.0716 
     75 H75        15.7538  -29.2340  -42.5696 H         1 UNK         0.0716 
     76 H76        17.6293  -27.7050  -42.2455 H         1 UNK         0.0695 
     77 H77        17.6835  -27.3667  -40.5499 H         1 UNK         0.0695 
     78 H78        19.9989  -28.7990  -41.9502 H         1 UNK         0.0983 
     79 H79        20.4696  -26.9780  -43.1102 H         1 UNK         0.3095 
     80 H80        19.9974  -23.4541  -42.5916 H         1 UNK         0.0454 
     81 H81        22.3693  -25.2652  -43.2660 H         1 UNK         0.0851 
     82 H82        22.2977  -24.1877  -41.8794 H         1 UNK         0.0851 
     83 H83        22.2813  -23.5203  -43.5036 H         1 UNK         0.0851 
     84 H84        20.6286  -24.8581  -44.9621 H         1 UNK         0.2976 
     85 H85        22.1667  -27.6551  -40.9170 H         1 UNK         0.3116 
     86 H86        22.0576  -28.0310  -38.0033 H         1 UNK         0.0646 
     87 H87        22.7276  -25.2912  -39.2325 H         1 UNK         0.0847 
     88 H88        22.9260  -25.7303  -37.5315 H         1 UNK         0.0847 
     89 H89        21.3276  -25.6599  -38.2391 H         1 UNK         0.0847 
     90 H90        24.6752  -26.1244  -38.6559 H         1 UNK         0.3040 
     91 H91        26.5729  -28.2766  -38.6695 H         1 UNK         0.1015 
     92 H92        26.9472  -25.2832  -39.2496 H         1 UNK         0.0786 
     93 H93        28.2402  -26.4317  -38.9344 H         1 UNK         0.0786 
     94 H94        27.0823  -26.0568  -37.6696 H         1 UNK         0.0786 
     95 H95        25.1147  -26.3148  -41.1778 H         1 UNK         0.3172 
     96 H96        26.3885  -27.9217  -43.3457 H         1 UNK         0.0595 
     97 H97        25.2556  -26.2669  -44.8610 H         1 UNK         0.0839 
     98 H98        26.4287  -25.4906  -43.8088 H         1 UNK         0.0839 
     99 H99        24.7093  -25.3526  -43.4619 H         1 UNK         0.0839 
    100 H100       25.1598  -29.4712  -44.2192 H         1 UNK         0.2998 
    101 H101       23.6245  -31.0505  -44.4879 H         1 UNK         0.0822 
    102 H102       21.2405  -30.4640  -44.7137 H         1 UNK         0.0787 
    103 H103       21.5180  -28.8850  -44.0072 H         1 UNK         0.0787 
    104 H104       22.2384  -29.2946  -45.5643 H         1 UNK         0.0787 
    105 H105       24.7982  -31.5706  -42.3743 H         1 UNK         0.3055 
    106 H106       23.2305  -31.6409  -39.9301 H         1 UNK         0.1106 
    107 H107       25.1967  -32.8926  -39.0669 H         1 UNK         0.0828 
    108 H108       25.8735  -33.0002  -40.6869 H         1 UNK         0.0828 
    109 H109       25.7049  -31.4319  -39.8953 H         1 UNK         0.0828 
    110 H110       21.4914  -32.6141  -41.5429 H         1 UNK         0.2931 
    111 H111       21.5780  -35.4417  -42.0398 H         1 UNK         0.0412 
    112 H112       20.0356  -35.2142  -38.3158 H         1 UNK         0.3472 
    113 H113       20.9118  -33.8797  -39.0239 H         1 UNK         0.3472 
    114 H114       19.2461  -33.4802  -42.1699 H         1 UNK         0.0970 
    115 H115       19.1900  -35.1207  -42.7745 H         1 UNK         0.0970 
    116 H116       19.2278  -33.6092  -46.2043 H         1 UNK         0.0612 
    117 H117       18.2510  -34.1731  -44.8759 H         1 UNK         0.0612 
@<TRIPOS>BOND
     1    1    2 1    
     2    1   62 1    
     3    1   63 1    
     4    1   64 1    
     5    2    3 2    
     6    2    4 am   BACKBONE|DICT|INTERRES
     7    4    5 1    
     8    4   65 1    
     9    5    6 1    
    10    5   25 1    
    11    5   66 1    
    12    6    7 1    
    13    6   67 1    
    14    6   68 1    
    15    7    8 1    
    16    8    9 1    
    17    8   69 1    
    18    8   70 1    
    19    9   10 ar   
    20    9   14 ar   
    21   10   11 ar   
    22   10   71 1    
    23   11   12 ar   
    24   11   61 1    
    25   12   13 ar   
    26   12   72 1    
    27   13   14 ar   
    28   13   15 1    
    29   14   73 1    
    30   15   16 1    
    31   15   74 1    
    32   15   75 1    
    33   16   17 1    
    34   17   18 1    
    35   17   76 1    
    36   17   77 1    
    37   18   19 1    
    38   18   27 1    
    39   18   78 1    
    40   19   20 am   BACKBONE|DICT|INTERRES
    41   19   79 1    
    42   20   21 2    
    43   20   22 1    
    44   22   23 1    
    45   22   24 1    
    46   22   80 1    
    47   23   81 1    
    48   23   82 1    
    49   23   83 1    
    50   24   25 am   BACKBONE|DICT|INTERRES
    51   24   84 1    
    52   25   26 2    
    53   27   28 2    
    54   27   29 am   BACKBONE|DICT|INTERRES
    55   29   30 1    
    56   29   85 1    
    57   30   31 1    
    58   30   32 1    
    59   30   86 1    
    60   31   87 1    
    61   31   88 1    
    62   31   89 1    
    63   32   33 2    
    64   32   34 am   BACKBONE|DICT|INTERRES
    65   34   35 1    
    66   34   90 1    
    67   35   36 1    
    68   35   37 1    
    69   35   91 1    
    70   36   92 1    
    71   36   93 1    
    72   36   94 1    
    73   37   38 2    
    74   37   39 am   BACKBONE|DICT|INTERRES
    75   39   40 1    
    76   39   95 1    
    77   40   41 1    
    78   40   42 1    
    79   40   96 1    
    80   41   97 1    
    81   41   98 1    
    82   41   99 1    
    83   42   43 2    
    84   42   44 am   BACKBONE|DICT|INTERRES
    85   44   45 1    
    86   44  100 1    
    87   45   46 1    
    88   45   47 1    
    89   45  101 1    
    90   46  102 1    
    91   46  103 1    
    92   46  104 1    
    93   47   48 2    
    94   47   49 am   BACKBONE|DICT|INTERRES
    95   49   50 1    
    96   49  105 1    
    97   50   51 1    
    98   50   52 1    
    99   50  106 1    
   100   51  107 1    
   101   51  108 1    
   102   51  109 1    
   103   52   53 2    
   104   52   54 am   BACKBONE|DICT|INTERRES
   105   54   55 1    
   106   54  110 1    
   107   55   56 1    
   108   55   59 1    
   109   55  111 1    
   110   56   57 am   BACKBONE|DICT|INTERRES
   111   56   58 2    
   112   57  112 1    
   113   57  113 1    
   114   59   60 1    
   115   59  114 1    
   116   59  115 1    
   117   60   61 1    
   118   61  116 1    
   119   61  117 1    
@<TRIPOS>SUBSTRUCTURE
     1 UNK         1 GROUP             0       ****    0 ROOT    
