@<TRIPOS>MOLECULE
3R8
117   119    1
SMALL
USER_CHARGES


@<TRIPOS>ATOM
      1 CA         19.0920  -28.0601  -40.9824 C.3       0 UNK        -0.2013 
      2 C          18.8474  -26.8452  -41.8582 C.2       0 UNK         0.4866 
      3 O          19.1662  -25.7231  -41.4654 O.2       0 UNK        -0.5176 
      4 N          18.2740  -27.0581  -43.0485 N.am      1 UNK        -0.4884 
      5 CA         17.8140  -26.0066  -43.9668 C.3       1 UNK         0.0853 
      6 C6         16.5982  -26.4611  -44.8208 C.3       10 UNK        -0.0849 
      7 S7         15.2546  -27.1932  -43.8159 S.3       10 UNK        -0.2776 
      8 C8         15.1535  -28.8998  -44.4561 C.3       10 UNK         0.0316 
      9 C9         16.4667  -29.6596  -44.3170 C.ar      10 UNK        -0.0863 
     10 C10        16.8511  -30.2021  -43.0873 C.ar      10 UNK        -0.1009 
     11 C11        18.0628  -30.8911  -42.9634 C.ar      10 UNK        -0.0712 
     12 C12        18.8990  -31.0237  -44.0777 C.ar      10 UNK        -0.0894 
     13 C13        18.5128  -30.5037  -45.3160 C.ar      10 UNK        -0.0745 
     14 C14        17.2936  -29.8322  -45.4296 C.ar      10 UNK        -0.0972 
     15 C15        19.3858  -30.6827  -46.5481 C.3       10 UNK         0.0209 
     16 S16        20.1503  -29.1135  -47.0589 S.3       10 UNK        -0.2568 
     17 C17        21.7498  -29.1977  -46.1952 C.3       10 UNK        -0.0983 
     18 CA         22.5118  -27.8552  -46.2994 C.3       3 UNK         0.0876 
     19 N          21.8505  -26.7935  -45.5264 N.am      3 UNK        -0.4424 
     20 C          22.1285  -25.4850  -45.6156 C.2       2 UNK         0.4918 
     21 O          23.0102  -25.0310  -46.3460 O.2       2 UNK        -0.4875 
     22 CA         21.3199  -24.5186  -44.7241 C.3       2 UNK         0.0481 
     23 CB         21.0517  -23.1664  -45.4180 C.3       2 UNK        -0.1831 
     24 N          20.0827  -25.0852  -44.1693 N.am      2 UNK        -0.4498 
     25 C          18.9725  -25.4518  -44.8281 C.2       1 UNK         0.5027 
     26 O          18.8526  -25.3798  -46.0521 O.2       1 UNK        -0.4969 
     27 C          23.9969  -28.0371  -45.9210 C.2       3 UNK         0.5005 
     28 O          24.8068  -28.3830  -46.7826 O.2       3 UNK        -0.5279 
     29 N          24.3270  -27.7781  -44.6524 N.am      4 UNK        -0.4463 
     30 CA         25.6782  -27.7569  -44.0957 C.3       4 UNK         0.0283 
     31 CB         26.1909  -29.1902  -43.8436 C.3       4 UNK        -0.1875 
     32 C          25.6119  -26.9015  -42.8264 C.2       4 UNK         0.4949 
     33 O          25.9315  -27.3809  -41.7381 O.2       4 UNK        -0.5039 
     34 N          25.0804  -25.6787  -42.9919 N.am      5 UNK        -0.4663 
     35 CA         24.4989  -24.8335  -41.9421 C.3       5 UNK         0.0242 
     36 CB         25.5808  -24.3250  -40.9609 C.3       5 UNK        -0.1982 
     37 C          23.3203  -25.5778  -41.2809 C.2       5 UNK         0.5017 
     38 O          22.5032  -26.1552  -42.0059 O.2       5 UNK        -0.5012 
     39 N          23.2678  -25.6009  -39.9433 N.am      6 UNK        -0.4439 
     40 CA         22.3292  -26.4004  -39.1540 C.3       6 UNK         0.0297 
     41 CB         22.2590  -25.8285  -37.7260 C.3       6 UNK        -0.2006 
     42 C          22.7272  -27.8910  -39.1765 C.2       6 UNK         0.4892 
     43 O          23.2421  -28.4076  -38.1828 O.2       6 UNK        -0.5089 
     44 N          22.5272  -28.5304  -40.3363 N.am      7 UNK        -0.4243 
     45 CA         22.8713  -29.9239  -40.6235 C.3       7 UNK         0.0196 
     46 CB         22.5842  -30.2144  -42.1070 C.3       7 UNK        -0.2007 
     47 C          22.1184  -30.9243  -39.7303 C.2       7 UNK         0.5020 
     48 O          20.9366  -30.7263  -39.4422 O.2       7 UNK        -0.5147 
     49 N          22.8037  -32.0089  -39.3538 N.am      8 UNK        -0.4734 
     50 CA         22.2573  -33.1111  -38.5611 C.3       8 UNK         0.0238 
     51 CB         23.3325  -33.5907  -37.5671 C.3       8 UNK        -0.1912 
     52 C          21.7723  -34.2327  -39.4947 C.2       8 UNK         0.5038 
     53 O          22.3844  -35.3018  -39.5453 O.2       8 UNK        -0.5046 
     54 N          20.7055  -33.9493  -40.2508 N.am      9 UNK        -0.4200 
     55 CA         20.0350  -34.9025  -41.1482 C.3       9 UNK         0.0839 
     56 C          19.3167  -36.0600  -40.3959 C.2       9 UNK         0.5513 
     57 N          19.0862  -37.1810  -41.0662 N.am      9 UNK        -0.7519 
     58 O          18.9472  -35.9475  -39.2282 O.2       9 UNK        -0.4960 
     59 C59        19.1004  -34.1818  -42.1580 C.3       10 UNK        -0.0876 
     60 S60        17.8074  -33.1531  -41.3760 S.3       10 UNK        -0.2414 
     61 C61        18.4690  -31.4775  -41.6199 C.3       10 UNK         0.0169 
     62 H62        18.1426  -28.5264  -40.7242 H         1 UNK         0.0903 
     63 H63        19.7156  -28.7890  -41.4966 H         1 UNK         0.0903 
     64 H64        19.5858  -27.7843  -40.0523 H         1 UNK         0.0903 
     65 H65        18.0322  -28.0015  -43.3252 H         1 UNK         0.3096 
     66 H66        17.4674  -25.1649  -43.3623 H         1 UNK         0.1121 
     67 H67        16.9086  -27.1613  -45.5958 H         1 UNK         0.0849 
     68 H68        16.1805  -25.6054  -45.3546 H         1 UNK         0.0849 
     69 H69        14.3684  -29.4324  -43.9173 H         1 UNK         0.0865 
     70 H70        14.8347  -28.8709  -45.4994 H         1 UNK         0.0865 
     71 H71        16.2067  -30.0873  -42.2260 H         1 UNK         0.1346 
     72 H72        19.8425  -31.5431  -43.9870 H         1 UNK         0.1412 
     73 H73        16.9970  -29.4334  -46.3905 H         1 UNK         0.1426 
     74 H74        20.1544  -31.4392  -46.3821 H         1 UNK         0.0716 
     75 H75        18.7691  -31.0530  -47.3684 H         1 UNK         0.0716 
     76 H76        22.3224  -30.0088  -46.6502 H         1 UNK         0.0695 
     77 H77        21.5885  -29.4768  -45.1520 H         1 UNK         0.0695 
     78 H78        22.5065  -27.5427  -47.3464 H         1 UNK         0.0983 
     79 H79        21.0978  -27.0792  -44.9186 H         1 UNK         0.3095 
     80 H80        21.9553  -24.3102  -43.8639 H         1 UNK         0.0454 
     81 H81        20.4937  -22.4906  -44.7701 H         1 UNK         0.0851 
     82 H82        21.9857  -22.6653  -45.6749 H         1 UNK         0.0851 
     83 H83        20.4875  -23.2884  -46.3429 H         1 UNK         0.0851 
     84 H84        20.0729  -25.2139  -43.1600 H         1 UNK         0.2976 
     85 H85        23.5963  -27.4724  -44.0214 H         1 UNK         0.3116 
     86 H86        26.3509  -27.2575  -44.7962 H         1 UNK         0.0646 
     87 H87        26.2378  -29.7669  -44.7672 H         1 UNK         0.0847 
     88 H88        27.1970  -29.1738  -43.4229 H         1 UNK         0.0847 
     89 H89        25.5541  -29.7310  -43.1433 H         1 UNK         0.0847 
     90 H90        24.8659  -25.3942  -43.9382 H         1 UNK         0.3040 
     91 H91        24.0676  -23.9642  -42.4410 H         1 UNK         0.1015 
     92 H92        26.0166  -25.1288  -40.3665 H         1 UNK         0.0786 
     93 H93        25.1730  -23.5842  -40.2720 H         1 UNK         0.0786 
     94 H94        26.3950  -23.8393  -41.4989 H         1 UNK         0.0786 
     95 H95        24.0067  -25.1402  -39.4323 H         1 UNK         0.3172 
     96 H96        21.3357  -26.3069  -39.5957 H         1 UNK         0.0595 
     97 H97        23.2288  -25.8563  -37.2276 H         1 UNK         0.0839 
     98 H98        21.5612  -26.4005  -37.1128 H         1 UNK         0.0839 
     99 H99        21.9125  -24.7949  -37.7293 H         1 UNK         0.0839 
    100 H100       22.1690  -27.9770  -41.1056 H         1 UNK         0.2998 
    101 H101       23.9437  -30.0327  -40.4477 H         1 UNK         0.0822 
    102 H102       22.8780  -31.2312  -42.3713 H         1 UNK         0.0787 
    103 H103       23.1385  -29.5398  -42.7577 H         1 UNK         0.0787 
    104 H104       21.5254  -30.1107  -42.3441 H         1 UNK         0.0787 
    105 H105       23.7554  -32.1208  -39.6750 H         1 UNK         0.3055 
    106 H106       21.3969  -32.7712  -37.9792 H         1 UNK         0.1106 
    107 H107       22.9593  -34.4142  -36.9566 H         1 UNK         0.0828 
    108 H108       24.2310  -33.9425  -38.0756 H         1 UNK         0.0828 
    109 H109       23.6252  -32.7914  -36.8859 H         1 UNK         0.0828 
    110 H110       20.2516  -33.0547  -40.1320 H         1 UNK         0.2931 
    111 H111       20.8269  -35.3704  -41.7371 H         1 UNK         0.0412 
    112 H112       18.6133  -37.9409  -40.6016 H         1 UNK         0.3472 
    113 H113       19.3823  -37.2882  -42.0243 H         1 UNK         0.3472 
    114 H114       19.7018  -33.5666  -42.8265 H         1 UNK         0.0970 
    115 H115       18.6093  -34.9069  -42.8093 H         1 UNK         0.0970 
    116 H116       19.5543  -31.4884  -41.5267 H         1 UNK         0.0612 
    117 H117       18.0993  -30.8488  -40.8099 H         1 UNK         0.0612 
@<TRIPOS>BOND
     1    1    2 1    
     2    1   62 1    
     3    1   63 1    
     4    1   64 1    
     5    2    3 2    
     6    2    4 am   BACKBONE|DICT|INTERRES
     7    4    5 1    
     8    4   65 1    
     9    5    6 1    
    10    5   25 1    
    11    5   66 1    
    12    6    7 1    
    13    6   67 1    
    14    6   68 1    
    15    7    8 1    
    16    8    9 1    
    17    8   69 1    
    18    8   70 1    
    19    9   10 ar   
    20    9   14 ar   
    21   10   11 ar   
    22   10   71 1    
    23   11   12 ar   
    24   11   61 1    
    25   12   13 ar   
    26   12   72 1    
    27   13   14 ar   
    28   13   15 1    
    29   14   73 1    
    30   15   16 1    
    31   15   74 1    
    32   15   75 1    
    33   16   17 1    
    34   17   18 1    
    35   17   76 1    
    36   17   77 1    
    37   18   19 1    
    38   18   27 1    
    39   18   78 1    
    40   19   20 am   BACKBONE|DICT|INTERRES
    41   19   79 1    
    42   20   21 2    
    43   20   22 1    
    44   22   23 1    
    45   22   24 1    
    46   22   80 1    
    47   23   81 1    
    48   23   82 1    
    49   23   83 1    
    50   24   25 am   BACKBONE|DICT|INTERRES
    51   24   84 1    
    52   25   26 2    
    53   27   28 2    
    54   27   29 am   BACKBONE|DICT|INTERRES
    55   29   30 1    
    56   29   85 1    
    57   30   31 1    
    58   30   32 1    
    59   30   86 1    
    60   31   87 1    
    61   31   88 1    
    62   31   89 1    
    63   32   33 2    
    64   32   34 am   BACKBONE|DICT|INTERRES
    65   34   35 1    
    66   34   90 1    
    67   35   36 1    
    68   35   37 1    
    69   35   91 1    
    70   36   92 1    
    71   36   93 1    
    72   36   94 1    
    73   37   38 2    
    74   37   39 am   BACKBONE|DICT|INTERRES
    75   39   40 1    
    76   39   95 1    
    77   40   41 1    
    78   40   42 1    
    79   40   96 1    
    80   41   97 1    
    81   41   98 1    
    82   41   99 1    
    83   42   43 2    
    84   42   44 am   BACKBONE|DICT|INTERRES
    85   44   45 1    
    86   44  100 1    
    87   45   46 1    
    88   45   47 1    
    89   45  101 1    
    90   46  102 1    
    91   46  103 1    
    92   46  104 1    
    93   47   48 2    
    94   47   49 am   BACKBONE|DICT|INTERRES
    95   49   50 1    
    96   49  105 1    
    97   50   51 1    
    98   50   52 1    
    99   50  106 1    
   100   51  107 1    
   101   51  108 1    
   102   51  109 1    
   103   52   53 2    
   104   52   54 am   BACKBONE|DICT|INTERRES
   105   54   55 1    
   106   54  110 1    
   107   55   56 1    
   108   55   59 1    
   109   55  111 1    
   110   56   57 am   BACKBONE|DICT|INTERRES
   111   56   58 2    
   112   57  112 1    
   113   57  113 1    
   114   59   60 1    
   115   59  114 1    
   116   59  115 1    
   117   60   61 1    
   118   61  116 1    
   119   61  117 1    
@<TRIPOS>SUBSTRUCTURE
     1 UNK         1 GROUP             0       ****    0 ROOT    
