@<TRIPOS>MOLECULE
3R8
117   119    1
SMALL
USER_CHARGES


@<TRIPOS>ATOM
      1 CA         22.4332  -23.1234  -40.8120 C.3       0 UNK        -0.2013 
      2 C          21.0059  -23.6364  -40.9249 C.2       0 UNK         0.4866 
      3 O          20.2276  -23.5084  -39.9801 O.2       0 UNK        -0.5176 
      4 N          20.6601  -24.2203  -42.0753 N.am      1 UNK        -0.4884 
      5 CA         19.3219  -24.6973  -42.4212 C.3       1 UNK         0.0853 
      6 C6         18.9555  -26.0462  -41.7334 C.3       10 UNK        -0.0849 
      7 S7         19.6931  -27.5486  -42.4755 S.3       10 UNK        -0.2776 
      8 C8         18.1995  -28.5753  -42.6610 C.3       10 UNK         0.0316 
      9 C9         18.4929  -29.8604  -43.4161 C.ar      10 UNK        -0.0863 
     10 C10        18.7329  -31.0513  -42.7265 C.ar      10 UNK        -0.1009 
     11 C11        18.9715  -32.2404  -43.4217 C.ar      10 UNK        -0.0712 
     12 C12        18.9887  -32.2208  -44.8211 C.ar      10 UNK        -0.0894 
     13 C13        18.7682  -31.0347  -45.5282 C.ar      10 UNK        -0.0745 
     14 C14        18.4934  -29.8628  -44.8125 C.ar      10 UNK        -0.0972 
     15 C15        18.8229  -31.0748  -47.0577 C.3       10 UNK         0.0209 
     16 S16        19.0788  -29.4695  -47.8964 S.3       10 UNK        -0.2568 
     17 C17        20.6840  -28.9309  -47.2091 C.3       10 UNK        -0.0983 
     18 CA         20.8084  -27.3863  -47.0961 C.3       3 UNK         0.0876 
     19 N          19.6890  -26.7785  -46.3597 N.am      3 UNK        -0.4424 
     20 C          18.8533  -25.8597  -46.8627 C.2       2 UNK         0.4918 
     21 O          18.9151  -25.4318  -48.0157 O.2       2 UNK        -0.4875 
     22 CA         17.7652  -25.2988  -45.9229 C.3       2 UNK         0.0481 
     23 CB         16.4591  -26.0898  -46.1022 C.3       2 UNK        -0.1831 
     24 N          18.1066  -25.2534  -44.4934 N.am      2 UNK        -0.4498 
     25 C          19.1952  -24.6807  -43.9588 C.2       1 UNK         0.5027 
     26 O          20.0986  -24.1769  -44.6335 O.2       1 UNK        -0.4969 
     27 C          22.1657  -26.9798  -46.4782 C.2       3 UNK         0.5005 
     28 O          23.1799  -27.6024  -46.7960 O.2       3 UNK        -0.5279 
     29 N          22.1691  -25.9704  -45.5892 N.am      4 UNK        -0.4463 
     30 CA         23.3095  -25.4510  -44.8179 C.3       4 UNK         0.0283 
     31 CB         24.3752  -24.8373  -45.7503 C.3       4 UNK        -0.1875 
     32 C          23.9183  -26.4541  -43.8136 C.2       4 UNK         0.4949 
     33 O          25.0228  -26.2190  -43.3228 O.2       4 UNK        -0.5039 
     34 N          23.1955  -27.5409  -43.5063 N.am      5 UNK        -0.4663 
     35 CA         23.6404  -28.6039  -42.6006 C.3       5 UNK         0.0242 
     36 CB         22.8239  -29.8785  -42.8752 C.3       5 UNK        -0.1982 
     37 C          23.5481  -28.2191  -41.1147 C.2       5 UNK         0.5017 
     38 O          24.3103  -28.7589  -40.3137 O.2       5 UNK        -0.5012 
     39 N          22.6157  -27.3106  -40.7849 N.am      6 UNK        -0.4439 
     40 CA         22.2404  -26.8712  -39.4334 C.3       6 UNK         0.0297 
     41 CB         23.4171  -26.1631  -38.7274 C.3       6 UNK        -0.2006 
     42 C          21.6187  -28.0045  -38.5909 C.2       6 UNK         0.4892 
     43 O          21.8535  -28.0663  -37.3823 O.2       6 UNK        -0.5089 
     44 N          20.8270  -28.8594  -39.2605 N.am      7 UNK        -0.4243 
     45 CA         20.1875  -30.0916  -38.7760 C.3       7 UNK         0.0196 
     46 CB         19.2699  -29.8153  -37.5660 C.3       7 UNK        -0.2007 
     47 C          21.1904  -31.2283  -38.4904 C.2       7 UNK         0.5020 
     48 O          22.4003  -31.0033  -38.4447 O.2       7 UNK        -0.5147 
     49 N          20.6556  -32.4494  -38.3260 N.am      8 UNK        -0.4734 
     50 CA         21.3863  -33.7059  -38.0816 C.3       8 UNK         0.0238 
     51 CB         21.9962  -33.7108  -36.6629 C.3       8 UNK        -0.1912 
     52 C          22.4217  -34.0189  -39.1835 C.2       8 UNK         0.5038 
     53 O          23.5783  -34.3237  -38.8837 O.2       8 UNK        -0.5046 
     54 N          21.9785  -33.8935  -40.4409 N.am      9 UNK        -0.4200 
     55 CA         22.7734  -34.0924  -41.6598 C.3       9 UNK         0.0839 
     56 C          23.3612  -35.5255  -41.8168 C.2       9 UNK         0.5513 
     57 N          24.4506  -35.6657  -42.5605 N.am      9 UNK        -0.7519 
     58 O          22.8291  -36.5076  -41.3021 O.2       9 UNK        -0.4960 
     59 C59        21.9872  -33.6292  -42.9169 C.3       10 UNK        -0.0876 
     60 S60        20.4889  -34.6117  -43.2804 S.3       10 UNK        -0.2414 
     61 C61        19.1524  -33.5432  -42.6476 C.3       10 UNK         0.0169 
     62 H62        22.7946  -23.2310  -39.7898 H         1 UNK         0.0903 
     63 H63        23.1101  -23.6711  -41.4678 H         1 UNK         0.0903 
     64 H64        22.4745  -22.0671  -41.0761 H         1 UNK         0.0903 
     65 H65        21.2906  -24.2031  -42.8663 H         1 UNK         0.3096 
     66 H66        18.6143  -23.9430  -42.0686 H         1 UNK         0.1121 
     67 H67        17.8697  -26.1500  -41.7193 H         1 UNK         0.0849 
     68 H68        19.2360  -26.0182  -40.6798 H         1 UNK         0.0849 
     69 H69        17.4276  -28.0152  -43.1907 H         1 UNK         0.0865 
     70 H70        17.7914  -28.7992  -41.6739 H         1 UNK         0.0865 
     71 H71        18.7061  -31.0574  -41.6469 H         1 UNK         0.1346 
     72 H72        19.1699  -33.1378  -45.3650 H         1 UNK         0.1412 
     73 H73        18.2833  -28.9439  -45.3377 H         1 UNK         0.1426 
     74 H74        17.8910  -31.5073  -47.4237 H         1 UNK         0.0716 
     75 H75        19.6212  -31.7481  -47.3744 H         1 UNK         0.0716 
     76 H76        21.4649  -29.3297  -47.8592 H         1 UNK         0.0695 
     77 H77        20.8433  -29.3937  -46.2342 H         1 UNK         0.0695 
     78 H78        20.8335  -26.9949  -48.1152 H         1 UNK         0.0983 
     79 H79        19.5672  -27.0715  -45.4015 H         1 UNK         0.3095 
     80 H80        17.5792  -24.2688  -46.2334 H         1 UNK         0.0454 
     81 H81        16.5603  -27.1215  -45.7638 H         1 UNK         0.0851 
     82 H82        16.1619  -26.1212  -47.1516 H         1 UNK         0.0851 
     83 H83        15.6369  -25.6331  -45.5513 H         1 UNK         0.0851 
     84 H84        17.4188  -25.6431  -43.8661 H         1 UNK         0.2976 
     85 H85        21.2948  -25.4766  -45.4294 H         1 UNK         0.3116 
     86 H86        22.9096  -24.6374  -44.2124 H         1 UNK         0.0646 
     87 H87        23.9333  -24.1178  -46.4394 H         1 UNK         0.0847 
     88 H88        24.8857  -25.5986  -46.3406 H         1 UNK         0.0847 
     89 H89        25.1384  -24.3073  -45.1791 H         1 UNK         0.0847 
     90 H90        22.3004  -27.6659  -43.9549 H         1 UNK         0.3040 
     91 H91        24.6896  -28.8213  -42.8146 H         1 UNK         0.1015 
     92 H92        23.1536  -30.6924  -42.2278 H         1 UNK         0.0786 
     93 H93        22.9453  -30.2144  -43.9053 H         1 UNK         0.0786 
     94 H94        21.7586  -29.7318  -42.6946 H         1 UNK         0.0786 
     95 H95        22.0409  -26.9547  -41.5367 H         1 UNK         0.3172 
     96 H96        21.4482  -26.1351  -39.5632 H         1 UNK         0.0595 
     97 H97        24.1975  -26.8670  -38.4368 H         1 UNK         0.0839 
     98 H98        23.0802  -25.6620  -37.8192 H         1 UNK         0.0839 
     99 H99        23.8723  -25.4080  -39.3671 H         1 UNK         0.0839 
    100 H100       20.7277  -28.6937  -40.2523 H         1 UNK         0.2998 
    101 H101       19.5565  -30.4298  -39.5976 H         1 UNK         0.0822 
    102 H102       18.5935  -28.9834  -37.7629 H         1 UNK         0.0787 
    103 H103       18.6518  -30.6827  -37.3325 H         1 UNK         0.0787 
    104 H104       19.8399  -29.5785  -36.6672 H         1 UNK         0.0787 
    105 H105       19.6497  -32.5379  -38.3804 H         1 UNK         0.3055 
    106 H106       20.6514  -34.5119  -38.1225 H         1 UNK         0.1106 
    107 H107       22.7722  -32.9526  -36.5522 H         1 UNK         0.0828 
    108 H108       22.4511  -34.6759  -36.4363 H         1 UNK         0.0828 
    109 H109       21.2366  -33.5258  -35.9035 H         1 UNK         0.0828 
    110 H110       21.0082  -33.6653  -40.5840 H         1 UNK         0.2931 
    111 H111       23.6287  -33.4210  -41.5580 H         1 UNK         0.0412 
    112 H112       24.8421  -36.5864  -42.6863 H         1 UNK         0.3472 
    113 H113       24.8951  -34.8706  -42.9929 H         1 UNK         0.3472 
    114 H114       21.7092  -32.5801  -42.8140 H         1 UNK         0.0970 
    115 H115       22.6328  -33.6664  -43.7959 H         1 UNK         0.0970 
    116 H116       19.3328  -33.3429  -41.5910 H         1 UNK         0.0612 
    117 H117       18.2165  -34.1009  -42.6970 H         1 UNK         0.0612 
@<TRIPOS>BOND
     1    1    2 1    
     2    1   62 1    
     3    1   63 1    
     4    1   64 1    
     5    2    3 2    
     6    2    4 am   BACKBONE|DICT|INTERRES
     7    4    5 1    
     8    4   65 1    
     9    5    6 1    
    10    5   25 1    
    11    5   66 1    
    12    6    7 1    
    13    6   67 1    
    14    6   68 1    
    15    7    8 1    
    16    8    9 1    
    17    8   69 1    
    18    8   70 1    
    19    9   10 ar   
    20    9   14 ar   
    21   10   11 ar   
    22   10   71 1    
    23   11   12 ar   
    24   11   61 1    
    25   12   13 ar   
    26   12   72 1    
    27   13   14 ar   
    28   13   15 1    
    29   14   73 1    
    30   15   16 1    
    31   15   74 1    
    32   15   75 1    
    33   16   17 1    
    34   17   18 1    
    35   17   76 1    
    36   17   77 1    
    37   18   19 1    
    38   18   27 1    
    39   18   78 1    
    40   19   20 am   BACKBONE|DICT|INTERRES
    41   19   79 1    
    42   20   21 2    
    43   20   22 1    
    44   22   23 1    
    45   22   24 1    
    46   22   80 1    
    47   23   81 1    
    48   23   82 1    
    49   23   83 1    
    50   24   25 am   BACKBONE|DICT|INTERRES
    51   24   84 1    
    52   25   26 2    
    53   27   28 2    
    54   27   29 am   BACKBONE|DICT|INTERRES
    55   29   30 1    
    56   29   85 1    
    57   30   31 1    
    58   30   32 1    
    59   30   86 1    
    60   31   87 1    
    61   31   88 1    
    62   31   89 1    
    63   32   33 2    
    64   32   34 am   BACKBONE|DICT|INTERRES
    65   34   35 1    
    66   34   90 1    
    67   35   36 1    
    68   35   37 1    
    69   35   91 1    
    70   36   92 1    
    71   36   93 1    
    72   36   94 1    
    73   37   38 2    
    74   37   39 am   BACKBONE|DICT|INTERRES
    75   39   40 1    
    76   39   95 1    
    77   40   41 1    
    78   40   42 1    
    79   40   96 1    
    80   41   97 1    
    81   41   98 1    
    82   41   99 1    
    83   42   43 2    
    84   42   44 am   BACKBONE|DICT|INTERRES
    85   44   45 1    
    86   44  100 1    
    87   45   46 1    
    88   45   47 1    
    89   45  101 1    
    90   46  102 1    
    91   46  103 1    
    92   46  104 1    
    93   47   48 2    
    94   47   49 am   BACKBONE|DICT|INTERRES
    95   49   50 1    
    96   49  105 1    
    97   50   51 1    
    98   50   52 1    
    99   50  106 1    
   100   51  107 1    
   101   51  108 1    
   102   51  109 1    
   103   52   53 2    
   104   52   54 am   BACKBONE|DICT|INTERRES
   105   54   55 1    
   106   54  110 1    
   107   55   56 1    
   108   55   59 1    
   109   55  111 1    
   110   56   57 am   BACKBONE|DICT|INTERRES
   111   56   58 2    
   112   57  112 1    
   113   57  113 1    
   114   59   60 1    
   115   59  114 1    
   116   59  115 1    
   117   60   61 1    
   118   61  116 1    
   119   61  117 1    
@<TRIPOS>SUBSTRUCTURE
     1 UNK         1 GROUP             0       ****    0 ROOT    
