@<TRIPOS>MOLECULE
3R8
117   119    1
SMALL
USER_CHARGES


@<TRIPOS>ATOM
      1 CA         18.7864  -28.8215  -38.4209 C.3       0 UNK        -0.2013 
      2 C          18.6649  -28.8982  -39.9354 C.2       0 UNK         0.4866 
      3 O          17.5501  -28.9241  -40.4559 O.2       0 UNK        -0.5176 
      4 N          19.7987  -28.9479  -40.6464 N.am      1 UNK        -0.4884 
      5 CA         19.8787  -28.8912  -42.1082 C.3       1 UNK         0.0853 
      6 C6         21.3170  -29.1608  -42.6278 C.3       10 UNK        -0.0849 
      7 S7         21.7491  -30.9325  -42.5821 S.3       10 UNK        -0.2776 
      8 C8         21.6420  -31.4094  -44.3434 C.3       10 UNK         0.0316 
      9 C9         20.3017  -31.0170  -44.9488 C.ar      10 UNK        -0.0863 
     10 C10        19.1224  -31.5192  -44.4009 C.ar      10 UNK        -0.1009 
     11 C11        17.8750  -31.0780  -44.8500 C.ar      10 UNK        -0.0712 
     12 C12        17.8311  -30.1379  -45.8862 C.ar      10 UNK        -0.0894 
     13 C13        19.0022  -29.6484  -46.4795 C.ar      10 UNK        -0.0745 
     14 C14        20.2376  -30.1150  -46.0126 C.ar      10 UNK        -0.0972 
     15 C15        18.8605  -28.6268  -47.6140 C.3       10 UNK         0.0209 
     16 S16        20.3975  -27.9576  -48.3577 S.3       10 UNK        -0.2568 
     17 C17        21.2867  -27.0196  -47.0583 C.3       10 UNK        -0.0983 
     18 CA         20.5207  -25.8370  -46.4097 C.3       3 UNK         0.0876 
     19 N          19.4688  -26.3341  -45.5233 N.am      3 UNK        -0.4424 
     20 C          18.4736  -25.6216  -44.9829 C.2       2 UNK         0.4918 
     21 O          18.2513  -24.4403  -45.2456 O.2       2 UNK        -0.4875 
     22 CA         17.6027  -26.3511  -43.9406 C.3       2 UNK         0.0481 
     23 CB         16.2582  -26.7622  -44.5611 C.3       2 UNK        -0.1831 
     24 N          18.2401  -27.5346  -43.3425 N.am      2 UNK        -0.4498 
     25 C          19.3716  -27.5301  -42.6205 C.2       1 UNK         0.5027 
     26 O          20.0358  -26.5162  -42.3941 O.2       1 UNK        -0.4969 
     27 C          21.5286  -24.9136  -45.6772 C.2       3 UNK         0.5005 
     28 O          22.3245  -24.2621  -46.3550 O.2       3 UNK        -0.5279 
     29 N          21.5147  -24.8988  -44.3309 N.am      4 UNK        -0.4463 
     30 CA         22.4839  -24.2534  -43.4340 C.3       4 UNK         0.0283 
     31 CB         22.5149  -22.7216  -43.6241 C.3       4 UNK        -0.1875 
     32 C          23.8736  -24.9133  -43.5278 C.2       4 UNK         0.4949 
     33 O          24.8946  -24.2259  -43.5586 O.2       4 UNK        -0.5039 
     34 N          23.8762  -26.2531  -43.5733 N.am      5 UNK        -0.4663 
     35 CA         25.0660  -27.0956  -43.7404 C.3       5 UNK         0.0242 
     36 CB         24.6320  -28.4407  -44.3508 C.3       5 UNK        -0.1982 
     37 C          25.8694  -27.3254  -42.4443 C.2       5 UNK         0.5017 
     38 O          26.9085  -27.9833  -42.5062 O.2       5 UNK        -0.5012 
     39 N          25.3770  -26.8077  -41.3069 N.am      6 UNK        -0.4439 
     40 CA         25.9114  -26.9741  -39.9468 C.3       6 UNK         0.0297 
     41 CB         27.3029  -26.3196  -39.8060 C.3       6 UNK        -0.2006 
     42 C          25.8802  -28.4461  -39.4877 C.2       6 UNK         0.4892 
     43 O          26.8764  -28.9707  -38.9860 O.2       6 UNK        -0.5089 
     44 N          24.7194  -29.0789  -39.6799 N.am      7 UNK        -0.4243 
     45 CA         24.4035  -30.4583  -39.3251 C.3       7 UNK         0.0196 
     46 CB         24.8942  -31.4043  -40.4384 C.3       7 UNK        -0.2007 
     47 C          22.8870  -30.5559  -39.1007 C.2       7 UNK         0.5020 
     48 O          22.1806  -29.5586  -39.2807 O.2       7 UNK        -0.5147 
     49 N          22.4101  -31.7416  -38.7066 N.am      8 UNK        -0.4734 
     50 CA         20.9915  -32.0350  -38.4946 C.3       8 UNK         0.0238 
     51 CB         20.8310  -32.7948  -37.1673 C.3       8 UNK        -0.1912 
     52 C          20.4366  -32.8714  -39.6568 C.2       8 UNK         0.5038 
     53 O          21.1355  -33.7601  -40.1499 O.2       8 UNK        -0.5046 
     54 N          19.1788  -32.6029  -40.0343 N.am      9 UNK        -0.4200 
     55 CA         18.4216  -33.3734  -41.0358 C.3       9 UNK         0.0839 
     56 C          17.9377  -34.7631  -40.5207 C.2       9 UNK         0.5513 
     57 N          17.8386  -34.9863  -39.2148 N.am      9 UNK        -0.7519 
     58 O          17.6697  -35.6615  -41.3136 O.2       9 UNK        -0.4960 
     59 C59        17.2552  -32.5223  -41.6183 C.3       10 UNK        -0.0876 
     60 S60        16.6491  -33.1010  -43.2463 S.3       10 UNK        -0.2414 
     61 C61        16.5603  -31.5567  -44.2268 C.3       10 UNK         0.0169 
     62 H62        18.3510  -29.7064  -37.9583 H         1 UNK         0.0903 
     63 H63        19.8241  -28.7370  -38.0983 H         1 UNK         0.0903 
     64 H64        18.2503  -27.9483  -38.0499 H         1 UNK         0.0903 
     65 H65        20.6937  -28.9940  -40.1599 H         1 UNK         0.3096 
     66 H66        19.2147  -29.6632  -42.4955 H         1 UNK         0.1121 
     67 H67        21.4453  -28.8063  -43.6520 H         1 UNK         0.0849 
     68 H68        22.0475  -28.6103  -42.0325 H         1 UNK         0.0849 
     69 H69        22.4687  -30.9491  -44.8867 H         1 UNK         0.0865 
     70 H70        21.7764  -32.4884  -44.4307 H         1 UNK         0.0865 
     71 H71        19.1995  -32.2222  -43.5884 H         1 UNK         0.1346 
     72 H72        16.8709  -29.7877  -46.2409 H         1 UNK         0.1412 
     73 H73        21.1598  -29.7796  -46.4602 H         1 UNK         0.1426 
     74 H74        18.2247  -27.8010  -47.2965 H         1 UNK         0.0716 
     75 H75        18.3118  -29.1148  -48.4208 H         1 UNK         0.0716 
     76 H76        22.1853  -26.6510  -47.5580 H         1 UNK         0.0695 
     77 H77        21.6578  -27.6947  -46.2882 H         1 UNK         0.0695 
     78 H78        20.0548  -25.2408  -47.1972 H         1 UNK         0.0983 
     79 H79        19.5357  -27.3071  -45.2668 H         1 UNK         0.3095 
     80 H80        17.4042  -25.6439  -43.1329 H         1 UNK         0.0454 
     81 H81        16.3877  -27.4758  -45.3749 H         1 UNK         0.0851 
     82 H82        15.7367  -25.8957  -44.9703 H         1 UNK         0.0851 
     83 H83        15.5982  -27.2124  -43.8195 H         1 UNK         0.0851 
     84 H84        17.7501  -28.4100  -43.4607 H         1 UNK         0.2976 
     85 H85        20.8138  -25.4578  -43.8526 H         1 UNK         0.3116 
     86 H86        22.1268  -24.4446  -42.4208 H         1 UNK         0.0646 
     87 H87        22.9427  -22.4357  -44.5852 H         1 UNK         0.0847 
     88 H88        23.1201  -22.2474  -42.8506 H         1 UNK         0.0847 
     89 H89        21.5148  -22.2933  -43.5604 H         1 UNK         0.0847 
     90 H90        22.9872  -26.7278  -43.5345 H         1 UNK         0.3040 
     91 H91        25.7386  -26.6041  -44.4472 H         1 UNK         0.1015 
     92 H92        24.0283  -29.0242  -43.6560 H         1 UNK         0.0786 
     93 H93        25.5000  -29.0492  -44.6083 H         1 UNK         0.0786 
     94 H94        24.0576  -28.3001  -45.2667 H         1 UNK         0.0786 
     95 H95        24.5198  -26.2792  -41.3821 H         1 UNK         0.3172 
     96 H96        25.2323  -26.4352  -39.2842 H         1 UNK         0.0595 
     97 H97        27.6370  -26.3369  -38.7679 H         1 UNK         0.0839 
     98 H98        27.2853  -25.2770  -40.1230 H         1 UNK         0.0839 
     99 H99        28.0598  -26.8371  -40.3961 H         1 UNK         0.0839 
    100 H100       23.9209  -28.5596  -40.0220 H         1 UNK         0.2998 
    101 H101       24.8955  -30.7112  -38.3836 H         1 UNK         0.0822 
    102 H102       24.6477  -32.4441  -40.2219 H         1 UNK         0.0787 
    103 H103       24.4489  -31.1548  -41.4015 H         1 UNK         0.0787 
    104 H104       25.9769  -31.3486  -40.5528 H         1 UNK         0.0787 
    105 H105       23.0385  -32.5311  -38.6521 H         1 UNK         0.3055 
    106 H106       20.4234  -31.1078  -38.4241 H         1 UNK         0.1106 
    107 H107       19.7813  -33.0065  -36.9597 H         1 UNK         0.0828 
    108 H108       21.3597  -33.7489  -37.1798 H         1 UNK         0.0828 
    109 H109       21.2133  -32.2118  -36.3292 H         1 UNK         0.0828 
    110 H110       18.6644  -31.8783  -39.5580 H         1 UNK         0.2931 
    111 H111       19.1169  -33.5861  -41.8492 H         1 UNK         0.0412 
    112 H112       18.0577  -34.2643  -38.5485 H         1 UNK         0.3472 
    113 H113       17.5344  -35.8922  -38.8932 H         1 UNK         0.3472 
    114 H114       16.4153  -32.4861  -40.9221 H         1 UNK         0.0970 
    115 H115       17.5814  -31.4877  -41.7336 H         1 UNK         0.0970 
    116 H116       16.1468  -30.7606  -43.6062 H         1 UNK         0.0612 
    117 H117       15.8385  -31.7255  -45.0273 H         1 UNK         0.0612 
@<TRIPOS>BOND
     1    1    2 1    
     2    1   62 1    
     3    1   63 1    
     4    1   64 1    
     5    2    3 2    
     6    2    4 am   BACKBONE|DICT|INTERRES
     7    4    5 1    
     8    4   65 1    
     9    5    6 1    
    10    5   25 1    
    11    5   66 1    
    12    6    7 1    
    13    6   67 1    
    14    6   68 1    
    15    7    8 1    
    16    8    9 1    
    17    8   69 1    
    18    8   70 1    
    19    9   10 ar   
    20    9   14 ar   
    21   10   11 ar   
    22   10   71 1    
    23   11   12 ar   
    24   11   61 1    
    25   12   13 ar   
    26   12   72 1    
    27   13   14 ar   
    28   13   15 1    
    29   14   73 1    
    30   15   16 1    
    31   15   74 1    
    32   15   75 1    
    33   16   17 1    
    34   17   18 1    
    35   17   76 1    
    36   17   77 1    
    37   18   19 1    
    38   18   27 1    
    39   18   78 1    
    40   19   20 am   BACKBONE|DICT|INTERRES
    41   19   79 1    
    42   20   21 2    
    43   20   22 1    
    44   22   23 1    
    45   22   24 1    
    46   22   80 1    
    47   23   81 1    
    48   23   82 1    
    49   23   83 1    
    50   24   25 am   BACKBONE|DICT|INTERRES
    51   24   84 1    
    52   25   26 2    
    53   27   28 2    
    54   27   29 am   BACKBONE|DICT|INTERRES
    55   29   30 1    
    56   29   85 1    
    57   30   31 1    
    58   30   32 1    
    59   30   86 1    
    60   31   87 1    
    61   31   88 1    
    62   31   89 1    
    63   32   33 2    
    64   32   34 am   BACKBONE|DICT|INTERRES
    65   34   35 1    
    66   34   90 1    
    67   35   36 1    
    68   35   37 1    
    69   35   91 1    
    70   36   92 1    
    71   36   93 1    
    72   36   94 1    
    73   37   38 2    
    74   37   39 am   BACKBONE|DICT|INTERRES
    75   39   40 1    
    76   39   95 1    
    77   40   41 1    
    78   40   42 1    
    79   40   96 1    
    80   41   97 1    
    81   41   98 1    
    82   41   99 1    
    83   42   43 2    
    84   42   44 am   BACKBONE|DICT|INTERRES
    85   44   45 1    
    86   44  100 1    
    87   45   46 1    
    88   45   47 1    
    89   45  101 1    
    90   46  102 1    
    91   46  103 1    
    92   46  104 1    
    93   47   48 2    
    94   47   49 am   BACKBONE|DICT|INTERRES
    95   49   50 1    
    96   49  105 1    
    97   50   51 1    
    98   50   52 1    
    99   50  106 1    
   100   51  107 1    
   101   51  108 1    
   102   51  109 1    
   103   52   53 2    
   104   52   54 am   BACKBONE|DICT|INTERRES
   105   54   55 1    
   106   54  110 1    
   107   55   56 1    
   108   55   59 1    
   109   55  111 1    
   110   56   57 am   BACKBONE|DICT|INTERRES
   111   56   58 2    
   112   57  112 1    
   113   57  113 1    
   114   59   60 1    
   115   59  114 1    
   116   59  115 1    
   117   60   61 1    
   118   61  116 1    
   119   61  117 1    
@<TRIPOS>SUBSTRUCTURE
     1 UNK         1 GROUP             0       ****    0 ROOT    
