@<TRIPOS>MOLECULE
3R8
117   119    1
SMALL
USER_CHARGES


@<TRIPOS>ATOM
      1 CA         18.9584  -23.1768  -49.1678 C.3       0 UNK        -0.2013 
      2 C          19.5133  -23.7922  -47.8922 C.2       0 UNK         0.4866 
      3 O          20.2749  -23.1392  -47.1786 O.2       0 UNK        -0.5176 
      4 N          19.1413  -25.0459  -47.6033 N.am      1 UNK        -0.4884 
      5 CA         19.5379  -25.7910  -46.4016 C.3       1 UNK         0.0853 
      6 C6         19.2362  -27.3101  -46.5301 C.3       10 UNK        -0.0849 
      7 S7         17.5241  -27.6769  -47.0605 S.3       10 UNK        -0.2776 
      8 C8         17.5105  -29.4986  -47.0622 C.3       10 UNK         0.0316 
      9 C9         17.2449  -30.0667  -45.6754 C.ar      10 UNK        -0.0863 
     10 C10        18.2219  -30.8128  -45.0091 C.ar      10 UNK        -0.1009 
     11 C11        17.9659  -31.3425  -43.7399 C.ar      10 UNK        -0.0712 
     12 C12        16.7276  -31.1134  -43.1321 C.ar      10 UNK        -0.0894 
     13 C13        15.7471  -30.3602  -43.7854 C.ar      10 UNK        -0.0745 
     14 C14        16.0052  -29.8578  -45.0641 C.ar      10 UNK        -0.0972 
     15 C15        14.4265  -30.0479  -43.0965 C.3       10 UNK         0.0209 
     16 S16        14.2601  -28.2672  -42.7369 S.3       10 UNK        -0.2568 
     17 C17        15.6021  -27.9901  -41.5277 C.3       10 UNK        -0.0983 
     18 CA         16.9652  -27.6242  -42.1831 C.3       3 UNK         0.0876 
     19 N          16.8880  -26.5193  -43.1439 N.am      3 UNK        -0.4424 
     20 C          16.6896  -25.2203  -42.8816 C.2       2 UNK         0.4918 
     21 O          16.4321  -24.7763  -41.7618 O.2       2 UNK        -0.4875 
     22 CA         16.8309  -24.2523  -44.0802 C.3       2 UNK         0.0481 
     23 CB         17.3432  -22.8629  -43.6471 C.3       2 UNK        -0.1831 
     24 N          17.6551  -24.7781  -45.1825 N.am      2 UNK        -0.4498 
     25 C          18.9277  -25.2062  -45.1119 C.2       1 UNK         0.5027 
     26 O          19.5994  -25.1864  -44.0812 O.2       1 UNK        -0.4969 
     27 C          18.1092  -27.4543  -41.1557 C.2       3 UNK         0.5005 
     28 O          17.9646  -27.8675  -40.0027 O.2       3 UNK        -0.5279 
     29 N          19.2280  -26.8572  -41.5879 N.am      4 UNK        -0.4463 
     30 CA         20.4412  -26.6567  -40.8017 C.3       4 UNK         0.0283 
     31 CB         20.5925  -25.1558  -40.5017 C.3       4 UNK        -0.1875 
     32 C          21.6527  -27.1768  -41.5859 C.2       4 UNK         0.4949 
     33 O          21.6112  -27.2565  -42.8156 O.2       4 UNK        -0.5039 
     34 N          22.7237  -27.4934  -40.8546 N.am      5 UNK        -0.4663 
     35 CA         24.0144  -27.9429  -41.3680 C.3       5 UNK         0.0242 
     36 CB         23.9200  -29.4049  -41.8435 C.3       5 UNK        -0.1982 
     37 C          25.0517  -27.8040  -40.2487 C.2       5 UNK         0.5017 
     38 O          24.6733  -27.6948  -39.0784 O.2       5 UNK        -0.5012 
     39 N          26.3384  -27.8382  -40.6200 N.am      6 UNK        -0.4439 
     40 CA         27.4652  -27.8378  -39.6801 C.3       6 UNK         0.0297 
     41 CB         28.7732  -27.5719  -40.4430 C.3       6 UNK        -0.2006 
     42 C          27.5669  -29.1450  -38.8721 C.2       6 UNK         0.4892 
     43 O          27.9487  -29.1042  -37.7020 O.2       6 UNK        -0.5089 
     44 N          27.2077  -30.2677  -39.5055 N.am      7 UNK        -0.4243 
     45 CA         27.1427  -31.6063  -38.9309 C.3       7 UNK         0.0196 
     46 CB         28.5605  -32.1773  -38.7298 C.3       7 UNK        -0.2007 
     47 C          26.3339  -32.4965  -39.8809 C.2       7 UNK         0.5020 
     48 O          26.2476  -32.1917  -41.0741 O.2       7 UNK        -0.5147 
     49 N          25.7846  -33.5901  -39.3362 N.am      8 UNK        -0.4734 
     50 CA         25.0713  -34.7002  -39.9912 C.3       8 UNK         0.0238 
     51 CB         25.9973  -35.4534  -40.9667 C.3       8 UNK        -0.1912 
     52 C          23.7385  -34.3453  -40.6775 C.2       8 UNK         0.5038 
     53 O          22.7609  -35.0693  -40.4836 O.2       8 UNK        -0.5046 
     54 N          23.7218  -33.2745  -41.4791 N.am      9 UNK        -0.4200 
     55 CA         22.6171  -32.7919  -42.3263 C.3       9 UNK         0.0839 
     56 C          22.2763  -33.7244  -43.5246 C.2       9 UNK         0.5513 
     57 N          22.1486  -35.0283  -43.3214 N.am      9 UNK        -0.7519 
     58 O          22.1444  -33.2605  -44.6538 O.2       9 UNK        -0.4960 
     59 C59        21.3575  -32.4032  -41.5010 C.3       10 UNK        -0.0876 
     60 S60        20.3220  -31.1312  -42.3026 S.3       10 UNK        -0.2414 
     61 C61        19.0226  -32.1747  -43.0320 C.3       10 UNK         0.0169 
     62 H62        18.3054  -23.8659  -49.7032 H         1 UNK         0.0903 
     63 H63        18.3853  -22.2802  -48.9330 H         1 UNK         0.0903 
     64 H64        19.7734  -22.8956  -49.8341 H         1 UNK         0.0903 
     65 H65        18.5161  -25.5402  -48.2257 H         1 UNK         0.3096 
     66 H66        20.6202  -25.6825  -46.2968 H         1 UNK         0.1121 
     67 H67        19.9130  -27.7461  -47.2667 H         1 UNK         0.0849 
     68 H68        19.4465  -27.8329  -45.5940 H         1 UNK         0.0849 
     69 H69        16.7253  -29.8418  -47.7374 H         1 UNK         0.0865 
     70 H70        18.4489  -29.8750  -47.4725 H         1 UNK         0.0865 
     71 H71        19.1827  -30.9866  -45.4747 H         1 UNK         0.1346 
     72 H72        16.5342  -31.5069  -42.1434 H         1 UNK         0.1412 
     73 H73        15.2493  -29.2732  -45.5714 H         1 UNK         0.1426 
     74 H74        14.3204  -30.6154  -42.1706 H         1 UNK         0.0716 
     75 H75        13.6041  -30.3569  -43.7432 H         1 UNK         0.0716 
     76 H76        15.2848  -27.1931  -40.8533 H         1 UNK         0.0695 
     77 H77        15.6994  -28.8861  -40.9121 H         1 UNK         0.0695 
     78 H78        17.2897  -28.4759  -42.7759 H         1 UNK         0.0983 
     79 H79        17.0591  -26.7745  -44.1056 H         1 UNK         0.3095 
     80 H80        15.8265  -24.1247  -44.4859 H         1 UNK         0.0454 
     81 H81        18.3206  -22.9251  -43.1675 H         1 UNK         0.0851 
     82 H82        17.4302  -22.1884  -44.4986 H         1 UNK         0.0851 
     83 H83        16.6613  -22.3964  -42.9351 H         1 UNK         0.0851 
     84 H84        17.1919  -24.8599  -46.0774 H         1 UNK         0.2976 
     85 H85        19.2984  -26.5469  -42.5530 H         1 UNK         0.3116 
     86 H86        20.3851  -27.2068  -39.8599 H         1 UNK         0.0646 
     87 H87        21.4853  -24.9599  -39.9066 H         1 UNK         0.0847 
     88 H88        19.7383  -24.7773  -39.9400 H         1 UNK         0.0847 
     89 H89        20.6743  -24.5700  -41.4186 H         1 UNK         0.0847 
     90 H90        22.7093  -27.3719  -39.8481 H         1 UNK         0.3040 
     91 H91        24.3087  -27.2985  -42.1995 H         1 UNK         0.1015 
     92 H92        23.1991  -29.5104  -42.6542 H         1 UNK         0.0786 
     93 H93        23.6138  -30.0697  -41.0347 H         1 UNK         0.0786 
     94 H94        24.8779  -29.7664  -42.2193 H         1 UNK         0.0786 
     95 H95        26.5630  -27.9181  -41.6019 H         1 UNK         0.3172 
     96 H96        27.3149  -27.0207  -38.9709 H         1 UNK         0.0595 
     97 H97        28.7447  -26.6122  -40.9593 H         1 UNK         0.0839 
     98 H98        28.9773  -28.3471  -41.1828 H         1 UNK         0.0839 
     99 H99        29.6230  -27.5441  -39.7593 H         1 UNK         0.0839 
    100 H100       26.8901  -30.2217  -40.4659 H         1 UNK         0.2998 
    101 H101       26.6240  -31.5518  -37.9714 H         1 UNK         0.0822 
    102 H102       29.1397  -31.5776  -38.0277 H         1 UNK         0.0787 
    103 H103       28.5239  -33.1912  -38.3295 H         1 UNK         0.0787 
    104 H104       29.1128  -32.2172  -39.6696 H         1 UNK         0.0787 
    105 H105       25.8981  -33.7062  -38.3377 H         1 UNK         0.3055 
    106 H106       24.8180  -35.3958  -39.1888 H         1 UNK         0.1106 
    107 H107       26.3100  -34.8260  -41.8021 H         1 UNK         0.0828 
    108 H108       26.8954  -35.8118  -40.4636 H         1 UNK         0.0828 
    109 H109       25.4941  -36.3248  -41.3883 H         1 UNK         0.0828 
    110 H110       24.6005  -32.7681  -41.5661 H         1 UNK         0.2931 
    111 H111       23.0140  -31.8791  -42.7691 H         1 UNK         0.0412 
    112 H112       21.9362  -35.6423  -44.0918 H         1 UNK         0.3472 
    113 H113       22.2534  -35.3931  -42.3815 H         1 UNK         0.3472 
    114 H114       21.6660  -31.9825  -40.5428 H         1 UNK         0.0970 
    115 H115       20.7605  -33.2823  -41.2515 H         1 UNK         0.0970 
    116 H116       18.5658  -32.7815  -42.2486 H         1 UNK         0.0612 
    117 H117       19.4669  -32.8719  -43.7429 H         1 UNK         0.0612 
@<TRIPOS>BOND
     1    1    2 1    
     2    1   62 1    
     3    1   63 1    
     4    1   64 1    
     5    2    3 2    
     6    2    4 am   BACKBONE|DICT|INTERRES
     7    4    5 1    
     8    4   65 1    
     9    5    6 1    
    10    5   25 1    
    11    5   66 1    
    12    6    7 1    
    13    6   67 1    
    14    6   68 1    
    15    7    8 1    
    16    8    9 1    
    17    8   69 1    
    18    8   70 1    
    19    9   10 ar   
    20    9   14 ar   
    21   10   11 ar   
    22   10   71 1    
    23   11   12 ar   
    24   11   61 1    
    25   12   13 ar   
    26   12   72 1    
    27   13   14 ar   
    28   13   15 1    
    29   14   73 1    
    30   15   16 1    
    31   15   74 1    
    32   15   75 1    
    33   16   17 1    
    34   17   18 1    
    35   17   76 1    
    36   17   77 1    
    37   18   19 1    
    38   18   27 1    
    39   18   78 1    
    40   19   20 am   BACKBONE|DICT|INTERRES
    41   19   79 1    
    42   20   21 2    
    43   20   22 1    
    44   22   23 1    
    45   22   24 1    
    46   22   80 1    
    47   23   81 1    
    48   23   82 1    
    49   23   83 1    
    50   24   25 am   BACKBONE|DICT|INTERRES
    51   24   84 1    
    52   25   26 2    
    53   27   28 2    
    54   27   29 am   BACKBONE|DICT|INTERRES
    55   29   30 1    
    56   29   85 1    
    57   30   31 1    
    58   30   32 1    
    59   30   86 1    
    60   31   87 1    
    61   31   88 1    
    62   31   89 1    
    63   32   33 2    
    64   32   34 am   BACKBONE|DICT|INTERRES
    65   34   35 1    
    66   34   90 1    
    67   35   36 1    
    68   35   37 1    
    69   35   91 1    
    70   36   92 1    
    71   36   93 1    
    72   36   94 1    
    73   37   38 2    
    74   37   39 am   BACKBONE|DICT|INTERRES
    75   39   40 1    
    76   39   95 1    
    77   40   41 1    
    78   40   42 1    
    79   40   96 1    
    80   41   97 1    
    81   41   98 1    
    82   41   99 1    
    83   42   43 2    
    84   42   44 am   BACKBONE|DICT|INTERRES
    85   44   45 1    
    86   44  100 1    
    87   45   46 1    
    88   45   47 1    
    89   45  101 1    
    90   46  102 1    
    91   46  103 1    
    92   46  104 1    
    93   47   48 2    
    94   47   49 am   BACKBONE|DICT|INTERRES
    95   49   50 1    
    96   49  105 1    
    97   50   51 1    
    98   50   52 1    
    99   50  106 1    
   100   51  107 1    
   101   51  108 1    
   102   51  109 1    
   103   52   53 2    
   104   52   54 am   BACKBONE|DICT|INTERRES
   105   54   55 1    
   106   54  110 1    
   107   55   56 1    
   108   55   59 1    
   109   55  111 1    
   110   56   57 am   BACKBONE|DICT|INTERRES
   111   56   58 2    
   112   57  112 1    
   113   57  113 1    
   114   59   60 1    
   115   59  114 1    
   116   59  115 1    
   117   60   61 1    
   118   61  116 1    
   119   61  117 1    
@<TRIPOS>SUBSTRUCTURE
     1 UNK         1 GROUP             0       ****    0 ROOT    
