@<TRIPOS>MOLECULE
3R8
117   119    1
SMALL
USER_CHARGES


@<TRIPOS>ATOM
      1 CA         20.2567  -26.4105  -40.2591 C.3       0 UNK        -0.2013 
      2 C          19.6414  -26.3869  -41.6502 C.2       0 UNK         0.4866 
      3 O          20.3756  -26.4168  -42.6364 O.2       0 UNK        -0.5176 
      4 N          18.3025  -26.3306  -41.7308 N.am      1 UNK        -0.4884 
      5 CA         17.4982  -26.2967  -42.9652 C.3       1 UNK         0.0853 
      6 C6         17.6775  -27.5771  -43.8355 C.3       10 UNK        -0.0849 
      7 S7         17.2614  -29.1302  -42.9778 S.3       10 UNK        -0.2776 
      8 C8         17.3271  -30.3060  -44.3716 C.3       10 UNK         0.0316 
      9 C9         18.7568  -30.6976  -44.7259 C.ar      10 UNK        -0.0863 
     10 C10        19.2938  -31.8902  -44.2354 C.ar      10 UNK        -0.1009 
     11 C11        20.5990  -32.2703  -44.5587 C.ar      10 UNK        -0.0712 
     12 C12        21.3741  -31.4314  -45.3668 C.ar      10 UNK        -0.0894 
     13 C13        20.8522  -30.2390  -45.8818 C.ar      10 UNK        -0.0745 
     14 C14        19.5319  -29.8900  -45.5653 C.ar      10 UNK        -0.0972 
     15 C15        21.7402  -29.4041  -46.8118 C.3       10 UNK         0.0209 
     16 S16        21.0972  -27.7619  -47.2989 S.3       10 UNK        -0.2568 
     17 C17        21.7577  -26.7020  -45.9705 C.3       10 UNK        -0.0983 
     18 CA         21.3395  -25.2175  -46.1401 C.3       3 UNK         0.0876 
     19 N          19.8839  -25.0673  -46.0793 N.am      3 UNK        -0.4424 
     20 C          19.1782  -23.9791  -46.4181 C.2       2 UNK         0.4918 
     21 O          19.6672  -22.9832  -46.9505 O.2       2 UNK        -0.4875 
     22 CA         17.6746  -23.9926  -46.0675 C.3       2 UNK         0.0481 
     23 CB         16.8317  -24.2243  -47.3315 C.3       2 UNK        -0.1831 
     24 N          17.3233  -25.0035  -45.0600 N.am      2 UNK        -0.4498 
     25 C          17.7492  -25.0041  -43.7861 C.2       1 UNK         0.5027 
     26 O          18.3540  -24.0501  -43.2883 O.2       1 UNK        -0.4969 
     27 C          22.0766  -24.3212  -45.1161 C.2       3 UNK         0.5005 
     28 O          23.2859  -24.1348  -45.2562 O.2       3 UNK        -0.5279 
     29 N          21.3602  -23.7949  -44.1072 N.am      4 UNK        -0.4463 
     30 CA         21.7954  -22.9290  -43.0003 C.3       4 UNK         0.0283 
     31 CB         22.4890  -21.6478  -43.5026 C.3       4 UNK        -0.1875 
     32 C          22.6381  -23.6437  -41.9293 C.2       4 UNK         0.4949 
     33 O          22.5176  -23.3057  -40.7515 O.2       4 UNK        -0.5039 
     34 N          23.4399  -24.6296  -42.3352 N.am      5 UNK        -0.4663 
     35 CA         24.1336  -25.5797  -41.4777 C.3       5 UNK         0.0242 
     36 CB         25.6188  -25.1957  -41.3756 C.3       5 UNK        -0.1982 
     37 C          23.9599  -26.9695  -42.0984 C.2       5 UNK         0.5017 
     38 O          23.9699  -27.0948  -43.3257 O.2       5 UNK        -0.5012 
     39 N          23.8262  -27.9843  -41.2429 N.am      6 UNK        -0.4439 
     40 CA         23.6476  -29.3856  -41.6048 C.3       6 UNK         0.0297 
     41 CB         22.1711  -29.6530  -41.9619 C.3       6 UNK        -0.2006 
     42 C          24.1132  -30.2472  -40.4239 C.2       6 UNK         0.4892 
     43 O          24.3437  -29.7190  -39.3310 O.2       6 UNK        -0.5089 
     44 N          24.2452  -31.5548  -40.6693 N.am      7 UNK        -0.4243 
     45 CA         24.5818  -32.5692  -39.6679 C.3       7 UNK         0.0196 
     46 CB         25.2334  -33.7633  -40.3939 C.3       7 UNK        -0.2007 
     47 C          23.3386  -32.9919  -38.8581 C.2       7 UNK         0.5020 
     48 O          22.2972  -32.3329  -38.9157 O.2       7 UNK        -0.5147 
     49 N          23.4375  -34.1218  -38.1443 N.am      8 UNK        -0.4734 
     50 CA         22.3272  -34.7845  -37.4448 C.3       8 UNK         0.0238 
     51 CB         22.9041  -35.7230  -36.3680 C.3       8 UNK        -0.1912 
     52 C          21.3819  -35.5138  -38.4268 C.2       8 UNK         0.5038 
     53 O          21.1631  -36.7205  -38.3026 O.2       8 UNK        -0.5046 
     54 N          20.8819  -34.7640  -39.4130 N.am      9 UNK        -0.4200 
     55 CA         20.0119  -35.2052  -40.5066 C.3       9 UNK         0.0839 
     56 C          18.6127  -35.6571  -40.0098 C.2       9 UNK         0.5513 
     57 N          18.0216  -36.6555  -40.6514 N.am      9 UNK        -0.7519 
     58 O          18.0424  -35.0849  -39.0829 O.2       9 UNK        -0.4960 
     59 C59        19.8854  -34.0955  -41.5828 C.3       10 UNK        -0.0876 
     60 S60        21.5041  -33.6215  -42.2936 S.3       10 UNK        -0.2414 
     61 C61        21.1580  -33.6061  -44.0806 C.3       10 UNK         0.0169 
     62 H62        19.5010  -26.5052  -39.4798 H         1 UNK         0.0903 
     63 H63        20.9443  -27.2504  -40.1680 H         1 UNK         0.0903 
     64 H64        20.8162  -25.4925  -40.0824 H         1 UNK         0.0903 
     65 H65        17.7661  -26.2828  -40.8759 H         1 UNK         0.3096 
     66 H66        16.4549  -26.2469  -42.6492 H         1 UNK         0.1121 
     67 H67        18.7066  -27.6456  -44.1874 H         1 UNK         0.0849 
     68 H68        17.0463  -27.5414  -44.7240 H         1 UNK         0.0849 
     69 H69        16.8239  -29.8861  -45.2438 H         1 UNK         0.0865 
     70 H70        16.7549  -31.1946  -44.1001 H         1 UNK         0.0865 
     71 H71        18.6866  -32.5288  -43.6110 H         1 UNK         0.1346 
     72 H72        22.3843  -31.7221  -45.6216 H         1 UNK         0.1412 
     73 H73        19.0935  -28.9926  -45.9743 H         1 UNK         0.1426 
     74 H74        21.8991  -29.9789  -47.7250 H         1 UNK         0.0716 
     75 H75        22.7240  -29.2779  -46.3567 H         1 UNK         0.0716 
     76 H76        22.8456  -26.7959  -45.9814 H         1 UNK         0.0695 
     77 H77        21.4273  -27.0946  -45.0068 H         1 UNK         0.0695 
     78 H78        21.6629  -24.8826  -47.1281 H         1 UNK         0.0983 
     79 H79        19.3893  -25.8455  -45.6731 H         1 UNK         0.3095 
     80 H80        17.4231  -23.0103  -45.6625 H         1 UNK         0.0454 
     81 H81        17.0333  -25.1976  -47.7808 H         1 UNK         0.0851 
     82 H82        17.0464  -23.4674  -48.0872 H         1 UNK         0.0851 
     83 H83        15.7649  -24.1671  -47.1148 H         1 UNK         0.0851 
     84 H84        16.7909  -25.7941  -45.3940 H         1 UNK         0.2976 
     85 H85        20.3881  -24.0766  -44.0411 H         1 UNK         0.3116 
     86 H86        20.8718  -22.6235  -42.5058 H         1 UNK         0.0646 
     87 H87        22.6732  -20.9599  -42.6765 H         1 UNK         0.0847 
     88 H88        21.8727  -21.1221  -44.2317 H         1 UNK         0.0847 
     89 H89        23.4536  -21.8578  -43.9650 H         1 UNK         0.0847 
     90 H90        23.4660  -24.8487  -43.3268 H         1 UNK         0.3040 
     91 H91        23.6867  -25.5800  -40.4808 H         1 UNK         0.1015 
     92 H92        25.7411  -24.2035  -40.9408 H         1 UNK         0.0786 
     93 H93        26.1023  -25.1947  -42.3535 H         1 UNK         0.0786 
     94 H94        26.1615  -25.8981  -40.7418 H         1 UNK         0.0786 
     95 H95        23.9163  -27.8333  -40.2447 H         1 UNK         0.3172 
     96 H96        24.2796  -29.6169  -42.4650 H         1 UNK         0.0595 
     97 H97        21.5142  -29.4995  -41.1054 H         1 UNK         0.0839 
     98 H98        22.0259  -30.6782  -42.3010 H         1 UNK         0.0839 
     99 H99        21.8266  -29.0026  -42.7670 H         1 UNK         0.0839 
    100 H100       23.9798  -31.9014  -41.5799 H         1 UNK         0.2998 
    101 H101       25.3069  -32.1506  -38.9667 H         1 UNK         0.0822 
    102 H102       26.0599  -33.4379  -41.0262 H         1 UNK         0.0787 
    103 H103       25.6454  -34.4874  -39.6906 H         1 UNK         0.0787 
    104 H104       24.5172  -34.2890  -41.0277 H         1 UNK         0.0787 
    105 H105       24.3128  -34.6253  -38.1664 H         1 UNK         0.3055 
    106 H106       21.7296  -34.0241  -36.9362 H         1 UNK         0.1106 
    107 H107       22.1061  -36.2008  -35.7980 H         1 UNK         0.0828 
    108 H108       23.5121  -36.5158  -36.8055 H         1 UNK         0.0828 
    109 H109       23.5240  -35.1775  -35.6563 H         1 UNK         0.0828 
    110 H110       21.1466  -33.7837  -39.4257 H         1 UNK         0.2931 
    111 H111       20.4975  -36.0682  -40.9669 H         1 UNK         0.0412 
    112 H112       18.4778  -37.1261  -41.4179 H         1 UNK         0.3472 
    113 H113       17.1052  -36.9547  -40.3554 H         1 UNK         0.3472 
    114 H114       19.4196  -33.2017  -41.1629 H         1 UNK         0.0970 
    115 H115       19.2259  -34.4360  -42.3822 H         1 UNK         0.0970 
    116 H116       22.0889  -33.8304  -44.6036 H         1 UNK         0.0612 
    117 H117       20.4708  -34.4121  -44.3408 H         1 UNK         0.0612 
@<TRIPOS>BOND
     1    1    2 1    
     2    1   62 1    
     3    1   63 1    
     4    1   64 1    
     5    2    3 2    
     6    2    4 am   BACKBONE|DICT|INTERRES
     7    4    5 1    
     8    4   65 1    
     9    5    6 1    
    10    5   25 1    
    11    5   66 1    
    12    6    7 1    
    13    6   67 1    
    14    6   68 1    
    15    7    8 1    
    16    8    9 1    
    17    8   69 1    
    18    8   70 1    
    19    9   10 ar   
    20    9   14 ar   
    21   10   11 ar   
    22   10   71 1    
    23   11   12 ar   
    24   11   61 1    
    25   12   13 ar   
    26   12   72 1    
    27   13   14 ar   
    28   13   15 1    
    29   14   73 1    
    30   15   16 1    
    31   15   74 1    
    32   15   75 1    
    33   16   17 1    
    34   17   18 1    
    35   17   76 1    
    36   17   77 1    
    37   18   19 1    
    38   18   27 1    
    39   18   78 1    
    40   19   20 am   BACKBONE|DICT|INTERRES
    41   19   79 1    
    42   20   21 2    
    43   20   22 1    
    44   22   23 1    
    45   22   24 1    
    46   22   80 1    
    47   23   81 1    
    48   23   82 1    
    49   23   83 1    
    50   24   25 am   BACKBONE|DICT|INTERRES
    51   24   84 1    
    52   25   26 2    
    53   27   28 2    
    54   27   29 am   BACKBONE|DICT|INTERRES
    55   29   30 1    
    56   29   85 1    
    57   30   31 1    
    58   30   32 1    
    59   30   86 1    
    60   31   87 1    
    61   31   88 1    
    62   31   89 1    
    63   32   33 2    
    64   32   34 am   BACKBONE|DICT|INTERRES
    65   34   35 1    
    66   34   90 1    
    67   35   36 1    
    68   35   37 1    
    69   35   91 1    
    70   36   92 1    
    71   36   93 1    
    72   36   94 1    
    73   37   38 2    
    74   37   39 am   BACKBONE|DICT|INTERRES
    75   39   40 1    
    76   39   95 1    
    77   40   41 1    
    78   40   42 1    
    79   40   96 1    
    80   41   97 1    
    81   41   98 1    
    82   41   99 1    
    83   42   43 2    
    84   42   44 am   BACKBONE|DICT|INTERRES
    85   44   45 1    
    86   44  100 1    
    87   45   46 1    
    88   45   47 1    
    89   45  101 1    
    90   46  102 1    
    91   46  103 1    
    92   46  104 1    
    93   47   48 2    
    94   47   49 am   BACKBONE|DICT|INTERRES
    95   49   50 1    
    96   49  105 1    
    97   50   51 1    
    98   50   52 1    
    99   50  106 1    
   100   51  107 1    
   101   51  108 1    
   102   51  109 1    
   103   52   53 2    
   104   52   54 am   BACKBONE|DICT|INTERRES
   105   54   55 1    
   106   54  110 1    
   107   55   56 1    
   108   55   59 1    
   109   55  111 1    
   110   56   57 am   BACKBONE|DICT|INTERRES
   111   56   58 2    
   112   57  112 1    
   113   57  113 1    
   114   59   60 1    
   115   59  114 1    
   116   59  115 1    
   117   60   61 1    
   118   61  116 1    
   119   61  117 1    
@<TRIPOS>SUBSTRUCTURE
     1 UNK         1 GROUP             0       ****    0 ROOT    
