@<TRIPOS>MOLECULE
3R8
117   119    1
SMALL
USER_CHARGES


@<TRIPOS>ATOM
      1 CA         15.1078  -22.0980  -43.2588 C.3       0 UNK        -0.2013 
      2 C          15.9068  -22.9366  -44.2451 C.2       0 UNK         0.4866 
      3 O          16.4335  -22.4001  -45.2205 O.2       0 UNK        -0.5176 
      4 N          15.9936  -24.2501  -44.0050 N.am      1 UNK        -0.4884 
      5 CA         16.7802  -25.2033  -44.7917 C.3       1 UNK         0.0853 
      6 C6         16.3556  -26.6738  -44.5281 C.3       10 UNK        -0.0849 
      7 S7         16.0975  -27.1048  -42.7658 S.3       10 UNK        -0.2776 
      8 C8         15.7034  -28.8830  -42.8559 C.3       10 UNK         0.0316 
      9 C9         16.9514  -29.7179  -43.0984 C.ar      10 UNK        -0.0863 
     10 C10        17.7016  -30.2070  -42.0234 C.ar      10 UNK        -0.1009 
     11 C11        18.8787  -30.9274  -42.2515 C.ar      10 UNK        -0.0712 
     12 C12        19.3126  -31.1388  -43.5636 C.ar      10 UNK        -0.0894 
     13 C13        18.5592  -30.6725  -44.6418 C.ar      10 UNK        -0.0745 
     14 C14        17.3685  -29.9848  -44.4040 C.ar      10 UNK        -0.0972 
     15 C15        19.0351  -30.8814  -46.0672 C.3       10 UNK         0.0209 
     16 S16        19.7230  -29.3427  -46.7497 S.3       10 UNK        -0.2568 
     17 C17        21.3924  -29.2945  -46.0030 C.3       10 UNK        -0.0983 
     18 CA         21.6743  -28.1030  -45.0413 C.3       3 UNK         0.0876 
     19 N          20.9895  -26.8709  -45.4525 N.am      3 UNK        -0.4424 
     20 C          21.3518  -25.6263  -45.1200 C.2       2 UNK         0.4918 
     21 O          22.3073  -25.3662  -44.3909 O.2       2 UNK        -0.4875 
     22 CA         20.4757  -24.4847  -45.6606 C.3       2 UNK         0.0481 
     23 CB         20.9305  -24.0821  -47.0722 C.3       2 UNK        -0.1831 
     24 N          19.0424  -24.8011  -45.6760 N.am      2 UNK        -0.4498 
     25 C          18.2928  -24.9762  -44.5769 C.2       1 UNK         0.5027 
     26 O          18.7516  -24.9573  -43.4333 O.2       1 UNK        -0.4969 
     27 C          21.5190  -28.4489  -43.5402 C.2       3 UNK         0.5005 
     28 O          22.1772  -29.3787  -43.0660 O.2       3 UNK        -0.5279 
     29 N          20.7225  -27.6685  -42.7919 N.am      4 UNK        -0.4463 
     30 CA         20.7052  -27.6896  -41.3281 C.3       4 UNK         0.0283 
     31 CB         19.4665  -26.9502  -40.8056 C.3       4 UNK        -0.1875 
     32 C          21.9864  -27.1064  -40.7050 C.2       4 UNK         0.4949 
     33 O          22.2923  -27.4432  -39.5607 O.2       4 UNK        -0.5039 
     34 N          22.7330  -26.2747  -41.4511 N.am      5 UNK        -0.4663 
     35 CA         24.0538  -25.7759  -41.0601 C.3       5 UNK         0.0242 
     36 CB         24.5379  -24.7288  -42.0761 C.3       5 UNK        -0.1982 
     37 C          25.0489  -26.9429  -40.9486 C.2       5 UNK         0.5017 
     38 O          25.2919  -27.6279  -41.9436 O.2       5 UNK        -0.5012 
     39 N          25.5449  -27.1747  -39.7251 N.am      6 UNK        -0.4439 
     40 CA         26.3612  -28.3197  -39.2959 C.3       6 UNK         0.0297 
     41 CB         27.7000  -28.3804  -40.0634 C.3       6 UNK        -0.2006 
     42 C          25.6143  -29.6734  -39.3070 C.2       6 UNK         0.4892 
     43 O          26.2667  -30.7071  -39.1562 O.2       6 UNK        -0.5089 
     44 N          24.2765  -29.6416  -39.4397 N.am      7 UNK        -0.4243 
     45 CA         23.3310  -30.7630  -39.4128 C.3       7 UNK         0.0196 
     46 CB         23.1371  -31.2526  -37.9631 C.3       7 UNK        -0.2007 
     47 C          23.7041  -31.9039  -40.3777 C.2       7 UNK         0.5020 
     48 O          23.9718  -33.0232  -39.9354 O.2       7 UNK        -0.5147 
     49 N          23.7020  -31.6151  -41.6881 N.am      8 UNK        -0.4734 
     50 CA         24.0702  -32.5750  -42.7418 C.3       8 UNK         0.0238 
     51 CB         24.1733  -31.8420  -44.0876 C.3       8 UNK        -0.1912 
     52 C          23.1252  -33.7886  -42.8567 C.2       8 UNK         0.5038 
     53 O          23.5193  -34.8082  -43.4237 O.2       8 UNK        -0.5046 
     54 N          21.9133  -33.6616  -42.3033 N.am      9 UNK        -0.4200 
     55 CA         20.9401  -34.7418  -42.1076 C.3       9 UNK         0.0839 
     56 C          21.3104  -35.7577  -40.9853 C.2       9 UNK         0.5513 
     57 N          22.3152  -35.5073  -40.1524 N.am      9 UNK        -0.7519 
     58 O          20.6779  -36.8054  -40.8795 O.2       9 UNK        -0.4960 
     59 C59        19.4991  -34.1844  -41.9505 C.3       10 UNK        -0.0876 
     60 S60        19.2378  -33.0894  -40.5033 S.3       10 UNK        -0.2414 
     61 C61        19.7162  -31.4273  -41.0846 C.3       10 UNK         0.0169 
     62 H62        14.2845  -21.5999  -43.7701 H         1 UNK         0.0903 
     63 H63        14.6906  -22.7029  -42.4538 H         1 UNK         0.0903 
     64 H64        15.7450  -21.3344  -42.8137 H         1 UNK         0.0903 
     65 H65        15.5741  -24.6401  -43.1718 H         1 UNK         0.3096 
     66 H66        16.5673  -24.9973  -45.8434 H         1 UNK         0.1121 
     67 H67        15.4179  -26.8711  -45.0501 H         1 UNK         0.0849 
     68 H68        17.0853  -27.3535  -44.9681 H         1 UNK         0.0849 
     69 H69        15.2326  -29.1870  -41.9198 H         1 UNK         0.0865 
     70 H70        14.9636  -29.0601  -43.6382 H         1 UNK         0.0865 
     71 H71        17.3807  -30.0101  -41.0096 H         1 UNK         0.1346 
     72 H72        20.2429  -31.6586  -43.7458 H         1 UNK         0.1412 
     73 H73        16.7877  -29.6234  -45.2414 H         1 UNK         0.1426 
     74 H74        18.1934  -31.1958  -46.6860 H         1 UNK         0.0716 
     75 H75        19.7732  -31.6828  -46.1268 H         1 UNK         0.0716 
     76 H76        22.0904  -29.2328  -46.8392 H         1 UNK         0.0695 
     77 H77        21.6111  -30.2523  -45.5312 H         1 UNK         0.0695 
     78 H78        22.7433  -27.8961  -45.1350 H         1 UNK         0.0983 
     79 H79        20.1833  -27.0054  -46.0463 H         1 UNK         0.3095 
     80 H80        20.6180  -23.6235  -45.0042 H         1 UNK         0.0454 
     81 H81        21.9900  -23.8218  -47.0806 H         1 UNK         0.0851 
     82 H82        20.3836  -23.2105  -47.4323 H         1 UNK         0.0851 
     83 H83        20.7885  -24.8896  -47.7915 H         1 UNK         0.0851 
     84 H84        18.5950  -24.8182  -46.5817 H         1 UNK         0.2976 
     85 H85        20.2017  -26.9270  -43.2408 H         1 UNK         0.3116 
     86 H86        20.6356  -28.7286  -41.0063 H         1 UNK         0.0646 
     87 H87        19.4823  -25.8931  -41.0715 H         1 UNK         0.0847 
     88 H88        18.5513  -27.3860  -41.2031 H         1 UNK         0.0847 
     89 H89        19.4066  -27.0109  -39.7182 H         1 UNK         0.0847 
     90 H90        22.4387  -26.0655  -42.3986 H         1 UNK         0.3040 
     91 H91        23.9542  -25.2859  -40.0890 H         1 UNK         0.1015 
     92 H92        25.4958  -24.3051  -41.7718 H         1 UNK         0.0786 
     93 H93        23.8305  -23.9042  -42.1658 H         1 UNK         0.0786 
     94 H94        24.6744  -25.1611  -43.0683 H         1 UNK         0.0786 
     95 H95        25.2561  -26.5570  -38.9779 H         1 UNK         0.3172 
     96 H96        26.6003  -28.1286  -38.2488 H         1 UNK         0.0595 
     97 H97        27.5599  -28.6688  -41.1054 H         1 UNK         0.0839 
     98 H98        28.3734  -29.1127  -39.6163 H         1 UNK         0.0839 
     99 H99        28.2134  -27.4191  -40.0460 H         1 UNK         0.0839 
    100 H100       23.8399  -28.7310  -39.5431 H         1 UNK         0.2998 
    101 H101       22.3745  -30.3653  -39.7541 H         1 UNK         0.0822 
    102 H102       22.3886  -32.0449  -37.9151 H         1 UNK         0.0787 
    103 H103       22.7958  -30.4452  -37.3153 H         1 UNK         0.0787 
    104 H104       24.0620  -31.6509  -37.5440 H         1 UNK         0.0787 
    105 H105       23.4274  -30.6868  -41.9988 H         1 UNK         0.3055 
    106 H106       25.0587  -32.9675  -42.4927 H         1 UNK         0.1106 
    107 H107       24.8552  -30.9933  -44.0304 H         1 UNK         0.0828 
    108 H108       24.5465  -32.5074  -44.8674 H         1 UNK         0.0828 
    109 H109       23.2027  -31.4726  -44.4142 H         1 UNK         0.0828 
    110 H110       21.7021  -32.7937  -41.8381 H         1 UNK         0.2931 
    111 H111       20.9412  -35.3274  -43.0290 H         1 UNK         0.0412 
    112 H112       22.5385  -36.1829  -39.4392 H         1 UNK         0.3472 
    113 H113       22.8485  -34.6460  -40.2096 H         1 UNK         0.3472 
    114 H114       18.7949  -35.0136  -41.8604 H         1 UNK         0.0970 
    115 H115       19.1950  -33.6760  -42.8630 H         1 UNK         0.0970 
    116 H116       19.6137  -30.7395  -40.2441 H         1 UNK         0.0612 
    117 H117       20.7713  -31.4086  -41.3510 H         1 UNK         0.0612 
@<TRIPOS>BOND
     1    1    2 1    
     2    1   62 1    
     3    1   63 1    
     4    1   64 1    
     5    2    3 2    
     6    2    4 am   BACKBONE|DICT|INTERRES
     7    4    5 1    
     8    4   65 1    
     9    5    6 1    
    10    5   25 1    
    11    5   66 1    
    12    6    7 1    
    13    6   67 1    
    14    6   68 1    
    15    7    8 1    
    16    8    9 1    
    17    8   69 1    
    18    8   70 1    
    19    9   10 ar   
    20    9   14 ar   
    21   10   11 ar   
    22   10   71 1    
    23   11   12 ar   
    24   11   61 1    
    25   12   13 ar   
    26   12   72 1    
    27   13   14 ar   
    28   13   15 1    
    29   14   73 1    
    30   15   16 1    
    31   15   74 1    
    32   15   75 1    
    33   16   17 1    
    34   17   18 1    
    35   17   76 1    
    36   17   77 1    
    37   18   19 1    
    38   18   27 1    
    39   18   78 1    
    40   19   20 am   BACKBONE|DICT|INTERRES
    41   19   79 1    
    42   20   21 2    
    43   20   22 1    
    44   22   23 1    
    45   22   24 1    
    46   22   80 1    
    47   23   81 1    
    48   23   82 1    
    49   23   83 1    
    50   24   25 am   BACKBONE|DICT|INTERRES
    51   24   84 1    
    52   25   26 2    
    53   27   28 2    
    54   27   29 am   BACKBONE|DICT|INTERRES
    55   29   30 1    
    56   29   85 1    
    57   30   31 1    
    58   30   32 1    
    59   30   86 1    
    60   31   87 1    
    61   31   88 1    
    62   31   89 1    
    63   32   33 2    
    64   32   34 am   BACKBONE|DICT|INTERRES
    65   34   35 1    
    66   34   90 1    
    67   35   36 1    
    68   35   37 1    
    69   35   91 1    
    70   36   92 1    
    71   36   93 1    
    72   36   94 1    
    73   37   38 2    
    74   37   39 am   BACKBONE|DICT|INTERRES
    75   39   40 1    
    76   39   95 1    
    77   40   41 1    
    78   40   42 1    
    79   40   96 1    
    80   41   97 1    
    81   41   98 1    
    82   41   99 1    
    83   42   43 2    
    84   42   44 am   BACKBONE|DICT|INTERRES
    85   44   45 1    
    86   44  100 1    
    87   45   46 1    
    88   45   47 1    
    89   45  101 1    
    90   46  102 1    
    91   46  103 1    
    92   46  104 1    
    93   47   48 2    
    94   47   49 am   BACKBONE|DICT|INTERRES
    95   49   50 1    
    96   49  105 1    
    97   50   51 1    
    98   50   52 1    
    99   50  106 1    
   100   51  107 1    
   101   51  108 1    
   102   51  109 1    
   103   52   53 2    
   104   52   54 am   BACKBONE|DICT|INTERRES
   105   54   55 1    
   106   54  110 1    
   107   55   56 1    
   108   55   59 1    
   109   55  111 1    
   110   56   57 am   BACKBONE|DICT|INTERRES
   111   56   58 2    
   112   57  112 1    
   113   57  113 1    
   114   59   60 1    
   115   59  114 1    
   116   59  115 1    
   117   60   61 1    
   118   61  116 1    
   119   61  117 1    
@<TRIPOS>SUBSTRUCTURE
     1 UNK         1 GROUP             0       ****    0 ROOT    
