@<TRIPOS>MOLECULE
3R8
117   119    1
SMALL
USER_CHARGES


@<TRIPOS>ATOM
      1 CA         19.3006  -23.1846  -47.4131 C.3       0 UNK        -0.2013 
      2 C          20.0521  -24.5067  -47.3734 C.2       0 UNK         0.4866 
      3 O          21.1815  -24.5811  -47.8573 O.2       0 UNK        -0.5176 
      4 N          19.4285  -25.5479  -46.8060 N.am      1 UNK        -0.4884 
      5 CA         20.0085  -26.8836  -46.6136 C.3       1 UNK         0.0853 
      6 C6         18.9485  -27.9317  -46.1802 C.3       10 UNK        -0.0849 
      7 S7         19.3867  -29.6170  -46.7182 S.3       10 UNK        -0.2776 
      8 C8         17.8435  -30.5217  -46.3809 C.3       10 UNK         0.0316 
      9 C9         17.5810  -30.6694  -44.8887 C.ar      10 UNK        -0.0863 
     10 C10        18.2881  -31.6154  -44.1415 C.ar      10 UNK        -0.1009 
     11 C11        18.0388  -31.7721  -42.7746 C.ar      10 UNK        -0.0712 
     12 C12        17.0779  -30.9700  -42.1509 C.ar      10 UNK        -0.0894 
     13 C13        16.3595  -30.0251  -42.8902 C.ar      10 UNK        -0.0745 
     14 C14        16.6152  -29.8803  -44.2579 C.ar      10 UNK        -0.0972 
     15 C15        15.2771  -29.1840  -42.2305 C.3       10 UNK         0.0209 
     16 S16        15.7421  -27.4275  -42.1448 S.3       10 UNK        -0.2568 
     17 C17        16.7397  -27.3525  -40.6166 C.3       10 UNK        -0.0983 
     18 CA         18.2745  -27.4239  -40.8393 C.3       3 UNK         0.0876 
     19 N          18.7125  -26.6050  -41.9769 N.am      3 UNK        -0.4424 
     20 C          19.9595  -26.5309  -42.4554 C.2       2 UNK         0.4918 
     21 O          20.9444  -27.0382  -41.9138 O.2       2 UNK        -0.4875 
     22 CA         20.1374  -25.7234  -43.7444 C.3       2 UNK         0.0481 
     23 CB         20.4503  -24.2557  -43.4123 C.3       2 UNK        -0.1831 
     24 N          21.2555  -26.2903  -44.4989 N.am      2 UNK        -0.4498 
     25 C          21.2620  -26.8930  -45.6992 C.2       1 UNK         0.5027 
     26 O          22.2817  -27.4424  -46.1135 O.2       1 UNK        -0.4969 
     27 C          19.0041  -27.0762  -39.5238 C.2       3 UNK         0.5005 
     28 O          19.3167  -27.9752  -38.7430 O.2       3 UNK        -0.5279 
     29 N          19.2555  -25.7755  -39.3085 N.am      4 UNK        -0.4463 
     30 CA         19.9481  -25.2413  -38.1332 C.3       4 UNK         0.0283 
     31 CB         19.6582  -23.7365  -38.0110 C.3       4 UNK        -0.1875 
     32 C          21.4650  -25.4936  -38.1594 C.2       4 UNK         0.4949 
     33 O          22.0642  -25.6560  -37.0963 O.2       4 UNK        -0.5039 
     34 N          22.0586  -25.5160  -39.3613 N.am      5 UNK        -0.4663 
     35 CA         23.4729  -25.8357  -39.5727 C.3       5 UNK         0.0242 
     36 CB         23.9310  -25.2844  -40.9338 C.3       5 UNK        -0.1982 
     37 C          23.7209  -27.3487  -39.4837 C.2       5 UNK         0.5017 
     38 O          24.7052  -27.7696  -38.8765 O.2       5 UNK        -0.5012 
     39 N          22.8103  -28.1242  -40.0902 N.am      6 UNK        -0.4439 
     40 CA         22.7342  -29.5879  -40.1132 C.3       6 UNK         0.0297 
     41 CB         22.4831  -30.1487  -38.6984 C.3       6 UNK        -0.2006 
     42 C          23.9078  -30.2897  -40.8257 C.2       6 UNK         0.4892 
     43 O          24.0891  -31.4945  -40.6482 O.2       6 UNK        -0.5089 
     44 N          24.6680  -29.5477  -41.6437 N.am      7 UNK        -0.4243 
     45 CA         25.8291  -30.0442  -42.3898 C.3       7 UNK         0.0196 
     46 CB         26.5893  -28.8508  -42.9906 C.3       7 UNK        -0.2007 
     47 C          25.4669  -31.0613  -43.4866 C.2       7 UNK         0.5020 
     48 O          26.2733  -31.9409  -43.7883 O.2       7 UNK        -0.5147 
     49 N          24.2639  -30.9247  -44.0580 N.am      8 UNK        -0.4734 
     50 CA         23.7211  -31.8196  -45.0825 C.3       8 UNK         0.0238 
     51 CB         22.7143  -31.0287  -45.9337 C.3       8 UNK        -0.1912 
     52 C          23.0486  -33.0769  -44.5016 C.2       8 UNK         0.5038 
     53 O          22.7723  -34.0060  -45.2622 O.2       8 UNK        -0.5046 
     54 N          22.7576  -33.0764  -43.1947 N.am      9 UNK        -0.4200 
     55 CA         22.0258  -34.1443  -42.5003 C.3       9 UNK         0.0839 
     56 C          22.8941  -35.4079  -42.2604 C.2       9 UNK         0.5513 
     57 N          22.2699  -36.5735  -42.1569 N.am      9 UNK        -0.7519 
     58 O          24.1150  -35.3428  -42.1312 O.2       9 UNK        -0.4960 
     59 C59        21.3838  -33.6436  -41.1780 C.3       10 UNK        -0.0876 
     60 S60        20.3859  -32.1320  -41.4036 S.3       10 UNK        -0.2414 
     61 C61        18.8084  -32.8154  -41.9820 C.3       10 UNK         0.0169 
     62 H62        19.1643  -22.8612  -48.4448 H         1 UNK         0.0903 
     63 H63        18.3176  -23.2582  -46.9483 H         1 UNK         0.0903 
     64 H64        19.8666  -22.4162  -46.8872 H         1 UNK         0.0903 
     65 H65        18.4946  -25.4180  -46.4446 H         1 UNK         0.3096 
     66 H66        20.3621  -27.1764  -47.6054 H         1 UNK         0.1121 
     67 H67        18.7876  -27.9324  -45.1012 H         1 UNK         0.0849 
     68 H68        17.9830  -27.6924  -46.6287 H         1 UNK         0.0849 
     69 H69        17.9117  -31.5122  -46.8332 H         1 UNK         0.0865 
     70 H70        17.0098  -30.0216  -46.8764 H         1 UNK         0.0865 
     71 H71        19.0365  -32.2294  -44.6246 H         1 UNK         0.1346 
     72 H72        16.8839  -31.0901  -41.0937 H         1 UNK         0.1412 
     73 H73        16.0563  -29.1520  -44.8299 H         1 UNK         0.1426 
     74 H74        15.0337  -29.5575  -41.2348 H         1 UNK         0.0716 
     75 H75        14.3610  -29.2709  -42.8165 H         1 UNK         0.0716 
     76 H76        16.4700  -26.4149  -40.1259 H         1 UNK         0.0695 
     77 H77        16.4212  -28.1437  -39.9354 H         1 UNK         0.0695 
     78 H78        18.5320  -28.4570  -41.0845 H         1 UNK         0.0983 
     79 H79        17.9640  -26.1559  -42.4857 H         1 UNK         0.3095 
     80 H80        19.2013  -25.7677  -44.2964 H         1 UNK         0.0454 
     81 H81        21.3567  -24.1583  -42.8132 H         1 UNK         0.0851 
     82 H82        20.5885  -23.6670  -44.3191 H         1 UNK         0.0851 
     83 H83        19.6360  -23.7957  -42.8511 H         1 UNK         0.0851 
     84 H84        22.1001  -26.3733  -43.9521 H         1 UNK         0.2976 
     85 H85        18.9452  -25.1091  -40.0009 H         1 UNK         0.3116 
     86 H86        19.5468  -25.7362  -37.2459 H         1 UNK         0.0646 
     87 H87        20.1413  -23.3179  -37.1269 H         1 UNK         0.0847 
     88 H88        18.5896  -23.5439  -37.9142 H         1 UNK         0.0847 
     89 H89        20.0244  -23.1804  -38.8749 H         1 UNK         0.0847 
     90 H90        21.4841  -25.4088  -40.1843 H         1 UNK         0.3040 
     91 H91        24.0655  -25.3527  -38.7920 H         1 UNK         0.1015 
     92 H92        23.8082  -24.2023  -40.9829 H         1 UNK         0.0786 
     93 H93        23.3736  -25.7218  -41.7625 H         1 UNK         0.0786 
     94 H94        24.9875  -25.4968  -41.1035 H         1 UNK         0.0786 
     95 H95        22.0722  -27.6565  -40.6147 H         1 UNK         0.3172 
     96 H96        21.8516  -29.8044  -40.7132 H         1 UNK         0.0595 
     97 H97        21.6292  -29.6618  -38.2269 H         1 UNK         0.0839 
     98 H98        23.3491  -30.0141  -38.0499 H         1 UNK         0.0839 
     99 H99        22.2643  -31.2166  -38.7333 H         1 UNK         0.0839 
    100 H100       24.4516  -28.5659  -41.7303 H         1 UNK         0.2998 
    101 H101       26.4890  -30.5498  -41.6812 H         1 UNK         0.0822 
    102 H102       26.9243  -28.1619  -42.2147 H         1 UNK         0.0787 
    103 H103       27.4770  -29.1856  -43.5295 H         1 UNK         0.0787 
    104 H104       25.9724  -28.2910  -43.6951 H         1 UNK         0.0787 
    105 H105       23.6727  -30.1639  -43.7559 H         1 UNK         0.3055 
    106 H106       24.5319  -32.1560  -45.7330 H         1 UNK         0.1106 
    107 H107       22.2941  -31.6488  -46.7268 H         1 UNK         0.0828 
    108 H108       21.8811  -30.6622  -45.3327 H         1 UNK         0.0828 
    109 H109       23.1842  -30.1693  -46.4124 H         1 UNK         0.0828 
    110 H110       23.0773  -32.3115  -42.6178 H         1 UNK         0.2931 
    111 H111       21.2094  -34.4434  -43.1609 H         1 UNK         0.0412 
    112 H112       21.2687  -36.6417  -42.2563 H         1 UNK         0.3472 
    113 H113       22.8128  -37.4063  -41.9874 H         1 UNK         0.3472 
    114 H114       20.7560  -34.4181  -40.7336 H         1 UNK         0.0970 
    115 H115       22.1586  -33.4247  -40.4409 H         1 UNK         0.0970 
    116 H116       18.2269  -33.1601  -41.1257 H         1 UNK         0.0612 
    117 H117       18.9866  -33.6900  -42.6090 H         1 UNK         0.0612 
@<TRIPOS>BOND
     1    1    2 1    
     2    1   62 1    
     3    1   63 1    
     4    1   64 1    
     5    2    3 2    
     6    2    4 am   BACKBONE|DICT|INTERRES
     7    4    5 1    
     8    4   65 1    
     9    5    6 1    
    10    5   25 1    
    11    5   66 1    
    12    6    7 1    
    13    6   67 1    
    14    6   68 1    
    15    7    8 1    
    16    8    9 1    
    17    8   69 1    
    18    8   70 1    
    19    9   10 ar   
    20    9   14 ar   
    21   10   11 ar   
    22   10   71 1    
    23   11   12 ar   
    24   11   61 1    
    25   12   13 ar   
    26   12   72 1    
    27   13   14 ar   
    28   13   15 1    
    29   14   73 1    
    30   15   16 1    
    31   15   74 1    
    32   15   75 1    
    33   16   17 1    
    34   17   18 1    
    35   17   76 1    
    36   17   77 1    
    37   18   19 1    
    38   18   27 1    
    39   18   78 1    
    40   19   20 am   BACKBONE|DICT|INTERRES
    41   19   79 1    
    42   20   21 2    
    43   20   22 1    
    44   22   23 1    
    45   22   24 1    
    46   22   80 1    
    47   23   81 1    
    48   23   82 1    
    49   23   83 1    
    50   24   25 am   BACKBONE|DICT|INTERRES
    51   24   84 1    
    52   25   26 2    
    53   27   28 2    
    54   27   29 am   BACKBONE|DICT|INTERRES
    55   29   30 1    
    56   29   85 1    
    57   30   31 1    
    58   30   32 1    
    59   30   86 1    
    60   31   87 1    
    61   31   88 1    
    62   31   89 1    
    63   32   33 2    
    64   32   34 am   BACKBONE|DICT|INTERRES
    65   34   35 1    
    66   34   90 1    
    67   35   36 1    
    68   35   37 1    
    69   35   91 1    
    70   36   92 1    
    71   36   93 1    
    72   36   94 1    
    73   37   38 2    
    74   37   39 am   BACKBONE|DICT|INTERRES
    75   39   40 1    
    76   39   95 1    
    77   40   41 1    
    78   40   42 1    
    79   40   96 1    
    80   41   97 1    
    81   41   98 1    
    82   41   99 1    
    83   42   43 2    
    84   42   44 am   BACKBONE|DICT|INTERRES
    85   44   45 1    
    86   44  100 1    
    87   45   46 1    
    88   45   47 1    
    89   45  101 1    
    90   46  102 1    
    91   46  103 1    
    92   46  104 1    
    93   47   48 2    
    94   47   49 am   BACKBONE|DICT|INTERRES
    95   49   50 1    
    96   49  105 1    
    97   50   51 1    
    98   50   52 1    
    99   50  106 1    
   100   51  107 1    
   101   51  108 1    
   102   51  109 1    
   103   52   53 2    
   104   52   54 am   BACKBONE|DICT|INTERRES
   105   54   55 1    
   106   54  110 1    
   107   55   56 1    
   108   55   59 1    
   109   55  111 1    
   110   56   57 am   BACKBONE|DICT|INTERRES
   111   56   58 2    
   112   57  112 1    
   113   57  113 1    
   114   59   60 1    
   115   59  114 1    
   116   59  115 1    
   117   60   61 1    
   118   61  116 1    
   119   61  117 1    
@<TRIPOS>SUBSTRUCTURE
     1 UNK         1 GROUP             0       ****    0 ROOT    
