@<TRIPOS>MOLECULE
3R8
117   119    1
SMALL
USER_CHARGES


@<TRIPOS>ATOM
      1 CA         15.7123  -25.0579  -47.4719 C.3       0 UNK        -0.2013 
      2 C          16.9537  -24.7876  -46.6348 C.2       0 UNK         0.4866 
      3 O          17.0715  -23.7147  -46.0416 O.2       0 UNK        -0.5176 
      4 N          17.8849  -25.7476  -46.5900 N.am      1 UNK        -0.4884 
      5 CA         19.1021  -25.7023  -45.7740 C.3       1 UNK         0.0853 
      6 C6         20.1745  -26.6981  -46.2877 C.3       10 UNK        -0.0849 
      7 S7         19.5721  -28.4134  -46.5039 S.3       10 UNK        -0.2776 
      8 C8         20.4376  -29.3168  -45.1812 C.3       10 UNK         0.0316 
      9 C9         19.4675  -30.0976  -44.3063 C.ar      10 UNK        -0.0863 
     10 C10        18.7944  -31.2148  -44.8114 C.ar      10 UNK        -0.1009 
     11 C11        17.8932  -31.9228  -44.0092 C.ar      10 UNK        -0.0712 
     12 C12        17.6799  -31.5162  -42.6879 C.ar      10 UNK        -0.0894 
     13 C13        18.3497  -30.4046  -42.1708 C.ar      10 UNK        -0.0745 
     14 C14        19.2393  -29.7005  -42.9864 C.ar      10 UNK        -0.0972 
     15 C15        18.1006  -29.9482  -40.7408 C.3       10 UNK         0.0209 
     16 S16        19.4616  -30.4649  -39.6499 S.3       10 UNK        -0.2568 
     17 C17        19.7779  -28.9579  -38.6704 C.3       10 UNK        -0.0983 
     18 CA         20.6869  -27.9628  -39.4400 C.3       3 UNK         0.0876 
     19 N          19.9060  -27.0197  -40.2534 N.am      3 UNK        -0.4424 
     20 C          20.3499  -26.4343  -41.3717 C.2       2 UNK         0.4918 
     21 O          21.4427  -26.6818  -41.8889 O.2       2 UNK        -0.4875 
     22 CA         19.4507  -25.3394  -41.9578 C.3       2 UNK         0.0481 
     23 CB         19.8269  -23.9730  -41.3603 C.3       2 UNK        -0.1831 
     24 N          19.5911  -25.2764  -43.4114 N.am      2 UNK        -0.4498 
     25 C          18.7833  -25.9025  -44.2762 C.2       1 UNK         0.5027 
     26 O          17.8283  -26.6054  -43.9344 O.2       1 UNK        -0.4969 
     27 C          21.7009  -27.2381  -38.5247 C.2       3 UNK         0.5005 
     28 O          22.5980  -27.8848  -37.9848 O.2       3 UNK        -0.5279 
     29 N          21.5905  -25.9064  -38.4140 N.am      4 UNK        -0.4463 
     30 CA         22.6289  -25.0261  -37.8730 C.3       4 UNK         0.0283 
     31 CB         21.9751  -23.7113  -37.4151 C.3       4 UNK        -0.1875 
     32 C          23.7561  -24.7401  -38.8894 C.2       4 UNK         0.4949 
     33 O          24.7782  -24.1772  -38.4966 O.2       4 UNK        -0.5039 
     34 N          23.5492  -25.1008  -40.1649 N.am      5 UNK        -0.4663 
     35 CA         24.4787  -24.8931  -41.2710 C.3       5 UNK         0.0242 
     36 CB         23.7949  -24.0214  -42.3463 C.3       5 UNK        -0.1982 
     37 C          24.9615  -26.2596  -41.7846 C.2       5 UNK         0.5017 
     38 O          25.7685  -26.8971  -41.1073 O.2       5 UNK        -0.5012 
     39 N          24.4929  -26.6699  -42.9725 N.am      6 UNK        -0.4439 
     40 CA         24.9352  -27.8670  -43.6930 C.3       6 UNK         0.0297 
     41 CB         24.3523  -27.8577  -45.1162 C.3       6 UNK        -0.2006 
     42 C          24.6061  -29.1900  -42.9826 C.2       6 UNK         0.4892 
     43 O          25.4625  -30.0742  -42.9545 O.2       6 UNK        -0.5089 
     44 N          23.3826  -29.2953  -42.4358 N.am      7 UNK        -0.4243 
     45 CA         22.8563  -30.4419  -41.6746 C.3       7 UNK         0.0196 
     46 CB         23.5196  -30.4896  -40.2822 C.3       7 UNK        -0.2007 
     47 C          22.9607  -31.7981  -42.4058 C.2       7 UNK         0.5020 
     48 O          23.2926  -32.8078  -41.7823 O.2       7 UNK        -0.5147 
     49 N          22.6928  -31.7973  -43.7200 N.am      8 UNK        -0.4734 
     50 CA         22.9183  -32.9262  -44.6344 C.3       8 UNK         0.0238 
     51 CB         22.5477  -32.5099  -46.0672 C.3       8 UNK        -0.1912 
     52 C          22.1986  -34.2344  -44.2600 C.2       8 UNK         0.5038 
     53 O          22.7325  -35.3087  -44.5407 O.2       8 UNK        -0.5046 
     54 N          21.0211  -34.1232  -43.6340 N.am      9 UNK        -0.4200 
     55 CA         20.2382  -35.2627  -43.1294 C.3       9 UNK         0.0839 
     56 C          20.6741  -35.7574  -41.7188 C.2       9 UNK         0.5513 
     57 N          21.6506  -35.1464  -41.0579 N.am      9 UNK        -0.7519 
     58 O          20.1190  -36.7305  -41.2148 O.2       9 UNK        -0.4960 
     59 C59        18.7119  -34.9964  -43.1941 C.3       10 UNK        -0.0876 
     60 S60        18.1589  -34.5611  -44.8802 S.3       10 UNK        -0.2414 
     61 C61        17.1153  -33.1008  -44.5802 C.3       10 UNK         0.0169 
     62 H62        14.8226  -25.0267  -46.8435 H         1 UNK         0.0903 
     63 H63        15.6093  -24.2991  -48.2471 H         1 UNK         0.0903 
     64 H64        15.7516  -26.0337  -47.9558 H         1 UNK         0.0903 
     65 H65        17.7248  -26.6279  -47.0604 H         1 UNK         0.3096 
     66 H66        19.5182  -24.6972  -45.8786 H         1 UNK         0.1121 
     67 H67        20.5224  -26.3617  -47.2657 H         1 UNK         0.0849 
     68 H68        21.0619  -26.6736  -45.6538 H         1 UNK         0.0849 
     69 H69        21.1513  -29.9980  -45.6418 H         1 UNK         0.0865 
     70 H70        21.0226  -28.6326  -44.5666 H         1 UNK         0.0865 
     71 H71        18.9563  -31.5227  -45.8355 H         1 UNK         0.1346 
     72 H72        16.9813  -32.0574  -42.0644 H         1 UNK         0.1412 
     73 H73        19.7514  -28.8377  -42.5909 H         1 UNK         0.1426 
     74 H74        17.9787  -28.8655  -40.7266 H         1 UNK         0.0716 
     75 H75        17.1658  -30.3614  -40.3592 H         1 UNK         0.0716 
     76 H76        20.2512  -29.2957  -37.7461 H         1 UNK         0.0695 
     77 H77        18.8355  -28.4985  -38.3677 H         1 UNK         0.0695 
     78 H78        21.3166  -28.5379  -40.1177 H         1 UNK         0.0983 
     79 H79        18.9969  -26.7644  -39.8936 H         1 UNK         0.3095 
     80 H80        18.4126  -25.5520  -41.6929 H         1 UNK         0.0454 
     81 H81        20.8718  -23.7185  -41.5391 H         1 UNK         0.0851 
     82 H82        19.2149  -23.1764  -41.7840 H         1 UNK         0.0851 
     83 H83        19.6667  -23.9549  -40.2819 H         1 UNK         0.0851 
     84 H84        20.3820  -24.7553  -43.7611 H         1 UNK         0.2976 
     85 H85        20.7973  -25.4553  -38.8433 H         1 UNK         0.3116 
     86 H86        23.0832  -25.5031  -37.0018 H         1 UNK         0.0646 
     87 H87        21.2045  -23.8902  -36.6650 H         1 UNK         0.0847 
     88 H88        22.7125  -23.0454  -36.9645 H         1 UNK         0.0847 
     89 H89        21.5185  -23.1734  -38.2469 H         1 UNK         0.0847 
     90 H90        22.7148  -25.6228  -40.3951 H         1 UNK         0.3040 
     91 H91        25.3691  -24.3604  -40.9295 H         1 UNK         0.1015 
     92 H92        22.8771  -24.4702  -42.7261 H         1 UNK         0.0786 
     93 H93        24.4596  -23.8477  -43.1939 H         1 UNK         0.0786 
     94 H94        23.5360  -23.0423  -41.9426 H         1 UNK         0.0786 
     95 H95        23.8101  -26.0868  -43.4335 H         1 UNK         0.3172 
     96 H96        26.0225  -27.8086  -43.7790 H         1 UNK         0.0595 
     97 H97        23.2630  -27.8473  -45.1110 H         1 UNK         0.0839 
     98 H98        24.6673  -28.7415  -45.6733 H         1 UNK         0.0839 
     99 H99        24.6926  -26.9876  -45.6780 H         1 UNK         0.0839 
    100 H100       22.7780  -28.4844  -42.4922 H         1 UNK         0.2998 
    101 H101       21.7905  -30.2623  -41.5399 H         1 UNK         0.0822 
    102 H102       22.9927  -31.1783  -39.6205 H         1 UNK         0.0787 
    103 H103       24.5569  -30.8211  -40.3435 H         1 UNK         0.0787 
    104 H104       23.5207  -29.5122  -39.8039 H         1 UNK         0.0787 
    105 H105       22.4351  -30.9198  -44.1424 H         1 UNK         0.3055 
    106 H106       23.9894  -33.1394  -44.6099 H         1 UNK         0.1106 
    107 H107       23.0952  -31.6215  -46.3826 H         1 UNK         0.0828 
    108 H108       22.7905  -33.3033  -46.7756 H         1 UNK         0.0828 
    109 H109       21.4806  -32.3086  -46.1659 H         1 UNK         0.0828 
    110 H110       20.6557  -33.2026  -43.4405 H         1 UNK         0.2931 
    111 H111       20.4254  -36.1097  -43.7924 H         1 UNK         0.0412 
    112 H112       21.9153  -35.4912  -40.1490 H         1 UNK         0.3472 
    113 H113       22.1435  -34.3515  -41.4535 H         1 UNK         0.3472 
    114 H114       18.1561  -35.8845  -42.8875 H         1 UNK         0.0970 
    115 H115       18.4361  -34.2137  -42.4872 H         1 UNK         0.0970 
    116 H116       16.6570  -32.8002  -45.5233 H         1 UNK         0.0612 
    117 H117       16.2940  -33.3824  -43.9193 H         1 UNK         0.0612 
@<TRIPOS>BOND
     1    1    2 1    
     2    1   62 1    
     3    1   63 1    
     4    1   64 1    
     5    2    3 2    
     6    2    4 am   BACKBONE|DICT|INTERRES
     7    4    5 1    
     8    4   65 1    
     9    5    6 1    
    10    5   25 1    
    11    5   66 1    
    12    6    7 1    
    13    6   67 1    
    14    6   68 1    
    15    7    8 1    
    16    8    9 1    
    17    8   69 1    
    18    8   70 1    
    19    9   10 ar   
    20    9   14 ar   
    21   10   11 ar   
    22   10   71 1    
    23   11   12 ar   
    24   11   61 1    
    25   12   13 ar   
    26   12   72 1    
    27   13   14 ar   
    28   13   15 1    
    29   14   73 1    
    30   15   16 1    
    31   15   74 1    
    32   15   75 1    
    33   16   17 1    
    34   17   18 1    
    35   17   76 1    
    36   17   77 1    
    37   18   19 1    
    38   18   27 1    
    39   18   78 1    
    40   19   20 am   BACKBONE|DICT|INTERRES
    41   19   79 1    
    42   20   21 2    
    43   20   22 1    
    44   22   23 1    
    45   22   24 1    
    46   22   80 1    
    47   23   81 1    
    48   23   82 1    
    49   23   83 1    
    50   24   25 am   BACKBONE|DICT|INTERRES
    51   24   84 1    
    52   25   26 2    
    53   27   28 2    
    54   27   29 am   BACKBONE|DICT|INTERRES
    55   29   30 1    
    56   29   85 1    
    57   30   31 1    
    58   30   32 1    
    59   30   86 1    
    60   31   87 1    
    61   31   88 1    
    62   31   89 1    
    63   32   33 2    
    64   32   34 am   BACKBONE|DICT|INTERRES
    65   34   35 1    
    66   34   90 1    
    67   35   36 1    
    68   35   37 1    
    69   35   91 1    
    70   36   92 1    
    71   36   93 1    
    72   36   94 1    
    73   37   38 2    
    74   37   39 am   BACKBONE|DICT|INTERRES
    75   39   40 1    
    76   39   95 1    
    77   40   41 1    
    78   40   42 1    
    79   40   96 1    
    80   41   97 1    
    81   41   98 1    
    82   41   99 1    
    83   42   43 2    
    84   42   44 am   BACKBONE|DICT|INTERRES
    85   44   45 1    
    86   44  100 1    
    87   45   46 1    
    88   45   47 1    
    89   45  101 1    
    90   46  102 1    
    91   46  103 1    
    92   46  104 1    
    93   47   48 2    
    94   47   49 am   BACKBONE|DICT|INTERRES
    95   49   50 1    
    96   49  105 1    
    97   50   51 1    
    98   50   52 1    
    99   50  106 1    
   100   51  107 1    
   101   51  108 1    
   102   51  109 1    
   103   52   53 2    
   104   52   54 am   BACKBONE|DICT|INTERRES
   105   54   55 1    
   106   54  110 1    
   107   55   56 1    
   108   55   59 1    
   109   55  111 1    
   110   56   57 am   BACKBONE|DICT|INTERRES
   111   56   58 2    
   112   57  112 1    
   113   57  113 1    
   114   59   60 1    
   115   59  114 1    
   116   59  115 1    
   117   60   61 1    
   118   61  116 1    
   119   61  117 1    
@<TRIPOS>SUBSTRUCTURE
     1 UNK         1 GROUP             0       ****    0 ROOT    
