@<TRIPOS>MOLECULE
3R8
117   119    1
SMALL
USER_CHARGES


@<TRIPOS>ATOM
      1 CA         17.7839  -22.2528  -41.1708 C.3       0 UNK        -0.2013 
      2 C          18.2983  -23.4052  -42.0217 C.2       0 UNK         0.4866 
      3 O          19.4266  -23.8476  -41.8125 O.2       0 UNK        -0.5176 
      4 N          17.4648  -23.8812  -42.9589 N.am      1 UNK        -0.4884 
      5 CA         17.7018  -24.9482  -43.9441 C.3       1 UNK         0.0853 
      6 C6         18.1805  -26.3018  -43.3485 C.3       10 UNK        -0.0849 
      7 S7         17.0224  -26.9984  -42.1213 S.3       10 UNK        -0.2776 
      8 C8         16.1130  -28.2403  -43.0993 C.3       10 UNK         0.0316 
      9 C9         16.9871  -29.4121  -43.5316 C.ar      10 UNK        -0.0863 
     10 C10        17.4666  -30.3236  -42.5847 C.ar      10 UNK        -0.1009 
     11 C11        18.2411  -31.4199  -42.9788 C.ar      10 UNK        -0.0712 
     12 C12        18.5377  -31.5952  -44.3339 C.ar      10 UNK        -0.0894 
     13 C13        18.0760  -30.6872  -45.2915 C.ar      10 UNK        -0.0745 
     14 C14        17.2894  -29.6043  -44.8838 C.ar      10 UNK        -0.0972 
     15 C15        18.4201  -30.9014  -46.7636 C.3       10 UNK         0.0209 
     16 S16        19.0800  -29.4150  -47.5929 S.3       10 UNK        -0.2568 
     17 C17        20.4861  -28.9719  -46.5145 C.3       10 UNK        -0.0983 
     18 CA         21.1258  -27.5998  -46.8620 C.3       3 UNK         0.0876 
     19 N          20.1044  -26.5585  -46.9955 N.am      3 UNK        -0.4424 
     20 C          20.2289  -25.3927  -47.6410 C.2       2 UNK         0.4918 
     21 O          21.2341  -25.0546  -48.2649 O.2       2 UNK        -0.4875 
     22 CA         19.0314  -24.4262  -47.5311 C.3       2 UNK         0.0481 
     23 CB         18.1426  -24.5331  -48.7801 C.3       2 UNK        -0.1831 
     24 N          18.2124  -24.6485  -46.3285 N.am      2 UNK        -0.4498 
     25 C          18.6527  -24.4919  -45.0698 C.2       1 UNK         0.5027 
     26 O          19.7864  -24.0882  -44.8051 O.2       1 UNK        -0.4969 
     27 C          22.2004  -27.2502  -45.8041 C.2       3 UNK         0.5005 
     28 O          23.1118  -28.0531  -45.6017 O.2       3 UNK        -0.5279 
     29 N          22.0445  -26.1242  -45.0855 N.am      4 UNK        -0.4463 
     30 CA         22.8101  -25.6499  -43.9200 C.3       4 UNK         0.0283 
     31 CB         24.3192  -25.5377  -44.2131 C.3       4 UNK        -0.1875 
     32 C          22.5429  -26.4481  -42.6294 C.2       4 UNK         0.4949 
     33 O          22.5424  -25.8519  -41.5530 O.2       4 UNK        -0.5039 
     34 N          22.2853  -27.7564  -42.7639 N.am      5 UNK        -0.4663 
     35 CA         21.8785  -28.7141  -41.7340 C.3       5 UNK         0.0242 
     36 CB         20.4451  -28.4117  -41.2447 C.3       5 UNK        -0.1982 
     37 C          22.9108  -28.8455  -40.6016 C.2       5 UNK         0.5017 
     38 O          23.8967  -29.5619  -40.7780 O.2       5 UNK        -0.5012 
     39 N          22.6551  -28.1759  -39.4662 N.am      6 UNK        -0.4439 
     40 CA         23.4803  -28.1291  -38.2508 C.3       6 UNK         0.0297 
     41 CB         24.7864  -27.3510  -38.5185 C.3       6 UNK        -0.2006 
     42 C          23.7306  -29.5200  -37.6335 C.2       6 UNK         0.4892 
     43 O          24.8451  -29.8077  -37.1959 O.2       6 UNK        -0.5089 
     44 N          22.6936  -30.3722  -37.6579 N.am      7 UNK        -0.4243 
     45 CA         22.6365  -31.7759  -37.2140 C.3       7 UNK         0.0196 
     46 CB         22.9673  -31.9061  -35.7138 C.3       7 UNK        -0.2007 
     47 C          23.4683  -32.7684  -38.0522 C.2       7 UNK         0.5020 
     48 O          23.1633  -33.9614  -38.0337 O.2       7 UNK        -0.5147 
     49 N          24.4670  -32.2833  -38.8021 N.am      8 UNK        -0.4734 
     50 CA         25.3393  -33.0640  -39.6872 C.3       8 UNK         0.0238 
     51 CB         26.4634  -32.1552  -40.2101 C.3       8 UNK        -0.1912 
     52 C          24.6014  -33.7389  -40.8577 C.2       8 UNK         0.5038 
     53 O          25.1064  -34.7237  -41.3984 O.2       8 UNK        -0.5046 
     54 N          23.4205  -33.2156  -41.2090 N.am      9 UNK        -0.4200 
     55 CA         22.4717  -33.8212  -42.1512 C.3       9 UNK         0.0839 
     56 C          21.7786  -35.1225  -41.6438 C.2       9 UNK         0.5513 
     57 N          21.8761  -35.4846  -40.3688 N.am      9 UNK        -0.7519 
     58 O          21.1469  -35.8223  -42.4309 O.2       9 UNK        -0.4960 
     59 C59        21.4494  -32.7764  -42.6674 C.3       10 UNK        -0.0876 
     60 S60        20.4049  -32.0545  -41.3484 S.3       10 UNK        -0.2414 
     61 C61        18.7254  -32.4292  -41.9443 C.3       10 UNK         0.0169 
     62 H62        17.7792  -22.5374  -40.1189 H         1 UNK         0.0903 
     63 H63        16.7713  -21.9586  -41.4460 H         1 UNK         0.0903 
     64 H64        18.4319  -21.3842  -41.2855 H         1 UNK         0.0903 
     65 H65        16.5598  -23.4393  -43.0460 H         1 UNK         0.3096 
     66 H66        16.7264  -25.1293  -44.3989 H         1 UNK         0.1121 
     67 H67        19.1532  -26.1881  -42.8675 H         1 UNK         0.0849 
     68 H68        18.3381  -27.0355  -44.1400 H         1 UNK         0.0849 
     69 H69        15.2865  -28.6210  -42.4976 H         1 UNK         0.0865 
     70 H70        15.6571  -27.7528  -43.9624 H         1 UNK         0.0865 
     71 H71        17.2306  -30.1803  -41.5389 H         1 UNK         0.1346 
     72 H72        19.1223  -32.4470  -44.6490 H         1 UNK         0.1412 
     73 H73        16.9155  -28.9104  -45.6242 H         1 UNK         0.1426 
     74 H74        19.1496  -31.7051  -46.8759 H         1 UNK         0.0716 
     75 H75        17.5217  -31.2263  -47.2896 H         1 UNK         0.0716 
     76 H76        21.2286  -29.7693  -46.5842 H         1 UNK         0.0695 
     77 H77        20.1391  -28.9682  -45.4794 H         1 UNK         0.0695 
     78 H78        21.6407  -27.6942  -47.8205 H         1 UNK         0.0983 
     79 H79        19.2183  -26.7638  -46.5609 H         1 UNK         0.3095 
     80 H80        19.4313  -23.4113  -47.4816 H         1 UNK         0.0454 
     81 H81        17.3336  -23.8030  -48.7569 H         1 UNK         0.0851 
     82 H82        17.6996  -25.5250  -48.8790 H         1 UNK         0.0851 
     83 H83        18.7198  -24.3437  -49.6864 H         1 UNK         0.0851 
     84 H84        17.2693  -24.9765  -46.4843 H         1 UNK         0.2976 
     85 H85        21.2411  -25.5436  -45.3003 H         1 UNK         0.3116 
     86 H86        22.4414  -24.6396  -43.7338 H         1 UNK         0.0646 
     87 H87        24.5073  -24.9494  -45.1110 H         1 UNK         0.0847 
     88 H88        24.8352  -25.0451  -43.3881 H         1 UNK         0.0847 
     89 H89        24.7872  -26.5135  -44.3444 H         1 UNK         0.0847 
     90 H90        22.4248  -28.1418  -43.6920 H         1 UNK         0.3040 
     91 H91        21.8539  -29.6853  -42.2276 H         1 UNK         0.1015 
     92 H92        19.7322  -28.5372  -42.0591 H         1 UNK         0.0786 
     93 H93        20.3335  -27.3955  -40.8654 H         1 UNK         0.0786 
     94 H94        20.1402  -29.0986  -40.4543 H         1 UNK         0.0786 
     95 H95        21.8280  -27.5947  -39.4571 H         1 UNK         0.3172 
     96 H96        22.9075  -27.5675  -37.5115 H         1 UNK         0.0595 
     97 H97        24.5817  -26.3668  -38.9403 H         1 UNK         0.0839 
     98 H98        25.4388  -27.8826  -39.2122 H         1 UNK         0.0839 
     99 H99        25.3481  -27.1975  -37.5962 H         1 UNK         0.0839 
    100 H100       21.8394  -30.0274  -38.0737 H         1 UNK         0.2998 
    101 H101       21.5959  -32.0778  -37.3445 H         1 UNK         0.0822 
    102 H102       22.3393  -31.2510  -35.1101 H         1 UNK         0.0787 
    103 H103       22.7985  -32.9263  -35.3665 H         1 UNK         0.0787 
    104 H104       24.0088  -31.6632  -35.5018 H         1 UNK         0.0787 
    105 H105       24.6659  -31.2927  -38.7260 H         1 UNK         0.3055 
    106 H106       25.7878  -33.8610  -39.0902 H         1 UNK         0.1106 
    107 H107       27.0477  -31.7345  -39.3914 H         1 UNK         0.0828 
    108 H108       27.1528  -32.7117  -40.8466 H         1 UNK         0.0828 
    109 H109       26.0693  -31.3273  -40.8011 H         1 UNK         0.0828 
    110 H110       23.0914  -32.4042  -40.7070 H         1 UNK         0.2931 
    111 H111       23.0585  -34.1307  -43.0184 H         1 UNK         0.0412 
    112 H112       22.3809  -34.9161  -39.6987 H         1 UNK         0.3472 
    113 H113       21.4239  -36.3317  -40.0637 H         1 UNK         0.3472 
    114 H114       21.9764  -31.9629  -43.1675 H         1 UNK         0.0970 
    115 H115       20.8263  -33.2310  -43.4370 H         1 UNK         0.0970 
    116 H116       18.0502  -32.4290  -41.0873 H         1 UNK         0.0612 
    117 H117       18.6915  -33.4410  -42.3512 H         1 UNK         0.0612 
@<TRIPOS>BOND
     1    1    2 1    
     2    1   62 1    
     3    1   63 1    
     4    1   64 1    
     5    2    3 2    
     6    2    4 am   BACKBONE|DICT|INTERRES
     7    4    5 1    
     8    4   65 1    
     9    5    6 1    
    10    5   25 1    
    11    5   66 1    
    12    6    7 1    
    13    6   67 1    
    14    6   68 1    
    15    7    8 1    
    16    8    9 1    
    17    8   69 1    
    18    8   70 1    
    19    9   10 ar   
    20    9   14 ar   
    21   10   11 ar   
    22   10   71 1    
    23   11   12 ar   
    24   11   61 1    
    25   12   13 ar   
    26   12   72 1    
    27   13   14 ar   
    28   13   15 1    
    29   14   73 1    
    30   15   16 1    
    31   15   74 1    
    32   15   75 1    
    33   16   17 1    
    34   17   18 1    
    35   17   76 1    
    36   17   77 1    
    37   18   19 1    
    38   18   27 1    
    39   18   78 1    
    40   19   20 am   BACKBONE|DICT|INTERRES
    41   19   79 1    
    42   20   21 2    
    43   20   22 1    
    44   22   23 1    
    45   22   24 1    
    46   22   80 1    
    47   23   81 1    
    48   23   82 1    
    49   23   83 1    
    50   24   25 am   BACKBONE|DICT|INTERRES
    51   24   84 1    
    52   25   26 2    
    53   27   28 2    
    54   27   29 am   BACKBONE|DICT|INTERRES
    55   29   30 1    
    56   29   85 1    
    57   30   31 1    
    58   30   32 1    
    59   30   86 1    
    60   31   87 1    
    61   31   88 1    
    62   31   89 1    
    63   32   33 2    
    64   32   34 am   BACKBONE|DICT|INTERRES
    65   34   35 1    
    66   34   90 1    
    67   35   36 1    
    68   35   37 1    
    69   35   91 1    
    70   36   92 1    
    71   36   93 1    
    72   36   94 1    
    73   37   38 2    
    74   37   39 am   BACKBONE|DICT|INTERRES
    75   39   40 1    
    76   39   95 1    
    77   40   41 1    
    78   40   42 1    
    79   40   96 1    
    80   41   97 1    
    81   41   98 1    
    82   41   99 1    
    83   42   43 2    
    84   42   44 am   BACKBONE|DICT|INTERRES
    85   44   45 1    
    86   44  100 1    
    87   45   46 1    
    88   45   47 1    
    89   45  101 1    
    90   46  102 1    
    91   46  103 1    
    92   46  104 1    
    93   47   48 2    
    94   47   49 am   BACKBONE|DICT|INTERRES
    95   49   50 1    
    96   49  105 1    
    97   50   51 1    
    98   50   52 1    
    99   50  106 1    
   100   51  107 1    
   101   51  108 1    
   102   51  109 1    
   103   52   53 2    
   104   52   54 am   BACKBONE|DICT|INTERRES
   105   54   55 1    
   106   54  110 1    
   107   55   56 1    
   108   55   59 1    
   109   55  111 1    
   110   56   57 am   BACKBONE|DICT|INTERRES
   111   56   58 2    
   112   57  112 1    
   113   57  113 1    
   114   59   60 1    
   115   59  114 1    
   116   59  115 1    
   117   60   61 1    
   118   61  116 1    
   119   61  117 1    
@<TRIPOS>SUBSTRUCTURE
     1 UNK         1 GROUP             0       ****    0 ROOT    
