@<TRIPOS>MOLECULE
3R8
117   119    1
SMALL
USER_CHARGES


@<TRIPOS>ATOM
      1 CA         12.4354  -28.5974  -42.0591 C.3       0 UNK        -0.2013 
      2 C          13.7603  -28.4570  -42.7939 C.2       0 UNK         0.4866 
      3 O          14.5829  -29.3708  -42.7436 O.2       0 UNK        -0.5176 
      4 N          13.9640  -27.3223  -43.4774 N.am      1 UNK        -0.4884 
      5 CA         15.1793  -26.9510  -44.2103 C.3       1 UNK         0.0853 
      6 C6         15.4790  -27.8936  -45.4106 C.3       10 UNK        -0.0849 
      7 S7         16.6585  -27.1575  -46.5952 S.3       10 UNK        -0.2776 
      8 C8         17.4959  -28.6253  -47.2719 C.3       10 UNK         0.0316 
      9 C9         18.5676  -29.1810  -46.3415 C.ar      10 UNK        -0.0863 
     10 C10        18.2636  -30.2264  -45.4645 C.ar      10 UNK        -0.1009 
     11 C11        19.2569  -30.7939  -44.6629 C.ar      10 UNK        -0.0712 
     12 C12        20.5687  -30.3212  -44.7544 C.ar      10 UNK        -0.0894 
     13 C13        20.8905  -29.2783  -45.6284 C.ar      10 UNK        -0.0745 
     14 C14        19.8815  -28.7012  -46.4085 C.ar      10 UNK        -0.0972 
     15 C15        22.3433  -28.8446  -45.7875 C.3       10 UNK         0.0209 
     16 S16        22.9893  -27.9575  -44.3349 S.3       10 UNK        -0.2568 
     17 C17        22.4602  -26.2391  -44.6597 C.3       10 UNK        -0.0983 
     18 CA         21.8583  -25.5161  -43.4220 C.3       3 UNK         0.0876 
     19 N          20.7933  -26.2925  -42.7946 N.am      3 UNK        -0.4424 
     20 C          19.5636  -26.4316  -43.2906 C.2       2 UNK         0.4918 
     21 O          19.1571  -25.7976  -44.2676 O.2       2 UNK        -0.4875 
     22 CA         18.6743  -27.4888  -42.6074 C.3       2 UNK         0.0481 
     23 CB         18.5544  -27.2868  -41.0809 C.3       2 UNK        -0.1831 
     24 N          17.3627  -27.6017  -43.2543 N.am      2 UNK        -0.4498 
     25 C          16.3533  -26.7181  -43.2325 C.2       1 UNK         0.5027 
     26 O          16.3109  -25.7305  -42.4951 O.2       1 UNK        -0.4969 
     27 C          22.8997  -25.1296  -42.3542 C.2       3 UNK         0.5005 
     28 O          22.7993  -25.5757  -41.2074 O.2       3 UNK        -0.5279 
     29 N          23.8564  -24.2710  -42.7351 N.am      4 UNK        -0.4463 
     30 CA         24.8524  -23.6740  -41.8375 C.3       4 UNK         0.0283 
     31 CB         25.5476  -22.5079  -42.5597 C.3       4 UNK        -0.1875 
     32 C          25.9013  -24.6582  -41.2884 C.2       4 UNK         0.4949 
     33 O          26.4327  -24.4176  -40.2037 O.2       4 UNK        -0.5039 
     34 N          26.1933  -25.7304  -42.0321 N.am      5 UNK        -0.4663 
     35 CA         27.1454  -26.7756  -41.6640 C.3       5 UNK         0.0242 
     36 CB         28.5785  -26.3370  -42.0177 C.3       5 UNK        -0.1982 
     37 C          26.7666  -28.0620  -42.4024 C.2       5 UNK         0.5017 
     38 O          26.2429  -27.9811  -43.5145 O.2       5 UNK        -0.5012 
     39 N          27.0518  -29.2131  -41.7753 N.am      6 UNK        -0.4439 
     40 CA         26.7226  -30.5736  -42.2305 C.3       6 UNK         0.0297 
     41 CB         27.4547  -30.9201  -43.5453 C.3       6 UNK        -0.2006 
     42 C          25.2045  -30.8484  -42.3002 C.2       6 UNK         0.4892 
     43 O          24.7589  -31.6565  -43.1182 O.2       6 UNK        -0.5089 
     44 N          24.4356  -30.1910  -41.4209 N.am      7 UNK        -0.4243 
     45 CA         22.9877  -30.3406  -41.2900 C.3       7 UNK         0.0196 
     46 CB         22.4058  -29.0789  -40.6311 C.3       7 UNK        -0.2007 
     47 C          22.6382  -31.6187  -40.5126 C.2       7 UNK         0.5020 
     48 O          22.2815  -31.5494  -39.3356 O.2       7 UNK        -0.5147 
     49 N          22.7526  -32.7716  -41.1846 N.am      8 UNK        -0.4734 
     50 CA         22.4789  -34.1083  -40.6365 C.3       8 UNK         0.0238 
     51 CB         22.8295  -35.1658  -41.6957 C.3       8 UNK        -0.1912 
     52 C          21.0363  -34.3099  -40.1317 C.2       8 UNK         0.5038 
     53 O          20.8126  -35.1558  -39.2650 O.2       8 UNK        -0.5046 
     54 N          20.0985  -33.5220  -40.6698 N.am      9 UNK        -0.4200 
     55 CA         18.7079  -33.4096  -40.2129 C.3       9 UNK         0.0839 
     56 C          18.5151  -32.6017  -38.8944 C.2       9 UNK         0.5513 
     57 N          19.5301  -31.9395  -38.3504 N.am      9 UNK        -0.7519 
     58 O          17.4182  -32.5921  -38.3416 O.2       9 UNK        -0.4960 
     59 C59        17.7799  -32.9086  -41.3513 C.3       10 UNK        -0.0876 
     60 S60        18.3235  -31.3410  -42.1229 S.3       10 UNK        -0.2414 
     61 C61        18.9141  -31.9454  -43.7328 C.3       10 UNK         0.0169 
     62 H62        11.8954  -29.4708  -42.4238 H         1 UNK         0.0903 
     63 H63        12.6113  -28.7271  -40.9915 H         1 UNK         0.0903 
     64 H64        11.7976  -27.7240  -42.1940 H         1 UNK         0.0903 
     65 H65        13.2523  -26.6044  -43.4492 H         1 UNK         0.3096 
     66 H66        14.9624  -25.9673  -44.6313 H         1 UNK         0.1121 
     67 H67        15.8190  -28.8717  -45.0740 H         1 UNK         0.0849 
     68 H68        14.5561  -28.0838  -45.9606 H         1 UNK         0.0849 
     69 H69        16.7562  -29.3926  -47.5065 H         1 UNK         0.0865 
     70 H70        17.9519  -28.3534  -48.2251 H         1 UNK         0.0865 
     71 H71        17.2575  -30.6202  -45.4186 H         1 UNK         0.1346 
     72 H72        21.3479  -30.7817  -44.1652 H         1 UNK         0.1412 
     73 H73        20.1246  -27.9035  -47.0971 H         1 UNK         0.1426 
     74 H74        22.4762  -28.2322  -46.6806 H         1 UNK         0.0716 
     75 H75        22.9564  -29.7338  -45.9415 H         1 UNK         0.0716 
     76 H76        21.7137  -26.2508  -45.4552 H         1 UNK         0.0695 
     77 H77        23.3074  -25.6875  -45.0697 H         1 UNK         0.0695 
     78 H78        21.4247  -24.5718  -43.7596 H         1 UNK         0.0983 
     79 H79        21.0763  -26.7752  -41.9529 H         1 UNK         0.3095 
     80 H80        19.1630  -28.4491  -42.7743 H         1 UNK         0.0454 
     81 H81        19.5132  -27.4345  -40.5845 H         1 UNK         0.0851 
     82 H82        17.8573  -28.0015  -40.6431 H         1 UNK         0.0851 
     83 H83        18.2132  -26.2836  -40.8249 H         1 UNK         0.0851 
     84 H84        17.2944  -28.3581  -43.9203 H         1 UNK         0.2976 
     85 H85        23.8713  -23.9540  -43.6942 H         1 UNK         0.3116 
     86 H86        24.3172  -23.2646  -40.9779 H         1 UNK         0.0646 
     87 H87        24.8320  -21.7450  -42.8668 H         1 UNK         0.0847 
     88 H88        26.0849  -22.8444  -43.4472 H         1 UNK         0.0847 
     89 H89        26.2735  -22.0216  -41.9063 H         1 UNK         0.0847 
     90 H90        25.6890  -25.9015  -42.8938 H         1 UNK         0.3040 
     91 H91        27.0748  -26.9579  -40.5890 H         1 UNK         0.1015 
     92 H92        28.6825  -26.1287  -43.0834 H         1 UNK         0.0786 
     93 H93        29.3007  -27.1141  -41.7642 H         1 UNK         0.0786 
     94 H94        28.8668  -25.4385  -41.4718 H         1 UNK         0.0786 
     95 H95        27.5078  -29.1605  -40.8739 H         1 UNK         0.3172 
     96 H96        27.1071  -31.2456  -41.4619 H         1 UNK         0.0595 
     97 H97        27.0646  -30.3510  -44.3896 H         1 UNK         0.0839 
     98 H98        27.3393  -31.9769  -43.7893 H         1 UNK         0.0839 
     99 H99        28.5237  -30.7214  -43.4705 H         1 UNK         0.0839 
    100 H100       24.8847  -29.5700  -40.7646 H         1 UNK         0.2998 
    101 H101       22.5507  -30.4204  -42.2859 H         1 UNK         0.0822 
    102 H102       22.6149  -28.1971  -41.2339 H         1 UNK         0.0787 
    103 H103       21.3227  -29.1584  -40.5304 H         1 UNK         0.0787 
    104 H104       22.8174  -28.9092  -39.6354 H         1 UNK         0.0787 
    105 H105       23.1339  -32.7284  -42.1234 H         1 UNK         0.3055 
    106 H106       23.1374  -34.2500  -39.7767 H         1 UNK         0.1106 
    107 H107       23.8767  -35.1001  -41.9917 H         1 UNK         0.0828 
    108 H108       22.6666  -36.1737  -41.3111 H         1 UNK         0.0828 
    109 H109       22.2186  -35.0565  -42.5927 H         1 UNK         0.0828 
    110 H110       20.3857  -32.8421  -41.3568 H         1 UNK         0.2931 
    111 H111       18.3750  -34.4208  -39.9707 H         1 UNK         0.0412 
    112 H112       20.4491  -31.9267  -38.7812 H         1 UNK         0.3472 
    113 H113       19.3776  -31.4321  -37.4937 H         1 UNK         0.3472 
    114 H114       17.7076  -33.6817  -42.1175 H         1 UNK         0.0970 
    115 H115       16.7586  -32.7770  -40.9889 H         1 UNK         0.0970 
    116 H116       18.1445  -32.5676  -44.1925 H         1 UNK         0.0612 
    117 H117       19.7836  -32.5875  -43.5848 H         1 UNK         0.0612 
@<TRIPOS>BOND
     1    1    2 1    
     2    1   62 1    
     3    1   63 1    
     4    1   64 1    
     5    2    3 2    
     6    2    4 am   BACKBONE|DICT|INTERRES
     7    4    5 1    
     8    4   65 1    
     9    5    6 1    
    10    5   25 1    
    11    5   66 1    
    12    6    7 1    
    13    6   67 1    
    14    6   68 1    
    15    7    8 1    
    16    8    9 1    
    17    8   69 1    
    18    8   70 1    
    19    9   10 ar   
    20    9   14 ar   
    21   10   11 ar   
    22   10   71 1    
    23   11   12 ar   
    24   11   61 1    
    25   12   13 ar   
    26   12   72 1    
    27   13   14 ar   
    28   13   15 1    
    29   14   73 1    
    30   15   16 1    
    31   15   74 1    
    32   15   75 1    
    33   16   17 1    
    34   17   18 1    
    35   17   76 1    
    36   17   77 1    
    37   18   19 1    
    38   18   27 1    
    39   18   78 1    
    40   19   20 am   BACKBONE|DICT|INTERRES
    41   19   79 1    
    42   20   21 2    
    43   20   22 1    
    44   22   23 1    
    45   22   24 1    
    46   22   80 1    
    47   23   81 1    
    48   23   82 1    
    49   23   83 1    
    50   24   25 am   BACKBONE|DICT|INTERRES
    51   24   84 1    
    52   25   26 2    
    53   27   28 2    
    54   27   29 am   BACKBONE|DICT|INTERRES
    55   29   30 1    
    56   29   85 1    
    57   30   31 1    
    58   30   32 1    
    59   30   86 1    
    60   31   87 1    
    61   31   88 1    
    62   31   89 1    
    63   32   33 2    
    64   32   34 am   BACKBONE|DICT|INTERRES
    65   34   35 1    
    66   34   90 1    
    67   35   36 1    
    68   35   37 1    
    69   35   91 1    
    70   36   92 1    
    71   36   93 1    
    72   36   94 1    
    73   37   38 2    
    74   37   39 am   BACKBONE|DICT|INTERRES
    75   39   40 1    
    76   39   95 1    
    77   40   41 1    
    78   40   42 1    
    79   40   96 1    
    80   41   97 1    
    81   41   98 1    
    82   41   99 1    
    83   42   43 2    
    84   42   44 am   BACKBONE|DICT|INTERRES
    85   44   45 1    
    86   44  100 1    
    87   45   46 1    
    88   45   47 1    
    89   45  101 1    
    90   46  102 1    
    91   46  103 1    
    92   46  104 1    
    93   47   48 2    
    94   47   49 am   BACKBONE|DICT|INTERRES
    95   49   50 1    
    96   49  105 1    
    97   50   51 1    
    98   50   52 1    
    99   50  106 1    
   100   51  107 1    
   101   51  108 1    
   102   51  109 1    
   103   52   53 2    
   104   52   54 am   BACKBONE|DICT|INTERRES
   105   54   55 1    
   106   54  110 1    
   107   55   56 1    
   108   55   59 1    
   109   55  111 1    
   110   56   57 am   BACKBONE|DICT|INTERRES
   111   56   58 2    
   112   57  112 1    
   113   57  113 1    
   114   59   60 1    
   115   59  114 1    
   116   59  115 1    
   117   60   61 1    
   118   61  116 1    
   119   61  117 1    
@<TRIPOS>SUBSTRUCTURE
     1 UNK         1 GROUP             0       ****    0 ROOT    
