@<TRIPOS>MOLECULE
3R8
117   119    1
SMALL
USER_CHARGES


@<TRIPOS>ATOM
      1 CA         13.3613  -23.8349  -41.8106 C.3       0 UNK        -0.2013 
      2 C          14.6491  -24.0535  -42.5908 C.2       0 UNK         0.4866 
      3 O          15.2823  -23.0849  -43.0125 O.2       0 UNK        -0.5176 
      4 N          15.0360  -25.3182  -42.7949 N.am      1 UNK        -0.4884 
      5 CA         16.2835  -25.7214  -43.4509 C.3       1 UNK         0.0853 
      6 C6         16.2350  -27.1967  -43.9331 C.3       10 UNK        -0.0849 
      7 S7         15.6547  -28.3983  -42.6799 S.3       10 UNK        -0.2776 
      8 C8         17.2101  -29.1401  -42.0942 C.3       10 UNK         0.0316 
      9 C9         17.7748  -30.1508  -43.0827 C.ar      10 UNK        -0.0863 
     10 C10        17.3060  -31.4679  -43.0868 C.ar      10 UNK        -0.1009 
     11 C11        17.8455  -32.4089  -43.9681 C.ar      10 UNK        -0.0712 
     12 C12        18.8540  -32.0195  -44.8540 C.ar      10 UNK        -0.0894 
     13 C13        19.3324  -30.7057  -44.8694 C.ar      10 UNK        -0.0745 
     14 C14        18.7918  -29.7790  -43.9677 C.ar      10 UNK        -0.0972 
     15 C15        20.4199  -30.3495  -45.8858 C.3       10 UNK         0.0209 
     16 S16        20.7363  -28.5664  -46.1225 S.3       10 UNK        -0.2568 
     17 C17        22.1694  -28.3197  -45.0273 C.3       10 UNK        -0.0983 
     18 CA         22.3778  -26.8213  -44.6972 C.3       3 UNK         0.0876 
     19 N          21.3668  -26.3431  -43.7526 N.am      3 UNK        -0.4424 
     20 C          21.0194  -25.0640  -43.5915 C.2       2 UNK         0.4918 
     21 O          21.4743  -24.1359  -44.2625 O.2       2 UNK        -0.4875 
     22 CA         19.9176  -24.7990  -42.5599 C.3       2 UNK         0.0481 
     23 CB         19.9241  -23.3492  -42.0358 C.3       2 UNK        -0.1831 
     24 N          18.6395  -25.1053  -43.1966 N.am      2 UNK        -0.4498 
     25 C          17.5115  -25.4358  -42.5576 C.2       1 UNK         0.5027 
     26 O          17.4192  -25.5278  -41.3303 O.2       1 UNK        -0.4969 
     27 C          23.7992  -26.5825  -44.1529 C.2       3 UNK         0.5005 
     28 O          24.0060  -26.5571  -42.9378 O.2       3 UNK        -0.5279 
     29 N          24.7758  -26.4804  -45.0665 N.am      4 UNK        -0.4463 
     30 CA         26.2065  -26.4105  -44.7401 C.3       4 UNK         0.0283 
     31 CB         27.0081  -26.0779  -46.0084 C.3       4 UNK        -0.1875 
     32 C          26.7373  -27.7028  -44.0908 C.2       4 UNK         0.4949 
     33 O          27.6794  -27.6466  -43.2997 O.2       4 UNK        -0.5039 
     34 N          26.0985  -28.8387  -44.4025 N.am      5 UNK        -0.4663 
     35 CA         26.3430  -30.1570  -43.8173 C.3       5 UNK         0.0242 
     36 CB         25.7849  -31.2282  -44.7740 C.3       5 UNK        -0.1982 
     37 C          25.7589  -30.2715  -42.3934 C.2       5 UNK         0.5017 
     38 O          24.8692  -31.0894  -42.1595 O.2       5 UNK        -0.5012 
     39 N          26.2793  -29.4432  -41.4765 N.am      6 UNK        -0.4439 
     40 CA         25.9865  -29.3954  -40.0384 C.3       6 UNK         0.0297 
     41 CB         26.5184  -30.6651  -39.3392 C.3       6 UNK        -0.2006 
     42 C          24.5073  -29.1069  -39.7083 C.2       6 UNK         0.4892 
     43 O          23.9301  -29.7731  -38.8466 O.2       6 UNK        -0.5089 
     44 N          23.9282  -28.1069  -40.3892 N.am      7 UNK        -0.4243 
     45 CA         22.5626  -27.5800  -40.2579 C.3       7 UNK         0.0196 
     46 CB         22.2457  -27.1116  -38.8235 C.3       7 UNK        -0.2007 
     47 C          21.4723  -28.5163  -40.7978 C.2       7 UNK         0.5020 
     48 O          20.6548  -28.0703  -41.6039 O.2       7 UNK        -0.5147 
     49 N          21.4631  -29.7767  -40.3561 N.am      8 UNK        -0.4734 
     50 CA         20.4419  -30.7608  -40.6968 C.3       8 UNK         0.0238 
     51 CB         19.3498  -30.7537  -39.6120 C.3       8 UNK        -0.1912 
     52 C          21.0440  -32.1571  -40.8616 C.2       8 UNK         0.5038 
     53 O          22.1245  -32.4350  -40.3383 O.2       8 UNK        -0.5046 
     54 N          20.2939  -33.0160  -41.5605 N.am      9 UNK        -0.4200 
     55 CA         20.5968  -34.4335  -41.8036 C.3       9 UNK         0.0839 
     56 C          20.6058  -35.3515  -40.5437 C.2       9 UNK         0.5513 
     57 N          20.0966  -34.9200  -39.3958 N.am      9 UNK        -0.7519 
     58 O          21.0928  -36.4772  -40.6120 O.2       9 UNK        -0.4960 
     59 C59        19.6903  -35.0096  -42.9256 C.3       10 UNK        -0.0876 
     60 S60        17.9007  -34.8281  -42.5794 S.3       10 UNK        -0.2414 
     61 C61        17.3151  -33.8363  -43.9907 C.3       10 UNK         0.0169 
     62 H62        13.5629  -23.2565  -40.9093 H         1 UNK         0.0903 
     63 H63        12.6438  -23.2828  -42.4170 H         1 UNK         0.0903 
     64 H64        12.9001  -24.7766  -41.5130 H         1 UNK         0.0903 
     65 H65        14.5017  -26.0794  -42.3988 H         1 UNK         0.3096 
     66 H66        16.3879  -25.0961  -44.3411 H         1 UNK         0.1121 
     67 H67        17.1977  -27.5065  -44.3404 H         1 UNK         0.0849 
     68 H68        15.5426  -27.2650  -44.7735 H         1 UNK         0.0849 
     69 H69        17.0148  -29.6361  -41.1428 H         1 UNK         0.0865 
     70 H70        17.9394  -28.3578  -41.8785 H         1 UNK         0.0865 
     71 H71        16.5195  -31.7615  -42.4044 H         1 UNK         0.1346 
     72 H72        19.2626  -32.7422  -45.5474 H         1 UNK         0.1412 
     73 H73        19.1609  -28.7642  -43.9390 H         1 UNK         0.1426 
     74 H74        20.1308  -30.7556  -46.8564 H         1 UNK         0.0716 
     75 H75        21.3471  -30.8539  -45.6100 H         1 UNK         0.0716 
     76 H76        23.0345  -28.7400  -45.5436 H         1 UNK         0.0695 
     77 H77        22.0424  -28.9046  -44.1134 H         1 UNK         0.0695 
     78 H78        22.2838  -26.2434  -45.6198 H         1 UNK         0.0983 
     79 H79        20.9879  -27.0342  -43.1085 H         1 UNK         0.3095 
     80 H80        20.0765  -25.4703  -41.7139 H         1 UNK         0.0454 
     81 H81        19.7146  -22.6306  -42.8290 H         1 UNK         0.0851 
     82 H82        20.8951  -23.0941  -41.6098 H         1 UNK         0.0851 
     83 H83        19.1799  -23.2068  -41.2522 H         1 UNK         0.0851 
     84 H84        18.6460  -25.0716  -44.2076 H         1 UNK         0.2976 
     85 H85        24.5353  -26.5000  -46.0481 H         1 UNK         0.3116 
     86 H86        26.3493  -25.5998  -44.0223 H         1 UNK         0.0646 
     87 H87        26.8953  -26.8469  -46.7737 H         1 UNK         0.0847 
     88 H88        28.0729  -25.9958  -45.7852 H         1 UNK         0.0847 
     89 H89        26.6962  -25.1259  -46.4383 H         1 UNK         0.0847 
     90 H90        25.3298  -28.7771  -45.0524 H         1 UNK         0.3040 
     91 H91        27.4216  -30.3111  -43.7373 H         1 UNK         0.1015 
     92 H92        24.7068  -31.1297  -44.9086 H         1 UNK         0.0786 
     93 H93        25.9751  -32.2315  -44.3901 H         1 UNK         0.0786 
     94 H94        26.2533  -31.1663  -45.7564 H         1 UNK         0.0786 
     95 H95        26.9629  -28.7709  -41.8149 H         1 UNK         0.3172 
     96 H96        26.5503  -28.5482  -39.6451 H         1 UNK         0.0595 
     97 H97        26.4179  -30.5868  -38.2559 H         1 UNK         0.0839 
     98 H98        27.5749  -30.8254  -39.5537 H         1 UNK         0.0839 
     99 H99        25.9725  -31.5564  -39.6514 H         1 UNK         0.0839 
    100 H100       24.4606  -27.6667  -41.1319 H         1 UNK         0.2998 
    101 H101       22.5330  -26.6859  -40.8808 H         1 UNK         0.0822 
    102 H102       21.2758  -26.6137  -38.7871 H         1 UNK         0.0787 
    103 H103       22.2062  -27.9406  -38.1167 H         1 UNK         0.0787 
    104 H104       22.9893  -26.3994  -38.4658 H         1 UNK         0.0787 
    105 H105       22.2236  -30.0961  -39.7594 H         1 UNK         0.3055 
    106 H106       20.0042  -30.4937  -41.6565 H         1 UNK         0.1106 
    107 H107       18.5392  -31.4399  -39.8603 H         1 UNK         0.0828 
    108 H108       19.7479  -31.0521  -38.6414 H         1 UNK         0.0828 
    109 H109       18.9104  -29.7626  -39.4990 H         1 UNK         0.0828 
    110 H110       19.4108  -32.7023  -41.9381 H         1 UNK         0.2931 
    111 H111       21.6205  -34.4608  -42.1820 H         1 UNK         0.0412 
    112 H112       19.6938  -33.9999  -39.3299 H         1 UNK         0.3472 
    113 H113       20.1134  -35.5244  -38.5893 H         1 UNK         0.3472 
    114 H114       19.9057  -36.0667  -43.0931 H         1 UNK         0.0970 
    115 H115       19.9303  -34.5203  -43.8697 H         1 UNK         0.0970 
    116 H116       16.2246  -33.8115  -43.9691 H         1 UNK         0.0612 
    117 H117       17.5874  -34.3387  -44.9203 H         1 UNK         0.0612 
@<TRIPOS>BOND
     1    1    2 1    
     2    1   62 1    
     3    1   63 1    
     4    1   64 1    
     5    2    3 2    
     6    2    4 am   BACKBONE|DICT|INTERRES
     7    4    5 1    
     8    4   65 1    
     9    5    6 1    
    10    5   25 1    
    11    5   66 1    
    12    6    7 1    
    13    6   67 1    
    14    6   68 1    
    15    7    8 1    
    16    8    9 1    
    17    8   69 1    
    18    8   70 1    
    19    9   10 ar   
    20    9   14 ar   
    21   10   11 ar   
    22   10   71 1    
    23   11   12 ar   
    24   11   61 1    
    25   12   13 ar   
    26   12   72 1    
    27   13   14 ar   
    28   13   15 1    
    29   14   73 1    
    30   15   16 1    
    31   15   74 1    
    32   15   75 1    
    33   16   17 1    
    34   17   18 1    
    35   17   76 1    
    36   17   77 1    
    37   18   19 1    
    38   18   27 1    
    39   18   78 1    
    40   19   20 am   BACKBONE|DICT|INTERRES
    41   19   79 1    
    42   20   21 2    
    43   20   22 1    
    44   22   23 1    
    45   22   24 1    
    46   22   80 1    
    47   23   81 1    
    48   23   82 1    
    49   23   83 1    
    50   24   25 am   BACKBONE|DICT|INTERRES
    51   24   84 1    
    52   25   26 2    
    53   27   28 2    
    54   27   29 am   BACKBONE|DICT|INTERRES
    55   29   30 1    
    56   29   85 1    
    57   30   31 1    
    58   30   32 1    
    59   30   86 1    
    60   31   87 1    
    61   31   88 1    
    62   31   89 1    
    63   32   33 2    
    64   32   34 am   BACKBONE|DICT|INTERRES
    65   34   35 1    
    66   34   90 1    
    67   35   36 1    
    68   35   37 1    
    69   35   91 1    
    70   36   92 1    
    71   36   93 1    
    72   36   94 1    
    73   37   38 2    
    74   37   39 am   BACKBONE|DICT|INTERRES
    75   39   40 1    
    76   39   95 1    
    77   40   41 1    
    78   40   42 1    
    79   40   96 1    
    80   41   97 1    
    81   41   98 1    
    82   41   99 1    
    83   42   43 2    
    84   42   44 am   BACKBONE|DICT|INTERRES
    85   44   45 1    
    86   44  100 1    
    87   45   46 1    
    88   45   47 1    
    89   45  101 1    
    90   46  102 1    
    91   46  103 1    
    92   46  104 1    
    93   47   48 2    
    94   47   49 am   BACKBONE|DICT|INTERRES
    95   49   50 1    
    96   49  105 1    
    97   50   51 1    
    98   50   52 1    
    99   50  106 1    
   100   51  107 1    
   101   51  108 1    
   102   51  109 1    
   103   52   53 2    
   104   52   54 am   BACKBONE|DICT|INTERRES
   105   54   55 1    
   106   54  110 1    
   107   55   56 1    
   108   55   59 1    
   109   55  111 1    
   110   56   57 am   BACKBONE|DICT|INTERRES
   111   56   58 2    
   112   57  112 1    
   113   57  113 1    
   114   59   60 1    
   115   59  114 1    
   116   59  115 1    
   117   60   61 1    
   118   61  116 1    
   119   61  117 1    
@<TRIPOS>SUBSTRUCTURE
     1 UNK         1 GROUP             0       ****    0 ROOT    
