@<TRIPOS>MOLECULE
3R8
117   119    1
SMALL
USER_CHARGES


@<TRIPOS>ATOM
      1 CA         20.4061  -27.8623  -42.6471 C.3       0 UNK        -0.2013 
      2 C          19.9649  -27.0574  -41.4322 C.2       0 UNK         0.4866 
      3 O          20.6248  -27.1489  -40.3997 O.2       0 UNK        -0.5176 
      4 N          18.8785  -26.2721  -41.4806 N.am      1 UNK        -0.4884 
      5 CA         18.0083  -25.9266  -42.6211 C.3       1 UNK         0.0853 
      6 C6         17.3617  -27.1382  -43.3622 C.3       10 UNK        -0.0849 
      7 S7         16.6656  -28.4143  -42.2551 S.3       10 UNK        -0.2776 
      8 C8         16.3115  -29.7750  -43.4201 C.3       10 UNK         0.0316 
      9 C9         17.5630  -30.2764  -44.1306 C.ar      10 UNK        -0.0863 
     10 C10        18.5217  -31.0205  -43.4349 C.ar      10 UNK        -0.1009 
     11 C11        19.6891  -31.4485  -44.0761 C.ar      10 UNK        -0.0712 
     12 C12        19.8880  -31.1362  -45.4237 C.ar      10 UNK        -0.0894 
     13 C13        18.9319  -30.4049  -46.1333 C.ar      10 UNK        -0.0745 
     14 C14        17.7676  -29.9848  -45.4834 C.ar      10 UNK        -0.0972 
     15 C15        19.1577  -30.0750  -47.6029 C.3       10 UNK         0.0209 
     16 S16        19.3091  -28.2848  -47.9027 S.3       10 UNK        -0.2568 
     17 C17        20.8191  -27.8703  -46.9642 C.3       10 UNK        -0.0983 
     18 CA         21.0955  -26.3452  -46.9454 C.3       3 UNK         0.0876 
     19 N          19.9419  -25.6015  -46.4295 N.am      3 UNK        -0.4424 
     20 C          19.7499  -24.2780  -46.5060 C.2       2 UNK         0.4918 
     21 O          20.5060  -23.5082  -47.0979 O.2       2 UNK        -0.4875 
     22 CA         18.5196  -23.7136  -45.7642 C.3       2 UNK         0.0481 
     23 CB         17.3831  -23.4308  -46.7594 C.3       2 UNK        -0.1831 
     24 N          18.0113  -24.5712  -44.6808 N.am      2 UNK        -0.4498 
     25 C          18.7134  -24.9612  -43.6046 C.2       1 UNK         0.5027 
     26 O          19.8843  -24.6203  -43.4123 O.2       1 UNK        -0.4969 
     27 C          22.4073  -26.0405  -46.1816 C.2       3 UNK         0.5005 
     28 O          23.4798  -26.3487  -46.7025 O.2       3 UNK        -0.5279 
     29 N          22.3092  -25.4519  -44.9751 N.am      4 UNK        -0.4463 
     30 CA         23.4068  -24.9980  -44.1082 C.3       4 UNK         0.0283 
     31 CB         24.2051  -23.8616  -44.7818 C.3       4 UNK        -0.1875 
     32 C          24.3154  -26.1246  -43.5731 C.2       4 UNK         0.4949 
     33 O          25.4667  -25.8661  -43.2214 O.2       4 UNK        -0.5039 
     34 N          23.7773  -27.3489  -43.4811 N.am      5 UNK        -0.4663 
     35 CA         24.4671  -28.5352  -42.9564 C.3       5 UNK         0.0242 
     36 CB         23.7824  -29.8028  -43.4984 C.3       5 UNK        -0.1982 
     37 C          24.5730  -28.5792  -41.4169 C.2       5 UNK         0.5017 
     38 O          25.2150  -29.4915  -40.8984 O.2       5 UNK        -0.5012 
     39 N          23.9507  -27.6152  -40.7192 N.am      6 UNK        -0.4439 
     40 CA         23.9667  -27.4100  -39.2641 C.3       6 UNK         0.0297 
     41 CB         25.3808  -27.0175  -38.7844 C.3       6 UNK        -0.2006 
     42 C          23.3733  -28.5982  -38.4827 C.2       6 UNK         0.4892 
     43 O          24.0264  -29.1472  -37.5934 O.2       6 UNK        -0.5089 
     44 N          22.1358  -28.9648  -38.8461 N.am      7 UNK        -0.4243 
     45 CA         21.2910  -30.0056  -38.2438 C.3       7 UNK         0.0196 
     46 CB         20.8768  -29.6013  -36.8129 C.3       7 UNK        -0.2007 
     47 C          21.8668  -31.4364  -38.3011 C.2       7 UNK         0.5020 
     48 O          21.4211  -32.2963  -37.5394 O.2       7 UNK        -0.5147 
     49 N          22.8104  -31.6946  -39.2198 N.am      8 UNK        -0.4734 
     50 CA         23.4897  -32.9875  -39.3978 C.3       8 UNK         0.0238 
     51 CB         24.5907  -32.8361  -40.4595 C.3       8 UNK        -0.1912 
     52 C          22.5603  -34.1622  -39.7595 C.2       8 UNK         0.5038 
     53 O          22.9095  -35.3126  -39.4917 O.2       8 UNK        -0.5046 
     54 N          21.4015  -33.8477  -40.3482 N.am      9 UNK        -0.4200 
     55 CA         20.3273  -34.7945  -40.6794 C.3       9 UNK         0.0839 
     56 C          19.4350  -35.1868  -39.4648 C.2       9 UNK         0.5513 
     57 N          19.5888  -34.5843  -38.2904 N.am      9 UNK        -0.7519 
     58 O          18.5868  -36.0662  -39.5903 O.2       9 UNK        -0.4960 
     59 C59        19.4693  -34.2853  -41.8687 C.3       10 UNK        -0.0876 
     60 S60        20.4657  -34.0167  -43.3752 S.3       10 UNK        -0.2414 
     61 C61        20.7566  -32.2214  -43.3180 C.3       10 UNK         0.0169 
     62 H62        19.7193  -28.6860  -42.8197 H         1 UNK         0.0903 
     63 H63        20.4694  -27.2550  -43.5462 H         1 UNK         0.0903 
     64 H64        21.3835  -28.2959  -42.4595 H         1 UNK         0.0903 
     65 H65        18.6510  -25.7677  -40.6354 H         1 UNK         0.3096 
     66 H66        17.1933  -25.3481  -42.1825 H         1 UNK         0.1121 
     67 H67        18.0789  -27.6029  -44.0374 H         1 UNK         0.0849 
     68 H68        16.5443  -26.7977  -43.9999 H         1 UNK         0.0849 
     69 H69        15.8557  -30.6003  -42.8712 H         1 UNK         0.0865 
     70 H70        15.5635  -29.4418  -44.1413 H         1 UNK         0.0865 
     71 H71        18.3670  -31.2397  -42.3878 H         1 UNK         0.1346 
     72 H72        20.7917  -31.4636  -45.9197 H         1 UNK         0.1412 
     73 H73        17.0307  -29.4129  -46.0311 H         1 UNK         0.1426 
     74 H74        18.3190  -30.4593  -48.1850 H         1 UNK         0.0716 
     75 H75        20.0495  -30.5747  -47.9845 H         1 UNK         0.0716 
     76 H76        21.6557  -28.4084  -47.4144 H         1 UNK         0.0695 
     77 H77        20.7172  -28.2515  -45.9465 H         1 UNK         0.0695 
     78 H78        21.2565  -26.0187  -47.9753 H         1 UNK         0.0983 
     79 H79        19.2300  -26.1568  -45.9814 H         1 UNK         0.3095 
     80 H80        18.8224  -22.7656  -45.3148 H         1 UNK         0.0454 
     81 H81        17.7202  -22.7711  -47.5603 H         1 UNK         0.0851 
     82 H82        16.5405  -22.9387  -46.2733 H         1 UNK         0.0851 
     83 H83        17.0164  -24.3462  -47.2257 H         1 UNK         0.0851 
     84 H84        17.0522  -24.8749  -44.7723 H         1 UNK         0.2976 
     85 H85        21.3816  -25.2212  -44.6305 H         1 UNK         0.3116 
     86 H86        22.9229  -24.5719  -43.2280 H         1 UNK         0.0646 
     87 H87        24.7812  -24.2215  -45.6347 H         1 UNK         0.0847 
     88 H88        23.5457  -23.0678  -45.1331 H         1 UNK         0.0847 
     89 H89        24.9098  -23.4086  -44.0834 H         1 UNK         0.0847 
     90 H90        22.8404  -27.4790  -43.8293 H         1 UNK         0.3040 
     91 H91        25.4911  -28.5237  -43.3371 H         1 UNK         0.1015 
     92 H92        24.3577  -30.6931  -43.2409 H         1 UNK         0.0786 
     93 H93        23.7009  -29.7796  -44.5854 H         1 UNK         0.0786 
     94 H94        22.7836  -29.9385  -43.0874 H         1 UNK         0.0786 
     95 H95        23.4240  -26.9345  -41.2468 H         1 UNK         0.3172 
     96 H96        23.3101  -26.5605  -39.0692 H         1 UNK         0.0595 
     97 H97        26.0958  -27.8300  -38.9184 H         1 UNK         0.0839 
     98 H98        25.3758  -26.7625  -37.7240 H         1 UNK         0.0839 
     99 H99        25.7562  -26.1485  -39.3247 H         1 UNK         0.0839 
    100 H100       21.6729  -28.3919  -39.5511 H         1 UNK         0.2998 
    101 H101       20.3833  -30.0315  -38.8487 H         1 UNK         0.0822 
    102 H102       20.1290  -30.2856  -36.4101 H         1 UNK         0.0787 
    103 H103       21.7265  -29.6097  -36.1294 H         1 UNK         0.0787 
    104 H104       20.4403  -28.6026  -36.7942 H         1 UNK         0.0787 
    105 H105       23.1507  -30.9238  -39.7780 H         1 UNK         0.3055 
    106 H106       23.9625  -33.2413  -38.4465 H         1 UNK         0.1106 
    107 H107       25.3362  -32.1016  -40.1546 H         1 UNK         0.0828 
    108 H108       25.1168  -33.7788  -40.6174 H         1 UNK         0.0828 
    109 H109       24.1839  -32.5242  -41.4220 H         1 UNK         0.0828 
    110 H110       21.2029  -32.8727  -40.5040 H         1 UNK         0.2931 
    111 H111       20.8005  -35.7236  -41.0033 H         1 UNK         0.0412 
    112 H112       19.0018  -34.8600  -37.5192 H         1 UNK         0.3472 
    113 H113       20.2859  -33.8603  -38.1540 H         1 UNK         0.3472 
    114 H114       18.9369  -33.3726  -41.5998 H         1 UNK         0.0970 
    115 H115       18.6984  -35.0164  -42.1198 H         1 UNK         0.0970 
    116 H116       20.8175  -31.8716  -42.2873 H         1 UNK         0.0612 
    117 H117       21.7348  -32.0264  -43.7592 H         1 UNK         0.0612 
@<TRIPOS>BOND
     1    1    2 1    
     2    1   62 1    
     3    1   63 1    
     4    1   64 1    
     5    2    3 2    
     6    2    4 am   BACKBONE|DICT|INTERRES
     7    4    5 1    
     8    4   65 1    
     9    5    6 1    
    10    5   25 1    
    11    5   66 1    
    12    6    7 1    
    13    6   67 1    
    14    6   68 1    
    15    7    8 1    
    16    8    9 1    
    17    8   69 1    
    18    8   70 1    
    19    9   10 ar   
    20    9   14 ar   
    21   10   11 ar   
    22   10   71 1    
    23   11   12 ar   
    24   11   61 1    
    25   12   13 ar   
    26   12   72 1    
    27   13   14 ar   
    28   13   15 1    
    29   14   73 1    
    30   15   16 1    
    31   15   74 1    
    32   15   75 1    
    33   16   17 1    
    34   17   18 1    
    35   17   76 1    
    36   17   77 1    
    37   18   19 1    
    38   18   27 1    
    39   18   78 1    
    40   19   20 am   BACKBONE|DICT|INTERRES
    41   19   79 1    
    42   20   21 2    
    43   20   22 1    
    44   22   23 1    
    45   22   24 1    
    46   22   80 1    
    47   23   81 1    
    48   23   82 1    
    49   23   83 1    
    50   24   25 am   BACKBONE|DICT|INTERRES
    51   24   84 1    
    52   25   26 2    
    53   27   28 2    
    54   27   29 am   BACKBONE|DICT|INTERRES
    55   29   30 1    
    56   29   85 1    
    57   30   31 1    
    58   30   32 1    
    59   30   86 1    
    60   31   87 1    
    61   31   88 1    
    62   31   89 1    
    63   32   33 2    
    64   32   34 am   BACKBONE|DICT|INTERRES
    65   34   35 1    
    66   34   90 1    
    67   35   36 1    
    68   35   37 1    
    69   35   91 1    
    70   36   92 1    
    71   36   93 1    
    72   36   94 1    
    73   37   38 2    
    74   37   39 am   BACKBONE|DICT|INTERRES
    75   39   40 1    
    76   39   95 1    
    77   40   41 1    
    78   40   42 1    
    79   40   96 1    
    80   41   97 1    
    81   41   98 1    
    82   41   99 1    
    83   42   43 2    
    84   42   44 am   BACKBONE|DICT|INTERRES
    85   44   45 1    
    86   44  100 1    
    87   45   46 1    
    88   45   47 1    
    89   45  101 1    
    90   46  102 1    
    91   46  103 1    
    92   46  104 1    
    93   47   48 2    
    94   47   49 am   BACKBONE|DICT|INTERRES
    95   49   50 1    
    96   49  105 1    
    97   50   51 1    
    98   50   52 1    
    99   50  106 1    
   100   51  107 1    
   101   51  108 1    
   102   51  109 1    
   103   52   53 2    
   104   52   54 am   BACKBONE|DICT|INTERRES
   105   54   55 1    
   106   54  110 1    
   107   55   56 1    
   108   55   59 1    
   109   55  111 1    
   110   56   57 am   BACKBONE|DICT|INTERRES
   111   56   58 2    
   112   57  112 1    
   113   57  113 1    
   114   59   60 1    
   115   59  114 1    
   116   59  115 1    
   117   60   61 1    
   118   61  116 1    
   119   61  117 1    
@<TRIPOS>SUBSTRUCTURE
     1 UNK         1 GROUP             0       ****    0 ROOT    
