@<TRIPOS>MOLECULE
3R8
117   119    1
SMALL
USER_CHARGES


@<TRIPOS>ATOM
      1 CA         17.1098  -21.4654  -44.2604 C.3       0 UNK        -0.2013 
      2 C          17.6597  -22.5522  -45.1719 C.2       0 UNK         0.4866 
      3 O          18.3243  -22.2442  -46.1619 O.2       0 UNK        -0.5176 
      4 N          17.3802  -23.8212  -44.8519 N.am      1 UNK        -0.4884 
      5 CA         17.8850  -25.0019  -45.5579 C.3       1 UNK         0.0853 
      6 C6         17.0759  -26.2836  -45.2178 C.3       10 UNK        -0.0849 
      7 S7         16.6644  -26.4943  -43.4455 S.3       10 UNK        -0.2776 
      8 C8         15.6111  -27.9804  -43.4698 C.3       10 UNK         0.0316 
      9 C9         16.4325  -29.2617  -43.4282 C.ar      10 UNK        -0.0863 
     10 C10        16.5971  -29.9636  -42.2297 C.ar      10 UNK        -0.1009 
     11 C11        17.3205  -31.1610  -42.1987 C.ar      10 UNK        -0.0712 
     12 C12        17.9142  -31.6334  -43.3755 C.ar      10 UNK        -0.0894 
     13 C13        17.7749  -30.9304  -44.5769 C.ar      10 UNK        -0.0745 
     14 C14        17.0047  -29.7644  -44.5978 C.ar      10 UNK        -0.0972 
     15 C15        18.4011  -31.4596  -45.8632 C.3       10 UNK         0.0209 
     16 S16        19.2568  -30.1628  -46.8284 S.3       10 UNK        -0.2568 
     17 C17        21.0139  -30.3901  -46.3790 C.3       10 UNK        -0.0983 
     18 CA         21.6053  -29.2993  -45.4447 C.3       3 UNK         0.0876 
     19 N          21.3033  -27.9439  -45.9177 N.am      3 UNK        -0.4424 
     20 C          22.1060  -26.8808  -45.7839 C.2       2 UNK         0.4918 
     21 O          23.1956  -26.9128  -45.2139 O.2       2 UNK        -0.4875 
     22 CA         21.6129  -25.5556  -46.3895 C.3       2 UNK         0.0481 
     23 CB         22.1573  -25.3889  -47.8172 C.3       2 UNK        -0.1831 
     24 N          20.1518  -25.4236  -46.4089 N.am      2 UNK        -0.4498 
     25 C          19.4007  -25.1844  -45.3240 C.2       1 UNK         0.5027 
     26 O          19.8606  -25.1079  -44.1828 O.2       1 UNK        -0.4969 
     27 C          21.2530  -29.5343  -43.9602 C.2       3 UNK         0.5005 
     28 O          21.4312  -30.6597  -43.4951 O.2       3 UNK        -0.5279 
     29 N          20.7914  -28.4917  -43.2491 N.am      4 UNK        -0.4463 
     30 CA         20.3953  -28.4793  -41.8342 C.3       4 UNK         0.0283 
     31 CB         19.9417  -27.0544  -41.4744 C.3       4 UNK        -0.1875 
     32 C          21.4855  -28.9433  -40.8484 C.2       4 UNK         0.4949 
     33 O          22.6247  -29.1886  -41.2423 O.2       4 UNK        -0.5039 
     34 N          21.1263  -29.0274  -39.5598 N.am      5 UNK        -0.4663 
     35 CA         21.9477  -29.5494  -38.4566 C.3       5 UNK         0.0242 
     36 CB         21.1260  -29.5081  -37.1585 C.3       5 UNK        -0.1982 
     37 C          23.3130  -28.8678  -38.2514 C.2       5 UNK         0.5017 
     38 O          24.2129  -29.4922  -37.6895 O.2       5 UNK        -0.5012 
     39 N          23.4568  -27.6252  -38.7327 N.am      6 UNK        -0.4439 
     40 CA         24.7299  -26.9042  -38.8171 C.3       6 UNK         0.0297 
     41 CB         24.4579  -25.4406  -39.2002 C.3       6 UNK        -0.2006 
     42 C          25.7256  -27.5439  -39.8066 C.2       6 UNK         0.4892 
     43 O          26.9336  -27.4003  -39.6141 O.2       6 UNK        -0.5089 
     44 N          25.2074  -28.2352  -40.8309 N.am      7 UNK        -0.4243 
     45 CA         25.9702  -29.0196  -41.7959 C.3       7 UNK         0.0196 
     46 CB         25.4079  -28.7963  -43.2111 C.3       7 UNK        -0.2007 
     47 C          25.9344  -30.5061  -41.4150 C.2       7 UNK         0.5020 
     48 O          27.0010  -31.1015  -41.2592 O.2       7 UNK        -0.5147 
     49 N          24.7298  -31.0808  -41.2623 N.am      8 UNK        -0.4734 
     50 CA         24.5365  -32.4983  -40.9308 C.3       8 UNK         0.0238 
     51 CB         24.9692  -33.4024  -42.1061 C.3       8 UNK        -0.1912 
     52 C          23.1016  -32.8592  -40.5177 C.2       8 UNK         0.5038 
     53 O          22.9389  -33.6838  -39.6180 O.2       8 UNK        -0.5046 
     54 N          22.0932  -32.2998  -41.2013 N.am      9 UNK        -0.4200 
     55 CA         20.6909  -32.7616  -41.1884 C.3       9 UNK         0.0839 
     56 C          20.4779  -34.1449  -41.8818 C.2       9 UNK         0.5513 
     57 N          21.3879  -34.6012  -42.7346 N.am      9 UNK        -0.7519 
     58 O          19.4632  -34.8054  -41.6776 O.2       9 UNK        -0.4960 
     59 C59        19.9688  -32.6217  -39.8088 C.3       10 UNK        -0.0876 
     60 S60        18.6963  -31.3095  -39.7863 S.3       10 UNK        -0.2414 
     61 C61        17.4121  -31.9584  -40.9020 C.3       10 UNK         0.0169 
     62 H62        16.5329  -21.8800  -43.4338 H         1 UNK         0.0903 
     63 H63        17.9268  -20.8778  -43.8425 H         1 UNK         0.0903 
     64 H64        16.4611  -20.7953  -44.8240 H         1 UNK         0.0903 
     65 H65        16.8599  -24.0270  -44.0097 H         1 UNK         0.3096 
     66 H66        17.7451  -24.8124  -46.6249 H         1 UNK         0.1121 
     67 H67        17.6046  -27.1673  -45.5752 H         1 UNK         0.0849 
     68 H68        16.1347  -26.2606  -45.7696 H         1 UNK         0.0849 
     69 H69        14.9393  -27.9420  -42.6110 H         1 UNK         0.0865 
     70 H70        14.9690  -27.9712  -44.3519 H         1 UNK         0.0865 
     71 H71        16.1437  -29.5910  -41.3212 H         1 UNK         0.1346 
     72 H72        18.4681  -32.5609  -43.3629 H         1 UNK         0.1412 
     73 H73        16.8515  -29.2476  -45.5338 H         1 UNK         0.1426 
     74 H74        17.6040  -31.8750  -46.4809 H         1 UNK         0.0716 
     75 H75        19.0844  -32.2841  -45.6556 H         1 UNK         0.0716 
     76 H76        21.5722  -30.3770  -47.3162 H         1 UNK         0.0695 
     77 H77        21.1755  -31.3916  -45.9765 H         1 UNK         0.0695 
     78 H78        22.6898  -29.4262  -45.4838 H         1 UNK         0.0983 
     79 H79        20.4238  -27.8374  -46.4021 H         1 UNK         0.3095 
     80 H80        22.0190  -24.7453  -45.7798 H         1 UNK         0.0454 
     81 H81        23.2463  -25.4547  -47.8293 H         1 UNK         0.0851 
     82 H82        21.8904  -24.4174  -48.2336 H         1 UNK         0.0851 
     83 H83        21.7780  -26.1596  -48.4895 H         1 UNK         0.0851 
     84 H84        19.7079  -25.4629  -47.3158 H         1 UNK         0.2976 
     85 H85        20.7161  -27.6068  -43.7293 H         1 UNK         0.3116 
     86 H86        19.5465  -29.1575  -41.7354 H         1 UNK         0.0646 
     87 H87        19.5389  -26.9972  -40.4629 H         1 UNK         0.0847 
     88 H88        20.7634  -26.3401  -41.5436 H         1 UNK         0.0847 
     89 H89        19.1540  -26.7125  -42.1414 H         1 UNK         0.0847 
     90 H90        20.1666  -28.8160  -39.3256 H         1 UNK         0.3040 
     91 H91        22.1641  -30.5932  -38.6876 H         1 UNK         0.1015 
     92 H92        21.6953  -29.9137  -36.3207 H         1 UNK         0.0786 
     93 H93        20.2164  -30.1028  -37.2445 H         1 UNK         0.0786 
     94 H94        20.8394  -28.4891  -36.8955 H         1 UNK         0.0786 
     95 H95        22.6541  -27.1955  -39.1686 H         1 UNK         0.3172 
     96 H96        25.1914  -26.9193  -37.8275 H         1 UNK         0.0595 
     97 H97        23.9815  -25.3598  -40.1782 H         1 UNK         0.0839 
     98 H98        25.3872  -24.8707  -39.2434 H         1 UNK         0.0839 
     99 H99        23.8140  -24.9507  -38.4695 H         1 UNK         0.0839 
    100 H100       24.1978  -28.3480  -40.8838 H         1 UNK         0.2998 
    101 H101       27.0137  -28.6970  -41.7977 H         1 UNK         0.0822 
    102 H102       25.9625  -29.3791  -43.9476 H         1 UNK         0.0787 
    103 H103       24.3596  -29.0854  -43.2895 H         1 UNK         0.0787 
    104 H104       25.4822  -27.7488  -43.5039 H         1 UNK         0.0787 
    105 H105       23.8974  -30.4975  -41.3380 H         1 UNK         0.3055 
    106 H106       25.1713  -32.7260  -40.0711 H         1 UNK         0.1106 
    107 H107       24.4605  -33.1296  -43.0312 H         1 UNK         0.0828 
    108 H108       26.0420  -33.3455  -42.2882 H         1 UNK         0.0828 
    109 H109       24.7423  -34.4503  -41.9028 H         1 UNK         0.0828 
    110 H110       22.2875  -31.6305  -41.9400 H         1 UNK         0.2931 
    111 H111       20.1978  -32.0759  -41.8707 H         1 UNK         0.0412 
    112 H112       21.2374  -35.4900  -43.1857 H         1 UNK         0.3472 
    113 H113       22.2063  -34.0568  -42.9506 H         1 UNK         0.3472 
    114 H114       19.4992  -33.5518  -39.4849 H         1 UNK         0.0970 
    115 H115       20.6804  -32.3911  -39.0172 H         1 UNK         0.0970 
    116 H116       16.4530  -31.9129  -40.3842 H         1 UNK         0.0612 
    117 H117       17.5848  -33.0140  -41.1109 H         1 UNK         0.0612 
@<TRIPOS>BOND
     1    1    2 1    
     2    1   62 1    
     3    1   63 1    
     4    1   64 1    
     5    2    3 2    
     6    2    4 am   BACKBONE|DICT|INTERRES
     7    4    5 1    
     8    4   65 1    
     9    5    6 1    
    10    5   25 1    
    11    5   66 1    
    12    6    7 1    
    13    6   67 1    
    14    6   68 1    
    15    7    8 1    
    16    8    9 1    
    17    8   69 1    
    18    8   70 1    
    19    9   10 ar   
    20    9   14 ar   
    21   10   11 ar   
    22   10   71 1    
    23   11   12 ar   
    24   11   61 1    
    25   12   13 ar   
    26   12   72 1    
    27   13   14 ar   
    28   13   15 1    
    29   14   73 1    
    30   15   16 1    
    31   15   74 1    
    32   15   75 1    
    33   16   17 1    
    34   17   18 1    
    35   17   76 1    
    36   17   77 1    
    37   18   19 1    
    38   18   27 1    
    39   18   78 1    
    40   19   20 am   BACKBONE|DICT|INTERRES
    41   19   79 1    
    42   20   21 2    
    43   20   22 1    
    44   22   23 1    
    45   22   24 1    
    46   22   80 1    
    47   23   81 1    
    48   23   82 1    
    49   23   83 1    
    50   24   25 am   BACKBONE|DICT|INTERRES
    51   24   84 1    
    52   25   26 2    
    53   27   28 2    
    54   27   29 am   BACKBONE|DICT|INTERRES
    55   29   30 1    
    56   29   85 1    
    57   30   31 1    
    58   30   32 1    
    59   30   86 1    
    60   31   87 1    
    61   31   88 1    
    62   31   89 1    
    63   32   33 2    
    64   32   34 am   BACKBONE|DICT|INTERRES
    65   34   35 1    
    66   34   90 1    
    67   35   36 1    
    68   35   37 1    
    69   35   91 1    
    70   36   92 1    
    71   36   93 1    
    72   36   94 1    
    73   37   38 2    
    74   37   39 am   BACKBONE|DICT|INTERRES
    75   39   40 1    
    76   39   95 1    
    77   40   41 1    
    78   40   42 1    
    79   40   96 1    
    80   41   97 1    
    81   41   98 1    
    82   41   99 1    
    83   42   43 2    
    84   42   44 am   BACKBONE|DICT|INTERRES
    85   44   45 1    
    86   44  100 1    
    87   45   46 1    
    88   45   47 1    
    89   45  101 1    
    90   46  102 1    
    91   46  103 1    
    92   46  104 1    
    93   47   48 2    
    94   47   49 am   BACKBONE|DICT|INTERRES
    95   49   50 1    
    96   49  105 1    
    97   50   51 1    
    98   50   52 1    
    99   50  106 1    
   100   51  107 1    
   101   51  108 1    
   102   51  109 1    
   103   52   53 2    
   104   52   54 am   BACKBONE|DICT|INTERRES
   105   54   55 1    
   106   54  110 1    
   107   55   56 1    
   108   55   59 1    
   109   55  111 1    
   110   56   57 am   BACKBONE|DICT|INTERRES
   111   56   58 2    
   112   57  112 1    
   113   57  113 1    
   114   59   60 1    
   115   59  114 1    
   116   59  115 1    
   117   60   61 1    
   118   61  116 1    
   119   61  117 1    
@<TRIPOS>SUBSTRUCTURE
     1 UNK         1 GROUP             0       ****    0 ROOT    
