@<TRIPOS>MOLECULE
3R8
117   119    1
SMALL
USER_CHARGES


@<TRIPOS>ATOM
      1 CA         15.0628  -29.8982  -41.5130 C.3       0 UNK        -0.2013 
      2 C          15.2566  -28.4917  -42.0593 C.2       0 UNK         0.4866 
      3 O          14.8686  -27.5237  -41.4049 O.2       0 UNK        -0.5176 
      4 N          15.8395  -28.3704  -43.2594 N.am      1 UNK        -0.4884 
      5 CA         16.0400  -27.0943  -43.9602 C.3       1 UNK         0.0853 
      6 C6         16.2500  -27.2591  -45.4916 C.3       10 UNK        -0.0849 
      7 S7         15.1317  -28.4911  -46.2565 S.3       10 UNK        -0.2776 
      8 C8         16.2576  -29.5213  -47.2660 C.3       10 UNK         0.0316 
      9 C9         17.5330  -29.9394  -46.5397 C.ar      10 UNK        -0.0863 
     10 C10        17.4744  -30.6288  -45.3247 C.ar      10 UNK        -0.1009 
     11 C11        18.6475  -30.9627  -44.6401 C.ar      10 UNK        -0.0712 
     12 C12        19.8879  -30.6394  -45.1977 C.ar      10 UNK        -0.0894 
     13 C13        19.9595  -29.9748  -46.4260 C.ar      10 UNK        -0.0745 
     14 C14        18.7799  -29.6210  -47.0868 C.ar      10 UNK        -0.0972 
     15 C15        21.3104  -29.6675  -47.0551 C.3       10 UNK         0.0209 
     16 S16        22.1947  -28.3376  -46.1872 S.3       10 UNK        -0.2568 
     17 C17        21.2752  -26.8375  -46.6951 C.3       10 UNK        -0.0983 
     18 CA         21.1580  -25.7680  -45.5758 C.3       3 UNK         0.0876 
     19 N          20.5205  -26.3174  -44.3711 N.am      3 UNK        -0.4424 
     20 C          20.2560  -25.6646  -43.2296 C.2       2 UNK         0.4918 
     21 O          20.5935  -24.5030  -42.9981 O.2       2 UNK        -0.4875 
     22 CA         19.4330  -26.4541  -42.1923 C.3       2 UNK         0.0481 
     23 CB         19.1470  -25.6529  -40.9060 C.3       2 UNK        -0.1831 
     24 N          18.1860  -26.9784  -42.7640 N.am      2 UNK        -0.4498 
     25 C          17.2020  -26.2789  -43.3583 C.2       1 UNK         0.5027 
     26 O          17.1885  -25.0521  -43.4662 O.2       1 UNK        -0.4969 
     27 C          22.5092  -25.0649  -45.3125 C.2       3 UNK         0.5005 
     28 O          22.7122  -23.9343  -45.7591 O.2       3 UNK        -0.5279 
     29 N          23.3887  -25.7485  -44.5743 N.am      4 UNK        -0.4463 
     30 CA         24.7141  -25.3024  -44.1510 C.3       4 UNK         0.0283 
     31 CB         25.6963  -25.2982  -45.3418 C.3       4 UNK        -0.1875 
     32 C          25.1686  -26.2137  -43.0031 C.2       4 UNK         0.4949 
     33 O          26.2511  -26.7989  -43.0648 O.2       4 UNK        -0.5039 
     34 N          24.2814  -26.3820  -42.0107 N.am      5 UNK        -0.4663 
     35 CA         24.3374  -27.3063  -40.8669 C.3       5 UNK         0.0242 
     36 CB         25.5563  -27.0358  -39.9633 C.3       5 UNK        -0.1982 
     37 C          24.2491  -28.7933  -41.2565 C.2       5 UNK         0.5017 
     38 O          23.4362  -29.5098  -40.6761 O.2       5 UNK        -0.5012 
     39 N          25.0563  -29.2277  -42.2341 N.am      6 UNK        -0.4439 
     40 CA         25.1381  -30.5874  -42.7817 C.3       6 UNK         0.0297 
     41 CB         23.8883  -30.8850  -43.6424 C.3       6 UNK        -0.2006 
     42 C          25.4123  -31.6383  -41.6840 C.2       6 UNK         0.4892 
     43 O          26.2308  -31.3867  -40.7964 O.2       6 UNK        -0.5089 
     44 N          24.7153  -32.7808  -41.7328 N.am      7 UNK        -0.4243 
     45 CA         24.7554  -33.8419  -40.7233 C.3       7 UNK         0.0196 
     46 CB         24.3992  -35.1808  -41.3972 C.3       7 UNK        -0.2007 
     47 C          23.8378  -33.5125  -39.5273 C.2       7 UNK         0.5020 
     48 O          22.9452  -34.2975  -39.2036 O.2       7 UNK        -0.5147 
     49 N          24.0674  -32.3444  -38.9094 N.am      8 UNK        -0.4734 
     50 CA         23.3207  -31.7615  -37.7848 C.3       8 UNK         0.0238 
     51 CB         23.5499  -32.5806  -36.4962 C.3       8 UNK        -0.1912 
     52 C          21.8266  -31.5399  -38.1015 C.2       8 UNK         0.5038 
     53 O          20.9630  -31.8698  -37.2857 O.2       8 UNK        -0.5046 
     54 N          21.5554  -30.9885  -39.2895 N.am      9 UNK        -0.4200 
     55 CA         20.2271  -30.5797  -39.7506 C.3       9 UNK         0.0839 
     56 C          19.7733  -29.2768  -39.0364 C.2       9 UNK         0.5513 
     57 N          18.5420  -29.2289  -38.5473 N.am      9 UNK        -0.7519 
     58 O          20.5188  -28.3032  -38.9509 O.2       9 UNK        -0.4960 
     59 C59        20.2097  -30.4337  -41.2953 C.3       10 UNK        -0.0876 
     60 S60        18.5051  -30.4405  -41.9467 S.3       10 UNK        -0.2414 
     61 C61        18.5669  -31.6615  -43.2936 C.3       10 UNK         0.0169 
     62 H62        14.0121  -30.0699  -41.2809 H         1 UNK         0.0903 
     63 H63        15.3801  -30.6598  -42.2252 H         1 UNK         0.0903 
     64 H64        15.6400  -30.0269  -40.5978 H         1 UNK         0.0903 
     65 H65        16.1280  -29.1934  -43.7679 H         1 UNK         0.3096 
     66 H66        15.1330  -26.5013  -43.8195 H         1 UNK         0.1121 
     67 H67        16.0809  -26.3023  -45.9894 H         1 UNK         0.0849 
     68 H68        17.2872  -27.5126  -45.7117 H         1 UNK         0.0849 
     69 H69        15.7235  -30.4166  -47.5870 H         1 UNK         0.0865 
     70 H70        16.4979  -28.9698  -48.1764 H         1 UNK         0.0865 
     71 H71        16.5127  -30.8894  -44.9046 H         1 UNK         0.1346 
     72 H72        20.7983  -30.9038  -44.6774 H         1 UNK         0.1412 
     73 H73        18.8347  -29.0993  -48.0327 H         1 UNK         0.1426 
     74 H74        21.9258  -30.5680  -47.0299 H         1 UNK         0.0716 
     75 H75        21.2036  -29.4024  -48.1082 H         1 UNK         0.0716 
     76 H76        20.2737  -27.1271  -47.0147 H         1 UNK         0.0695 
     77 H77        21.7544  -26.4189  -47.5823 H         1 UNK         0.0695 
     78 H78        20.4831  -24.9910  -45.9410 H         1 UNK         0.0983 
     79 H79        20.2062  -27.2733  -44.4540 H         1 UNK         0.3095 
     80 H80        20.0356  -27.3173  -41.9105 H         1 UNK         0.0454 
     81 H81        18.5670  -24.7516  -41.1065 H         1 UNK         0.0851 
     82 H82        20.0760  -25.3438  -40.4256 H         1 UNK         0.0851 
     83 H83        18.5957  -26.2535  -40.1826 H         1 UNK         0.0851 
     84 H84        18.0727  -27.9830  -42.7220 H         1 UNK         0.2976 
     85 H85        23.1300  -26.6847  -44.2904 H         1 UNK         0.3116 
     86 H86        24.6373  -24.2887  -43.7528 H         1 UNK         0.0646 
     87 H87        25.7885  -26.2889  -45.7885 H         1 UNK         0.0847 
     88 H88        25.3787  -24.6077  -46.1228 H         1 UNK         0.0847 
     89 H89        26.6927  -24.9867  -45.0259 H         1 UNK         0.0847 
     90 H90        23.4276  -25.8437  -42.0738 H         1 UNK         0.3040 
     91 H91        23.4447  -27.0947  -40.2745 H         1 UNK         0.1015 
     92 H92        26.4994  -27.2482  -40.4673 H         1 UNK         0.0786 
     93 H93        25.5215  -27.6618  -39.0706 H         1 UNK         0.0786 
     94 H94        25.5800  -25.9982  -39.6306 H         1 UNK         0.0786 
     95 H95        25.7022  -28.5433  -42.6214 H         1 UNK         0.3172 
     96 H96        26.0077  -30.6005  -43.4399 H         1 UNK         0.0595 
     97 H97        22.9778  -30.9271  -43.0438 H         1 UNK         0.0839 
     98 H98        23.9845  -31.8291  -44.1798 H         1 UNK         0.0839 
     99 H99        23.7478  -30.1123  -44.3969 H         1 UNK         0.0839 
    100 H100       24.0399  -32.8947  -42.4744 H         1 UNK         0.2998 
    101 H101       25.7723  -33.9286  -40.3340 H         1 UNK         0.0822 
    102 H102       24.4585  -36.0049  -40.6847 H         1 UNK         0.0787 
    103 H103       23.3872  -35.1729  -41.8040 H         1 UNK         0.0787 
    104 H104       25.0868  -35.4102  -42.2115 H         1 UNK         0.0787 
    105 H105       24.8104  -31.7682  -39.2926 H         1 UNK         0.3055 
    106 H106       23.7396  -30.7671  -37.6208 H         1 UNK         0.1106 
    107 H107       24.6123  -32.6901  -36.2790 H         1 UNK         0.0828 
    108 H108       23.0937  -32.0904  -35.6352 H         1 UNK         0.0828 
    109 H109       23.1170  -33.5789  -36.5677 H         1 UNK         0.0828 
    110 H110       22.3336  -30.6408  -39.8471 H         1 UNK         0.2931 
    111 H111       19.5385  -31.3842  -39.4825 H         1 UNK         0.0412 
    112 H112       17.9238  -30.0209  -38.6252 H         1 UNK         0.3472 
    113 H113       18.2279  -28.3887  -38.0883 H         1 UNK         0.3472 
    114 H114       20.7251  -29.5274  -41.6160 H         1 UNK         0.0970 
    115 H115       20.7630  -31.2587  -41.7445 H         1 UNK         0.0970 
    116 H116       17.6637  -32.2719  -43.2483 H         1 UNK         0.0612 
    117 H117       19.4011  -32.3521  -43.1652 H         1 UNK         0.0612 
@<TRIPOS>BOND
     1    1    2 1    
     2    1   62 1    
     3    1   63 1    
     4    1   64 1    
     5    2    3 2    
     6    2    4 am   BACKBONE|DICT|INTERRES
     7    4    5 1    
     8    4   65 1    
     9    5    6 1    
    10    5   25 1    
    11    5   66 1    
    12    6    7 1    
    13    6   67 1    
    14    6   68 1    
    15    7    8 1    
    16    8    9 1    
    17    8   69 1    
    18    8   70 1    
    19    9   10 ar   
    20    9   14 ar   
    21   10   11 ar   
    22   10   71 1    
    23   11   12 ar   
    24   11   61 1    
    25   12   13 ar   
    26   12   72 1    
    27   13   14 ar   
    28   13   15 1    
    29   14   73 1    
    30   15   16 1    
    31   15   74 1    
    32   15   75 1    
    33   16   17 1    
    34   17   18 1    
    35   17   76 1    
    36   17   77 1    
    37   18   19 1    
    38   18   27 1    
    39   18   78 1    
    40   19   20 am   BACKBONE|DICT|INTERRES
    41   19   79 1    
    42   20   21 2    
    43   20   22 1    
    44   22   23 1    
    45   22   24 1    
    46   22   80 1    
    47   23   81 1    
    48   23   82 1    
    49   23   83 1    
    50   24   25 am   BACKBONE|DICT|INTERRES
    51   24   84 1    
    52   25   26 2    
    53   27   28 2    
    54   27   29 am   BACKBONE|DICT|INTERRES
    55   29   30 1    
    56   29   85 1    
    57   30   31 1    
    58   30   32 1    
    59   30   86 1    
    60   31   87 1    
    61   31   88 1    
    62   31   89 1    
    63   32   33 2    
    64   32   34 am   BACKBONE|DICT|INTERRES
    65   34   35 1    
    66   34   90 1    
    67   35   36 1    
    68   35   37 1    
    69   35   91 1    
    70   36   92 1    
    71   36   93 1    
    72   36   94 1    
    73   37   38 2    
    74   37   39 am   BACKBONE|DICT|INTERRES
    75   39   40 1    
    76   39   95 1    
    77   40   41 1    
    78   40   42 1    
    79   40   96 1    
    80   41   97 1    
    81   41   98 1    
    82   41   99 1    
    83   42   43 2    
    84   42   44 am   BACKBONE|DICT|INTERRES
    85   44   45 1    
    86   44  100 1    
    87   45   46 1    
    88   45   47 1    
    89   45  101 1    
    90   46  102 1    
    91   46  103 1    
    92   46  104 1    
    93   47   48 2    
    94   47   49 am   BACKBONE|DICT|INTERRES
    95   49   50 1    
    96   49  105 1    
    97   50   51 1    
    98   50   52 1    
    99   50  106 1    
   100   51  107 1    
   101   51  108 1    
   102   51  109 1    
   103   52   53 2    
   104   52   54 am   BACKBONE|DICT|INTERRES
   105   54   55 1    
   106   54  110 1    
   107   55   56 1    
   108   55   59 1    
   109   55  111 1    
   110   56   57 am   BACKBONE|DICT|INTERRES
   111   56   58 2    
   112   57  112 1    
   113   57  113 1    
   114   59   60 1    
   115   59  114 1    
   116   59  115 1    
   117   60   61 1    
   118   61  116 1    
   119   61  117 1    
@<TRIPOS>SUBSTRUCTURE
     1 UNK         1 GROUP             0       ****    0 ROOT    
