@<TRIPOS>MOLECULE
3R8
117   119    1
SMALL
USER_CHARGES


@<TRIPOS>ATOM
      1 CA         14.2179  -24.4457  -40.3338 C.3       0 UNK        -0.2013 
      2 C          14.8588  -25.3754  -41.3544 C.2       0 UNK         0.4866 
      3 O          14.3188  -26.4512  -41.6119 O.2       0 UNK        -0.5176 
      4 N          15.9907  -24.9498  -41.9355 N.am      1 UNK        -0.4884 
      5 CA         16.8455  -25.6686  -42.8923 C.3       1 UNK         0.0853 
      6 C6         16.0705  -26.2653  -44.0972 C.3       10 UNK        -0.0849 
      7 S7         17.1137  -26.5018  -45.5774 S.3       10 UNK        -0.2776 
      8 C8         16.6475  -28.1874  -46.0905 C.3       10 UNK         0.0316 
      9 C9         17.5905  -29.2335  -45.5152 C.ar      10 UNK        -0.0863 
     10 C10        17.4550  -29.6655  -44.1911 C.ar      10 UNK        -0.1009 
     11 C11        18.3305  -30.6198  -43.6654 C.ar      10 UNK        -0.0712 
     12 C12        19.3299  -31.1572  -44.4784 C.ar      10 UNK        -0.0894 
     13 C13        19.4677  -30.7459  -45.8059 C.ar      10 UNK        -0.0745 
     14 C14        18.5963  -29.7812  -46.3187 C.ar      10 UNK        -0.0972 
     15 C15        20.5582  -31.3499  -46.6802 C.3       10 UNK         0.0209 
     16 S16        21.8469  -30.1437  -47.1312 S.3       10 UNK        -0.2568 
     17 C17        22.3431  -29.4714  -45.5096 C.3       10 UNK        -0.0983 
     18 CA         21.8760  -27.9880  -45.3449 C.3       3 UNK         0.0876 
     19 N          20.9229  -27.8091  -44.2379 N.am      3 UNK        -0.4424 
     20 C          21.2080  -27.8523  -42.9276 C.2       2 UNK         0.4918 
     21 O          22.3359  -28.0686  -42.4836 O.2       2 UNK        -0.4875 
     22 CA         20.0562  -27.5796  -41.9450 C.3       2 UNK         0.0481 
     23 CB         20.5457  -26.9795  -40.6102 C.3       2 UNK        -0.1831 
     24 N          19.0329  -26.7103  -42.5322 N.am      2 UNK        -0.4498 
     25 C          17.7399  -26.7089  -42.1828 C.2       1 UNK         0.5027 
     26 O          17.2619  -27.4775  -41.3455 O.2       1 UNK        -0.4969 
     27 C          23.0314  -26.9575  -45.2824 C.2       3 UNK         0.5005 
     28 O          24.2058  -27.3274  -45.2815 O.2       3 UNK        -0.5279 
     29 N          22.6665  -25.6690  -45.1724 N.am      4 UNK        -0.4463 
     30 CA         23.5650  -24.5163  -44.9980 C.3       4 UNK         0.0283 
     31 CB         24.4211  -24.2832  -46.2619 C.3       4 UNK        -0.1875 
     32 C          24.4062  -24.6091  -43.7069 C.2       4 UNK         0.4949 
     33 O          25.6088  -24.3436  -43.7266 O.2       4 UNK        -0.5039 
     34 N          23.7364  -24.9944  -42.6101 N.am      5 UNK        -0.4663 
     35 CA         24.2656  -25.1762  -41.2508 C.3       5 UNK         0.0242 
     36 CB         24.8125  -23.8491  -40.6809 C.3       5 UNK        -0.1982 
     37 C          25.2605  -26.3462  -41.1043 C.2       5 UNK         0.5017 
     38 O          26.0518  -26.3525  -40.1597 O.2       5 UNK        -0.5012 
     39 N          25.1818  -27.3372  -42.0037 N.am      6 UNK        -0.4439 
     40 CA         25.9032  -28.6091  -41.8986 C.3       6 UNK         0.0297 
     41 CB         25.9172  -29.3042  -43.2681 C.3       6 UNK        -0.2006 
     42 C          25.2940  -29.5462  -40.8396 C.2       6 UNK         0.4892 
     43 O          26.0212  -30.3689  -40.2825 O.2       6 UNK        -0.5089 
     44 N          23.9803  -29.4054  -40.5955 N.am      7 UNK        -0.4243 
     45 CA         23.1497  -30.1884  -39.6720 C.3       7 UNK         0.0196 
     46 CB         23.5921  -29.9807  -38.2083 C.3       7 UNK        -0.2007 
     47 C          23.0553  -31.6709  -40.0760 C.2       7 UNK         0.5020 
     48 O          23.0660  -32.5537  -39.2168 O.2       7 UNK        -0.5147 
     49 N          22.9382  -31.9177  -41.3891 N.am      8 UNK        -0.4734 
     50 CA         22.8957  -33.2522  -42.0016 C.3       8 UNK         0.0238 
     51 CB         22.9962  -33.1074  -43.5292 C.3       8 UNK        -0.1912 
     52 C          21.6805  -34.1145  -41.6022 C.2       8 UNK         0.5038 
     53 O          21.7408  -35.3349  -41.7571 O.2       8 UNK        -0.5046 
     54 N          20.6217  -33.4812  -41.0797 N.am      9 UNK        -0.4200 
     55 CA         19.4674  -34.1504  -40.4562 C.3       9 UNK         0.0839 
     56 C          19.7604  -34.7279  -39.0390 C.2       9 UNK         0.5513 
     57 N          20.8862  -34.4229  -38.4025 N.am      9 UNK        -0.7519 
     58 O          18.9461  -35.4779  -38.5070 O.2       9 UNK        -0.4960 
     59 C59        18.2076  -33.2425  -40.4325 C.3       10 UNK        -0.0876 
     60 S60        17.6431  -32.7888  -42.1064 S.3       10 UNK        -0.2414 
     61 C61        18.2220  -31.0691  -42.2178 C.3       10 UNK         0.0169 
     62 H62        14.1579  -24.9391  -39.3641 H         1 UNK         0.0903 
     63 H63        14.7819  -23.5215  -40.2091 H         1 UNK         0.0903 
     64 H64        13.2069  -24.1854  -40.6464 H         1 UNK         0.0903 
     65 H65        16.3587  -24.0529  -41.6475 H         1 UNK         0.3096 
     66 H66        17.5028  -24.8906  -43.2850 H         1 UNK         0.1121 
     67 H67        15.5771  -27.1970  -43.8176 H         1 UNK         0.0849 
     68 H68        15.2673  -25.5871  -44.3894 H         1 UNK         0.0849 
     69 H69        15.6180  -28.4082  -45.8051 H         1 UNK         0.0865 
     70 H70        16.6645  -28.2298  -47.1808 H         1 UNK         0.0865 
     71 H71        16.6766  -29.2533  -43.5647 H         1 UNK         0.1346 
     72 H72        19.9940  -31.9052  -44.0711 H         1 UNK         0.1412 
     73 H73        18.7071  -29.4571  -47.3448 H         1 UNK         0.1426 
     74 H74        20.1089  -31.7440  -47.5927 H         1 UNK         0.0716 
     75 H75        21.0300  -32.1985  -46.1827 H         1 UNK         0.0716 
     76 H76        23.4218  -29.6023  -45.4335 H         1 UNK         0.0695 
     77 H77        21.9439  -30.1012  -44.7150 H         1 UNK         0.0695 
     78 H78        21.3125  -27.7023  -46.2349 H         1 UNK         0.0983 
     79 H79        19.9566  -27.6976  -44.5118 H         1 UNK         0.3095 
     80 H80        19.6149  -28.5546  -41.7361 H         1 UNK         0.0454 
     81 H81        21.3130  -27.5974  -40.1446 H         1 UNK         0.0851 
     82 H82        19.7304  -26.8965  -39.8916 H         1 UNK         0.0851 
     83 H83        20.9667  -25.9840  -40.7497 H         1 UNK         0.0851 
     84 H84        19.3531  -26.0432  -43.2203 H         1 UNK         0.2976 
     85 H85        21.6788  -25.4554  -45.1804 H         1 UNK         0.3116 
     86 H86        22.9229  -23.6425  -44.8763 H         1 UNK         0.0646 
     87 H87        25.1355  -25.0908  -46.4245 H         1 UNK         0.0847 
     88 H88        23.7998  -24.2001  -47.1534 H         1 UNK         0.0847 
     89 H89        24.9933  -23.3584  -46.1798 H         1 UNK         0.0847 
     90 H90        22.7558  -25.2068  -42.7226 H         1 UNK         0.3040 
     91 H91        23.4096  -25.4571  -40.6357 H         1 UNK         0.1015 
     92 H92        25.0432  -23.9439  -39.6191 H         1 UNK         0.0786 
     93 H93        24.0847  -23.0439  -40.7802 H         1 UNK         0.0786 
     94 H94        25.7290  -23.5382  -41.1831 H         1 UNK         0.0786 
     95 H95        24.4952  -27.2622  -42.7447 H         1 UNK         0.3172 
     96 H96        26.9359  -28.4008  -41.6109 H         1 UNK         0.0595 
     97 H97        24.9094  -29.5534  -43.6001 H         1 UNK         0.0839 
     98 H98        26.4876  -30.2332  -43.2299 H         1 UNK         0.0839 
     99 H99        26.3744  -28.6728  -44.0303 H         1 UNK         0.0839 
    100 H100       23.4744  -28.7406  -41.1768 H         1 UNK         0.2998 
    101 H101       22.1372  -29.7944  -39.7638 H         1 UNK         0.0822 
    102 H102       22.8909  -30.4513  -37.5180 H         1 UNK         0.0787 
    103 H103       23.6353  -28.9217  -37.9540 H         1 UNK         0.0787 
    104 H104       24.5745  -30.4127  -38.0154 H         1 UNK         0.0787 
    105 H105       22.9427  -31.1290  -42.0197 H         1 UNK         0.3055 
    106 H106       23.7798  -33.7934  -41.6567 H         1 UNK         0.1106 
    107 H107       23.9303  -32.6268  -43.8212 H         1 UNK         0.0828 
    108 H108       22.9708  -34.0821  -44.0187 H         1 UNK         0.0828 
    109 H109       22.1771  -32.5176  -43.9361 H         1 UNK         0.0828 
    110 H110       20.6716  -32.4806  -40.9758 H         1 UNK         0.2931 
    111 H111       19.2234  -35.0155  -41.0762 H         1 UNK         0.0412 
    112 H112       21.0509  -34.8143  -37.4887 H         1 UNK         0.3472 
    113 H113       21.5794  -33.8056  -38.8127 H         1 UNK         0.3472 
    114 H114       18.3852  -32.3451  -39.8371 H         1 UNK         0.0970 
    115 H115       17.3762  -33.7595  -39.9490 H         1 UNK         0.0970 
    116 H116       19.2025  -30.9790  -41.7493 H         1 UNK         0.0612 
    117 H117       17.5464  -30.4228  -41.6550 H         1 UNK         0.0612 
@<TRIPOS>BOND
     1    1    2 1    
     2    1   62 1    
     3    1   63 1    
     4    1   64 1    
     5    2    3 2    
     6    2    4 am   BACKBONE|DICT|INTERRES
     7    4    5 1    
     8    4   65 1    
     9    5    6 1    
    10    5   25 1    
    11    5   66 1    
    12    6    7 1    
    13    6   67 1    
    14    6   68 1    
    15    7    8 1    
    16    8    9 1    
    17    8   69 1    
    18    8   70 1    
    19    9   10 ar   
    20    9   14 ar   
    21   10   11 ar   
    22   10   71 1    
    23   11   12 ar   
    24   11   61 1    
    25   12   13 ar   
    26   12   72 1    
    27   13   14 ar   
    28   13   15 1    
    29   14   73 1    
    30   15   16 1    
    31   15   74 1    
    32   15   75 1    
    33   16   17 1    
    34   17   18 1    
    35   17   76 1    
    36   17   77 1    
    37   18   19 1    
    38   18   27 1    
    39   18   78 1    
    40   19   20 am   BACKBONE|DICT|INTERRES
    41   19   79 1    
    42   20   21 2    
    43   20   22 1    
    44   22   23 1    
    45   22   24 1    
    46   22   80 1    
    47   23   81 1    
    48   23   82 1    
    49   23   83 1    
    50   24   25 am   BACKBONE|DICT|INTERRES
    51   24   84 1    
    52   25   26 2    
    53   27   28 2    
    54   27   29 am   BACKBONE|DICT|INTERRES
    55   29   30 1    
    56   29   85 1    
    57   30   31 1    
    58   30   32 1    
    59   30   86 1    
    60   31   87 1    
    61   31   88 1    
    62   31   89 1    
    63   32   33 2    
    64   32   34 am   BACKBONE|DICT|INTERRES
    65   34   35 1    
    66   34   90 1    
    67   35   36 1    
    68   35   37 1    
    69   35   91 1    
    70   36   92 1    
    71   36   93 1    
    72   36   94 1    
    73   37   38 2    
    74   37   39 am   BACKBONE|DICT|INTERRES
    75   39   40 1    
    76   39   95 1    
    77   40   41 1    
    78   40   42 1    
    79   40   96 1    
    80   41   97 1    
    81   41   98 1    
    82   41   99 1    
    83   42   43 2    
    84   42   44 am   BACKBONE|DICT|INTERRES
    85   44   45 1    
    86   44  100 1    
    87   45   46 1    
    88   45   47 1    
    89   45  101 1    
    90   46  102 1    
    91   46  103 1    
    92   46  104 1    
    93   47   48 2    
    94   47   49 am   BACKBONE|DICT|INTERRES
    95   49   50 1    
    96   49  105 1    
    97   50   51 1    
    98   50   52 1    
    99   50  106 1    
   100   51  107 1    
   101   51  108 1    
   102   51  109 1    
   103   52   53 2    
   104   52   54 am   BACKBONE|DICT|INTERRES
   105   54   55 1    
   106   54  110 1    
   107   55   56 1    
   108   55   59 1    
   109   55  111 1    
   110   56   57 am   BACKBONE|DICT|INTERRES
   111   56   58 2    
   112   57  112 1    
   113   57  113 1    
   114   59   60 1    
   115   59  114 1    
   116   59  115 1    
   117   60   61 1    
   118   61  116 1    
   119   61  117 1    
@<TRIPOS>SUBSTRUCTURE
     1 UNK         1 GROUP             0       ****    0 ROOT    
