@<TRIPOS>MOLECULE
3R8
117   119    1
SMALL
USER_CHARGES


@<TRIPOS>ATOM
      1 CA         19.5560  -29.1672  -42.1558 C.3       0 UNK        -0.2013 
      2 C          18.2978  -28.3405  -42.3724 C.2       0 UNK         0.4866 
      3 O          17.9261  -27.5578  -41.4992 O.2       0 UNK        -0.5176 
      4 N          17.6527  -28.4841  -43.5407 N.am      1 UNK        -0.4884 
      5 CA         16.4825  -27.6874  -43.9612 C.3       1 UNK         0.0853 
      6 C6         15.8291  -28.2466  -45.2493 C.3       10 UNK        -0.0849 
      7 S7         15.3218  -29.9907  -45.0973 S.3       10 UNK        -0.2776 
      8 C8         16.3246  -30.7786  -46.4012 C.3       10 UNK         0.0316 
      9 C9         17.7960  -30.8944  -46.0218 C.ar      10 UNK        -0.0863 
     10 C10        18.1694  -31.6890  -44.9344 C.ar      10 UNK        -0.1009 
     11 C11        19.5178  -31.8608  -44.5972 C.ar      10 UNK        -0.0712 
     12 C12        20.4916  -31.2282  -45.3774 C.ar      10 UNK        -0.0894 
     13 C13        20.1371  -30.4332  -46.4715 C.ar      10 UNK        -0.0745 
     14 C14        18.7845  -30.2613  -46.7834 C.ar      10 UNK        -0.0972 
     15 C15        21.2203  -29.8217  -47.3551 C.3       10 UNK         0.0209 
     16 S16        21.4622  -28.0381  -47.0737 S.3       10 UNK        -0.2568 
     17 C17        22.2472  -28.0159  -45.4229 C.3       10 UNK        -0.0983 
     18 CA         22.1370  -26.6477  -44.6872 C.3       3 UNK         0.0876 
     19 N          20.7740  -26.1164  -44.8115 N.am      3 UNK        -0.4424 
     20 C          20.2948  -24.8989  -44.5133 C.2       2 UNK         0.4918 
     21 O          20.9767  -23.9849  -44.0517 O.2       2 UNK        -0.4875 
     22 CA         18.7847  -24.6948  -44.7123 C.3       2 UNK         0.0481 
     23 CB         18.4778  -24.1000  -46.0970 C.3       2 UNK        -0.1831 
     24 N          18.1035  -25.9745  -44.5387 N.am      2 UNK        -0.4498 
     25 C          16.8382  -26.1993  -44.1802 C.2       1 UNK         0.5027 
     26 O          15.9886  -25.3213  -44.0259 O.2       1 UNK        -0.4969 
     27 C          22.6425  -26.7699  -43.2239 C.2       3 UNK         0.5005 
     28 O          23.3498  -27.7269  -42.9068 O.2       3 UNK        -0.5279 
     29 N          22.2558  -25.8363  -42.3449 N.am      4 UNK        -0.4463 
     30 CA         22.5622  -25.8207  -40.9133 C.3       4 UNK         0.0283 
     31 CB         21.8460  -24.6278  -40.2611 C.3       4 UNK        -0.1875 
     32 C          24.0717  -25.7642  -40.6298 C.2       4 UNK         0.4949 
     33 O          24.8196  -25.1531  -41.3966 O.2       4 UNK        -0.5039 
     34 N          24.4868  -26.4217  -39.5393 N.am      5 UNK        -0.4663 
     35 CA         25.8614  -26.6236  -39.0518 C.3       5 UNK         0.0242 
     36 CB         26.5874  -25.2886  -38.7922 C.3       5 UNK        -0.1982 
     37 C          26.7074  -27.5637  -39.9309 C.2       5 UNK         0.5017 
     38 O          27.4537  -28.3771  -39.3850 O.2       5 UNK        -0.5012 
     39 N          26.5605  -27.4685  -41.2589 N.am      6 UNK        -0.4439 
     40 CA         27.1205  -28.4026  -42.2382 C.3       6 UNK         0.0297 
     41 CB         26.9848  -27.8082  -43.6493 C.3       6 UNK        -0.2006 
     42 C          26.4514  -29.7870  -42.1650 C.2       6 UNK         0.4892 
     43 O          27.1352  -30.7996  -42.3206 O.2       6 UNK        -0.5089 
     44 N          25.1394  -29.8002  -41.9087 N.am      7 UNK        -0.4243 
     45 CA         24.3127  -30.9796  -41.6918 C.3       7 UNK         0.0196 
     46 CB         23.6371  -31.3660  -43.0198 C.3       7 UNK        -0.2007 
     47 C          23.2685  -30.6680  -40.6102 C.2       7 UNK         0.5020 
     48 O          23.1033  -29.5113  -40.2124 O.2       7 UNK        -0.5147 
     49 N          22.5641  -31.7118  -40.1670 N.am      8 UNK        -0.4734 
     50 CA         21.4214  -31.6313  -39.2636 C.3       8 UNK         0.0238 
     51 CB         21.8754  -31.8751  -37.8143 C.3       8 UNK        -0.1912 
     52 C          20.4050  -32.6828  -39.7171 C.2       8 UNK         0.5038 
     53 O          20.8043  -33.8110  -40.0154 O.2       8 UNK        -0.5046 
     54 N          19.1309  -32.2893  -39.7715 N.am      9 UNK        -0.4200 
     55 CA         17.9859  -33.1009  -40.1994 C.3       9 UNK         0.0839 
     56 C          16.7482  -32.7278  -39.3444 C.2       9 UNK         0.5513 
     57 N          15.8017  -33.6435  -39.1950 N.am      9 UNK        -0.7519 
     58 O          16.6250  -31.6130  -38.8392 O.2       9 UNK        -0.4960 
     59 C59        17.6872  -32.9339  -41.7174 C.3       10 UNK        -0.0876 
     60 S60        18.7818  -33.9377  -42.7803 S.3       10 UNK        -0.2414 
     61 C61        19.9784  -32.7078  -43.4076 C.3       10 UNK         0.0169 
     62 H62        19.3325  -30.0381  -41.5438 H         1 UNK         0.0903 
     63 H63        19.9843  -29.5016  -43.0989 H         1 UNK         0.0903 
     64 H64        20.3150  -28.5768  -41.6418 H         1 UNK         0.0903 
     65 H65        17.9514  -29.1944  -44.1974 H         1 UNK         0.3096 
     66 H66        15.7463  -27.7259  -43.1550 H         1 UNK         0.1121 
     67 H67        14.9362  -27.6702  -45.5004 H         1 UNK         0.0849 
     68 H68        16.5041  -28.1363  -46.1006 H         1 UNK         0.0849 
     69 H69        15.9328  -31.7805  -46.5827 H         1 UNK         0.0865 
     70 H70        16.1992  -30.2334  -47.3381 H         1 UNK         0.0865 
     71 H71        17.3924  -32.1778  -44.3657 H         1 UNK         0.1346 
     72 H72        21.5372  -31.3693  -45.1419 H         1 UNK         0.1412 
     73 H73        18.5075  -29.6602  -47.6392 H         1 UNK         0.1426 
     74 H74        20.9522  -29.9735  -48.4016 H         1 UNK         0.0716 
     75 H75        22.1717  -30.3369  -47.2123 H         1 UNK         0.0716 
     76 H76        23.2939  -28.3035  -45.5393 H         1 UNK         0.0695 
     77 H77        21.7829  -28.7973  -44.8202 H         1 UNK         0.0695 
     78 H78        22.8042  -25.9411  -45.1847 H         1 UNK         0.0983 
     79 H79        20.1646  -26.7446  -45.3106 H         1 UNK         0.3095 
     80 H80        18.4376  -24.0049  -43.9404 H         1 UNK         0.0454 
     81 H81        18.9979  -23.1515  -46.2372 H         1 UNK         0.0851 
     82 H82        17.4123  -23.9050  -46.2180 H         1 UNK         0.0851 
     83 H83        18.7897  -24.7669  -46.9015 H         1 UNK         0.0851 
     84 H84        18.6940  -26.7910  -44.5422 H         1 UNK         0.2976 
     85 H85        21.7410  -25.0427  -42.7153 H         1 UNK         0.3116 
     86 H86        22.1631  -26.7440  -40.4875 H         1 UNK         0.0646 
     87 H87        22.0306  -24.5989  -39.1863 H         1 UNK         0.0847 
     88 H88        20.7665  -24.6871  -40.4015 H         1 UNK         0.0847 
     89 H89        22.1876  -23.6785  -40.6760 H         1 UNK         0.0847 
     90 H90        23.7836  -26.9327  -39.0213 H         1 UNK         0.3040 
     91 H91        25.7544  -27.1247  -38.0880 H         1 UNK         0.1015 
     92 H92        27.5497  -25.4606  -38.3081 H         1 UNK         0.0786 
     93 H93        26.0057  -24.6415  -38.1357 H         1 UNK         0.0786 
     94 H94        26.7864  -24.7412  -39.7138 H         1 UNK         0.0786 
     95 H95        25.9380  -26.7430  -41.6036 H         1 UNK         0.3172 
     96 H96        28.1829  -28.5292  -42.0196 H         1 UNK         0.0595 
     97 H97        25.9410  -27.6439  -43.9205 H         1 UNK         0.0839 
     98 H98        27.4138  -28.4774  -44.3963 H         1 UNK         0.0839 
     99 H99        27.5066  -26.8546  -43.7307 H         1 UNK         0.0839 
    100 H100       24.6360  -28.9208  -41.8242 H         1 UNK         0.2998 
    101 H101       24.9323  -31.8060  -41.3367 H         1 UNK         0.0822 
    102 H102       24.3748  -31.5524  -43.8005 H         1 UNK         0.0787 
    103 H103       22.9744  -30.5735  -43.3696 H         1 UNK         0.0787 
    104 H104       23.0432  -32.2738  -42.9143 H         1 UNK         0.0787 
    105 H105       22.7249  -32.6321  -40.5575 H         1 UNK         0.3055 
    106 H106       20.9640  -30.6412  -39.3338 H         1 UNK         0.1106 
    107 H107       22.3384  -32.8556  -37.6960 H         1 UNK         0.0828 
    108 H108       22.5976  -31.1234  -37.4951 H         1 UNK         0.0828 
    109 H109       21.0303  -31.8264  -37.1266 H         1 UNK         0.0828 
    110 H110       18.8732  -31.3744  -39.4259 H         1 UNK         0.2931 
    111 H111       18.2035  -34.1505  -39.9895 H         1 UNK         0.0412 
    112 H112       15.8905  -34.5588  -39.6094 H         1 UNK         0.3472 
    113 H113       14.9831  -33.4182  -38.6508 H         1 UNK         0.3472 
    114 H114       16.6701  -33.2575  -41.9476 H         1 UNK         0.0970 
    115 H115       17.7311  -31.8830  -42.0068 H         1 UNK         0.0970 
    116 H116       20.8719  -33.2609  -43.7000 H         1 UNK         0.0612 
    117 H117       20.2832  -32.0491  -42.5955 H         1 UNK         0.0612 
@<TRIPOS>BOND
     1    1    2 1    
     2    1   62 1    
     3    1   63 1    
     4    1   64 1    
     5    2    3 2    
     6    2    4 am   BACKBONE|DICT|INTERRES
     7    4    5 1    
     8    4   65 1    
     9    5    6 1    
    10    5   25 1    
    11    5   66 1    
    12    6    7 1    
    13    6   67 1    
    14    6   68 1    
    15    7    8 1    
    16    8    9 1    
    17    8   69 1    
    18    8   70 1    
    19    9   10 ar   
    20    9   14 ar   
    21   10   11 ar   
    22   10   71 1    
    23   11   12 ar   
    24   11   61 1    
    25   12   13 ar   
    26   12   72 1    
    27   13   14 ar   
    28   13   15 1    
    29   14   73 1    
    30   15   16 1    
    31   15   74 1    
    32   15   75 1    
    33   16   17 1    
    34   17   18 1    
    35   17   76 1    
    36   17   77 1    
    37   18   19 1    
    38   18   27 1    
    39   18   78 1    
    40   19   20 am   BACKBONE|DICT|INTERRES
    41   19   79 1    
    42   20   21 2    
    43   20   22 1    
    44   22   23 1    
    45   22   24 1    
    46   22   80 1    
    47   23   81 1    
    48   23   82 1    
    49   23   83 1    
    50   24   25 am   BACKBONE|DICT|INTERRES
    51   24   84 1    
    52   25   26 2    
    53   27   28 2    
    54   27   29 am   BACKBONE|DICT|INTERRES
    55   29   30 1    
    56   29   85 1    
    57   30   31 1    
    58   30   32 1    
    59   30   86 1    
    60   31   87 1    
    61   31   88 1    
    62   31   89 1    
    63   32   33 2    
    64   32   34 am   BACKBONE|DICT|INTERRES
    65   34   35 1    
    66   34   90 1    
    67   35   36 1    
    68   35   37 1    
    69   35   91 1    
    70   36   92 1    
    71   36   93 1    
    72   36   94 1    
    73   37   38 2    
    74   37   39 am   BACKBONE|DICT|INTERRES
    75   39   40 1    
    76   39   95 1    
    77   40   41 1    
    78   40   42 1    
    79   40   96 1    
    80   41   97 1    
    81   41   98 1    
    82   41   99 1    
    83   42   43 2    
    84   42   44 am   BACKBONE|DICT|INTERRES
    85   44   45 1    
    86   44  100 1    
    87   45   46 1    
    88   45   47 1    
    89   45  101 1    
    90   46  102 1    
    91   46  103 1    
    92   46  104 1    
    93   47   48 2    
    94   47   49 am   BACKBONE|DICT|INTERRES
    95   49   50 1    
    96   49  105 1    
    97   50   51 1    
    98   50   52 1    
    99   50  106 1    
   100   51  107 1    
   101   51  108 1    
   102   51  109 1    
   103   52   53 2    
   104   52   54 am   BACKBONE|DICT|INTERRES
   105   54   55 1    
   106   54  110 1    
   107   55   56 1    
   108   55   59 1    
   109   55  111 1    
   110   56   57 am   BACKBONE|DICT|INTERRES
   111   56   58 2    
   112   57  112 1    
   113   57  113 1    
   114   59   60 1    
   115   59  114 1    
   116   59  115 1    
   117   60   61 1    
   118   61  116 1    
   119   61  117 1    
@<TRIPOS>SUBSTRUCTURE
     1 UNK         1 GROUP             0       ****    0 ROOT    
