@<TRIPOS>MOLECULE
3R8
117   119    1
SMALL
USER_CHARGES


@<TRIPOS>ATOM
      1 CA         17.6102  -23.6886  -49.7222 C.3       0 UNK        -0.2013 
      2 C          17.6650  -25.1070  -49.1746 C.2       0 UNK         0.4866 
      3 O          17.4000  -26.0580  -49.9103 O.2       0 UNK        -0.5176 
      4 N          18.0066  -25.2563  -47.8909 N.am      1 UNK        -0.4884 
      5 CA         18.1340  -26.5346  -47.1948 C.3       1 UNK         0.0853 
      6 C6         16.7894  -26.9712  -46.5398 C.3       10 UNK        -0.0849 
      7 S7         16.4805  -28.7738  -46.5357 S.3       10 UNK        -0.2776 
      8 C8         17.7121  -29.4616  -45.3803 C.3       10 UNK         0.0316 
      9 C9         17.2901  -29.4442  -43.9147 C.ar      10 UNK        -0.0863 
     10 C10        17.1291  -30.6560  -43.2358 C.ar      10 UNK        -0.1009 
     11 C11        16.9038  -30.6773  -41.8569 C.ar      10 UNK        -0.0712 
     12 C12        16.7715  -29.4733  -41.1638 C.ar      10 UNK        -0.0894 
     13 C13        16.9176  -28.2532  -41.8279 C.ar      10 UNK        -0.0745 
     14 C14        17.1766  -28.2439  -43.2031 C.ar      10 UNK        -0.0972 
     15 C15        16.8792  -26.9557  -41.0339 C.3       10 UNK         0.0209 
     16 S16        18.2990  -26.8356  -39.8929 S.3       10 UNK        -0.2568 
     17 C17        19.6685  -26.3906  -41.0157 C.3       10 UNK        -0.0983 
     18 CA         20.2935  -27.5855  -41.7881 C.3       3 UNK         0.0876 
     19 N          20.8761  -27.1158  -43.0455 N.am      3 UNK        -0.4424 
     20 C          21.1200  -27.8697  -44.1212 C.2       2 UNK         0.4918 
     21 O          20.9846  -29.0928  -44.1609 O.2       2 UNK        -0.4875 
     22 CA         21.5043  -27.1036  -45.3989 C.3       2 UNK         0.0481 
     23 CB         22.7329  -27.7199  -46.0856 C.3       2 UNK        -0.1831 
     24 N          20.3753  -27.0871  -46.3334 N.am      2 UNK        -0.4498 
     25 C          19.2668  -26.3489  -46.1711 C.2       1 UNK         0.5027 
     26 O          19.1219  -25.5252  -45.2648 O.2       1 UNK        -0.4969 
     27 C          21.2493  -28.4456  -40.9377 C.2       3 UNK         0.5005 
     28 O          22.4167  -28.6337  -41.2906 O.2       3 UNK        -0.5279 
     29 N          20.7243  -28.9594  -39.8174 N.am      4 UNK        -0.4463 
     30 CA         21.3945  -29.8486  -38.8644 C.3       4 UNK         0.0283 
     31 CB         20.4383  -30.1724  -37.7066 C.3       4 UNK        -0.1875 
     32 C          22.7300  -29.3060  -38.3301 C.2       4 UNK         0.4949 
     33 O          23.6951  -30.0618  -38.2283 O.2       4 UNK        -0.5039 
     34 N          22.7704  -27.9990  -38.0448 N.am      5 UNK        -0.4663 
     35 CA         23.9697  -27.2903  -37.5930 C.3       5 UNK         0.0242 
     36 CB         23.5389  -25.9967  -36.8816 C.3       5 UNK        -0.1982 
     37 C          24.9639  -26.9714  -38.7259 C.2       5 UNK         0.5017 
     38 O          26.1186  -26.6637  -38.4281 O.2       5 UNK        -0.5012 
     39 N          24.5076  -27.0165  -39.9855 N.am      6 UNK        -0.4439 
     40 CA         25.2957  -26.6641  -41.1657 C.3       6 UNK         0.0297 
     41 CB         24.4130  -25.9031  -42.1702 C.3       6 UNK        -0.2006 
     42 C          25.9185  -27.9012  -41.8248 C.2       6 UNK         0.4892 
     43 O          27.1156  -27.8825  -42.1141 O.2       6 UNK        -0.5089 
     44 N          25.1053  -28.9378  -42.0716 N.am      7 UNK        -0.4243 
     45 CA         25.5026  -30.1191  -42.8423 C.3       7 UNK         0.0196 
     46 CB         25.3388  -29.8353  -44.3493 C.3       7 UNK        -0.2007 
     47 C          24.7517  -31.3901  -42.4173 C.2       7 UNK         0.5020 
     48 O          24.6005  -32.2934  -43.2408 O.2       7 UNK        -0.5147 
     49 N          24.2885  -31.4586  -41.1589 N.am      8 UNK        -0.4734 
     50 CA         23.6065  -32.6156  -40.5524 C.3       8 UNK         0.0238 
     51 CB         24.6066  -33.7731  -40.3389 C.3       8 UNK        -0.1912 
     52 C          22.3402  -33.0572  -41.3202 C.2       8 UNK         0.5038 
     53 O          22.1122  -34.2574  -41.4796 O.2       8 UNK        -0.5046 
     54 N          21.5669  -32.0727  -41.8022 N.am      9 UNK        -0.4200 
     55 CA         20.3878  -32.2223  -42.6762 C.3       9 UNK         0.0839 
     56 C          20.7219  -32.6013  -44.1519 C.2       9 UNK         0.5513 
     57 N          21.9808  -32.6845  -44.5669 N.am      9 UNK        -0.7519 
     58 O          19.8128  -32.8007  -44.9539 O.2       9 UNK        -0.4960 
     59 C59        19.2645  -33.1289  -42.0827 C.3       10 UNK        -0.0876 
     60 S60        18.5363  -32.4765  -40.5405 S.3       10 UNK        -0.2414 
     61 C61        16.8665  -31.9941  -41.0980 C.3       10 UNK         0.0169 
     62 H62        17.8633  -22.9478  -48.9639 H         1 UNK         0.0903 
     63 H63        18.3099  -23.5787  -50.5503 H         1 UNK         0.0903 
     64 H64        16.6088  -23.4674  -50.0907 H         1 UNK         0.0903 
     65 H65        18.2425  -24.4481  -47.3280 H         1 UNK         0.3096 
     66 H66        18.4413  -27.2945  -47.9174 H         1 UNK         0.1121 
     67 H67        16.6458  -26.5442  -45.5488 H         1 UNK         0.0849 
     68 H68        15.9637  -26.5576  -47.1214 H         1 UNK         0.0849 
     69 H69        17.9077  -30.4887  -45.6935 H         1 UNK         0.0865 
     70 H70        18.6666  -28.9579  -45.4862 H         1 UNK         0.0865 
     71 H71        17.2414  -31.5876  -43.7724 H         1 UNK         0.1346 
     72 H72        16.6084  -29.4843  -40.0945 H         1 UNK         0.1412 
     73 H73        17.3559  -27.3014  -43.6957 H         1 UNK         0.1426 
     74 H74        15.9566  -26.9231  -40.4528 H         1 UNK         0.0716 
     75 H75        16.8578  -26.0866  -41.6932 H         1 UNK         0.0716 
     76 H76        19.2692  -25.6554  -41.7170 H         1 UNK         0.0695 
     77 H77        20.4317  -25.8586  -40.4443 H         1 UNK         0.0695 
     78 H78        19.5077  -28.2801  -42.0706 H         1 UNK         0.0983 
     79 H79        21.0030  -26.1179  -43.1261 H         1 UNK         0.3095 
     80 H80        21.7552  -26.0727  -45.1391 H         1 UNK         0.0454 
     81 H81        22.5820  -28.7723  -46.3297 H         1 UNK         0.0851 
     82 H82        22.9798  -27.1933  -47.0075 H         1 UNK         0.0851 
     83 H83        23.6058  -27.6520  -45.4363 H         1 UNK         0.0851 
     84 H84        20.4237  -27.7416  -47.1013 H         1 UNK         0.2976 
     85 H85        19.7642  -28.7184  -39.6044 H         1 UNK         0.3116 
     86 H86        21.5996  -30.7789  -39.3886 H         1 UNK         0.0646 
     87 H87        20.9065  -30.8503  -36.9914 H         1 UNK         0.0847 
     88 H88        19.5321  -30.6611  -38.0653 H         1 UNK         0.0847 
     89 H89        20.1426  -29.2757  -37.1607 H         1 UNK         0.0847 
     90 H90        21.9281  -27.4532  -38.1583 H         1 UNK         0.3040 
     91 H91        24.4954  -27.9188  -36.8701 H         1 UNK         0.1015 
     92 H92        22.8897  -26.2081  -36.0316 H         1 UNK         0.0786 
     93 H93        23.0055  -25.3235  -37.5541 H         1 UNK         0.0786 
     94 H94        24.4044  -25.4547  -36.4975 H         1 UNK         0.0786 
     95 H95        23.5738  -27.3710  -40.1536 H         1 UNK         0.3172 
     96 H96        26.1089  -25.9943  -40.8772 H         1 UNK         0.0595 
     97 H97        23.9923  -25.0015  -41.7250 H         1 UNK         0.0839 
     98 H98        23.5880  -26.5144  -42.5338 H         1 UNK         0.0839 
     99 H99        24.9937  -25.5938  -43.0403 H         1 UNK         0.0839 
    100 H100       24.1207  -28.8700  -41.8127 H         1 UNK         0.2998 
    101 H101       26.5568  -30.3282  -42.6486 H         1 UNK         0.0822 
    102 H102       25.8432  -28.9161  -44.6472 H         1 UNK         0.0787 
    103 H103       25.7627  -30.6415  -44.9492 H         1 UNK         0.0787 
    104 H104       24.2859  -29.7506  -44.6185 H         1 UNK         0.0787 
    105 H105       24.4494  -30.6722  -40.5423 H         1 UNK         0.3055 
    106 H106       23.2707  -32.3087  -39.5625 H         1 UNK         0.1106 
    107 H107       24.9568  -34.1868  -41.2852 H         1 UNK         0.0828 
    108 H108       25.4782  -33.4447  -39.7730 H         1 UNK         0.0828 
    109 H109       24.1483  -34.5887  -39.7782 H         1 UNK         0.0828 
    110 H110       21.8775  -31.1210  -41.6661 H         1 UNK         0.2931 
    111 H111       19.9755  -31.2155  -42.7482 H         1 UNK         0.0412 
    112 H112       22.1599  -32.9186  -45.5298 H         1 UNK         0.3472 
    113 H113       22.7613  -32.5311  -43.9375 H         1 UNK         0.3472 
    114 H114       19.6352  -34.1348  -41.8876 H         1 UNK         0.0970 
    115 H115       18.4619  -33.2731  -42.8058 H         1 UNK         0.0970 
    116 H116       16.4293  -32.7827  -41.7121 H         1 UNK         0.0612 
    117 H117       16.2211  -31.8987  -40.2236 H         1 UNK         0.0612 
@<TRIPOS>BOND
     1    1    2 1    
     2    1   62 1    
     3    1   63 1    
     4    1   64 1    
     5    2    3 2    
     6    2    4 am   BACKBONE|DICT|INTERRES
     7    4    5 1    
     8    4   65 1    
     9    5    6 1    
    10    5   25 1    
    11    5   66 1    
    12    6    7 1    
    13    6   67 1    
    14    6   68 1    
    15    7    8 1    
    16    8    9 1    
    17    8   69 1    
    18    8   70 1    
    19    9   10 ar   
    20    9   14 ar   
    21   10   11 ar   
    22   10   71 1    
    23   11   12 ar   
    24   11   61 1    
    25   12   13 ar   
    26   12   72 1    
    27   13   14 ar   
    28   13   15 1    
    29   14   73 1    
    30   15   16 1    
    31   15   74 1    
    32   15   75 1    
    33   16   17 1    
    34   17   18 1    
    35   17   76 1    
    36   17   77 1    
    37   18   19 1    
    38   18   27 1    
    39   18   78 1    
    40   19   20 am   BACKBONE|DICT|INTERRES
    41   19   79 1    
    42   20   21 2    
    43   20   22 1    
    44   22   23 1    
    45   22   24 1    
    46   22   80 1    
    47   23   81 1    
    48   23   82 1    
    49   23   83 1    
    50   24   25 am   BACKBONE|DICT|INTERRES
    51   24   84 1    
    52   25   26 2    
    53   27   28 2    
    54   27   29 am   BACKBONE|DICT|INTERRES
    55   29   30 1    
    56   29   85 1    
    57   30   31 1    
    58   30   32 1    
    59   30   86 1    
    60   31   87 1    
    61   31   88 1    
    62   31   89 1    
    63   32   33 2    
    64   32   34 am   BACKBONE|DICT|INTERRES
    65   34   35 1    
    66   34   90 1    
    67   35   36 1    
    68   35   37 1    
    69   35   91 1    
    70   36   92 1    
    71   36   93 1    
    72   36   94 1    
    73   37   38 2    
    74   37   39 am   BACKBONE|DICT|INTERRES
    75   39   40 1    
    76   39   95 1    
    77   40   41 1    
    78   40   42 1    
    79   40   96 1    
    80   41   97 1    
    81   41   98 1    
    82   41   99 1    
    83   42   43 2    
    84   42   44 am   BACKBONE|DICT|INTERRES
    85   44   45 1    
    86   44  100 1    
    87   45   46 1    
    88   45   47 1    
    89   45  101 1    
    90   46  102 1    
    91   46  103 1    
    92   46  104 1    
    93   47   48 2    
    94   47   49 am   BACKBONE|DICT|INTERRES
    95   49   50 1    
    96   49  105 1    
    97   50   51 1    
    98   50   52 1    
    99   50  106 1    
   100   51  107 1    
   101   51  108 1    
   102   51  109 1    
   103   52   53 2    
   104   52   54 am   BACKBONE|DICT|INTERRES
   105   54   55 1    
   106   54  110 1    
   107   55   56 1    
   108   55   59 1    
   109   55  111 1    
   110   56   57 am   BACKBONE|DICT|INTERRES
   111   56   58 2    
   112   57  112 1    
   113   57  113 1    
   114   59   60 1    
   115   59  114 1    
   116   59  115 1    
   117   60   61 1    
   118   61  116 1    
   119   61  117 1    
@<TRIPOS>SUBSTRUCTURE
     1 UNK         1 GROUP             0       ****    0 ROOT    
