@<TRIPOS>MOLECULE
3R8
117   119    1
SMALL
USER_CHARGES


@<TRIPOS>ATOM
      1 CA         16.8300  -29.4795  -47.0474 C.3       0 UNK        -0.2013 
      2 C          16.7848  -27.9988  -47.4128 C.2       0 UNK         0.4866 
      3 O          16.6570  -27.6778  -48.5927 O.2       0 UNK        -0.5176 
      4 N          16.8863  -27.0589  -46.4646 N.am      1 UNK        -0.4884 
      5 CA         17.0857  -27.2446  -45.0237 C.3       1 UNK         0.0853 
      6 C6         15.8075  -26.9230  -44.2026 C.3       10 UNK        -0.0849 
      7 S7         14.4367  -28.0798  -44.5196 S.3       10 UNK        -0.2776 
      8 C8         14.2715  -28.9040  -42.9023 C.3       10 UNK         0.0316 
      9 C9         15.4229  -29.8561  -42.5996 C.ar      10 UNK        -0.0863 
     10 C10        15.6297  -30.9779  -43.4077 C.ar      10 UNK        -0.1009 
     11 C11        16.6269  -31.9075  -43.1010 C.ar      10 UNK        -0.0712 
     12 C12        17.4036  -31.7175  -41.9524 C.ar      10 UNK        -0.0894 
     13 C13        17.2330  -30.5849  -41.1519 C.ar      10 UNK        -0.0745 
     14 C14        16.2415  -29.6540  -41.4822 C.ar      10 UNK        -0.0972 
     15 C15        18.0975  -30.3997  -39.9104 C.3       10 UNK         0.0209 
     16 S16        19.8270  -29.9919  -40.3187 S.3       10 UNK        -0.2568 
     17 C17        19.6678  -28.2403  -40.7912 C.3       10 UNK        -0.0983 
     18 CA         20.9437  -27.6929  -41.4889 C.3       3 UNK         0.0876 
     19 N          20.5828  -26.8816  -42.6562 N.am      3 UNK        -0.4424 
     20 C          21.3899  -26.5084  -43.6570 C.2       2 UNK         0.4918 
     21 O          22.6121  -26.6548  -43.6293 O.2       2 UNK        -0.4875 
     22 CA         20.7055  -25.8952  -44.8984 C.3       2 UNK         0.0481 
     23 CB         21.6147  -25.9292  -46.1401 C.3       2 UNK        -0.1831 
     24 N          19.4395  -26.5691  -45.2192 N.am      2 UNK        -0.4498 
     25 C          18.2705  -26.3585  -44.5994 C.2       1 UNK         0.5027 
     26 O          18.1325  -25.5179  -43.7090 O.2       1 UNK        -0.4969 
     27 C          21.8987  -26.9778  -40.5058 C.2       3 UNK         0.5005 
     28 O          22.4551  -27.6242  -39.6187 O.2       3 UNK        -0.5279 
     29 N          22.1005  -25.6645  -40.6959 N.am      4 UNK        -0.4463 
     30 CA         23.1132  -24.8517  -40.0198 C.3       4 UNK         0.0283 
     31 CB         22.8785  -23.3701  -40.3539 C.3       4 UNK        -0.1875 
     32 C          24.5574  -25.2588  -40.3708 C.2       4 UNK         0.4949 
     33 O          25.4616  -24.9858  -39.5802 O.2       4 UNK        -0.5039 
     34 N          24.7630  -25.9302  -41.5155 N.am      5 UNK        -0.4663 
     35 CA         26.0381  -26.5203  -41.9377 C.3       5 UNK         0.0242 
     36 CB         26.0013  -26.7438  -43.4610 C.3       5 UNK        -0.1982 
     37 C          26.3437  -27.8163  -41.1570 C.2       5 UNK         0.5017 
     38 O          26.4513  -28.8904  -41.7507 O.2       5 UNK        -0.5012 
     39 N          26.4445  -27.6863  -39.8278 N.am      6 UNK        -0.4439 
     40 CA         26.5871  -28.7226  -38.7995 C.3       6 UNK         0.0297 
     41 CB         27.8502  -29.5840  -39.0034 C.3       6 UNK        -0.2006 
     42 C          25.3238  -29.5845  -38.6272 C.2       6 UNK         0.4892 
     43 O          24.7738  -29.6136  -37.5256 O.2       6 UNK        -0.5089 
     44 N          24.8951  -30.2582  -39.7006 N.am      7 UNK        -0.4243 
     45 CA         23.7190  -31.1232  -39.7885 C.3       7 UNK         0.0196 
     46 CB         23.8393  -32.3419  -38.8373 C.3       7 UNK        -0.2007 
     47 C          23.5377  -31.5162  -41.2654 C.2       7 UNK         0.5020 
     48 O          23.7011  -30.6662  -42.1423 O.2       7 UNK        -0.5147 
     49 N          23.2128  -32.7940  -41.5203 N.am      8 UNK        -0.4734 
     50 CA         23.1488  -33.4654  -42.8299 C.3       8 UNK         0.0238 
     51 CB         24.5708  -33.6154  -43.4122 C.3       8 UNK        -0.1912 
     52 C          22.1729  -32.8291  -43.8408 C.2       8 UNK         0.5038 
     53 O          22.3584  -32.9917  -45.0484 O.2       8 UNK        -0.5046 
     54 N          21.1625  -32.1138  -43.3293 N.am      9 UNK        -0.4200 
     55 CA         20.1873  -31.3174  -44.0927 C.3       9 UNK         0.0839 
     56 C          20.7977  -30.0720  -44.8024 C.2       9 UNK         0.5513 
     57 N          22.0268  -29.6725  -44.4959 N.am      9 UNK        -0.7519 
     58 O          20.1320  -29.4302  -45.6112 O.2       9 UNK        -0.4960 
     59 C59        19.2875  -32.1678  -45.0395 C.3       10 UNK        -0.0876 
     60 S60        18.5527  -33.6332  -44.2290 S.3       10 UNK        -0.2414 
     61 C61        16.8146  -33.1267  -44.0007 C.3       10 UNK         0.0169 
     62 H62        17.8604  -29.7949  -46.8974 H         1 UNK         0.0903 
     63 H63        16.2553  -29.7016  -46.1503 H         1 UNK         0.0903 
     64 H64        16.4127  -30.0808  -47.8547 H         1 UNK         0.0903 
     65 H65        16.8705  -26.0914  -46.7579 H         1 UNK         0.3096 
     66 H66        17.3926  -28.2665  -44.7930 H         1 UNK         0.1121 
     67 H67        15.4557  -25.9136  -44.4241 H         1 UNK         0.0849 
     68 H68        16.0275  -26.9335  -43.1332 H         1 UNK         0.0849 
     69 H69        13.3407  -29.4730  -42.8972 H         1 UNK         0.0865 
     70 H70        14.1658  -28.1507  -42.1199 H         1 UNK         0.0865 
     71 H71        14.9971  -31.1331  -44.2714 H         1 UNK         0.1346 
     72 H72        18.1597  -32.4432  -41.6864 H         1 UNK         0.1412 
     73 H73        16.0878  -28.7892  -40.8511 H         1 UNK         0.1426 
     74 H74        18.0856  -31.3232  -39.3299 H         1 UNK         0.0716 
     75 H75        17.6865  -29.6271  -39.2586 H         1 UNK         0.0716 
     76 H76        19.3959  -27.6517  -39.9126 H         1 UNK         0.0695 
     77 H77        18.8092  -28.1760  -41.4616 H         1 UNK         0.0695 
     78 H78        21.5155  -28.5357  -41.8850 H         1 UNK         0.0983 
     79 H79        19.6049  -26.6350  -42.7454 H         1 UNK         0.3095 
     80 H80        20.5006  -24.8482  -44.6664 H         1 UNK         0.0454 
     81 H81        21.8778  -26.9505  -46.4181 H         1 UNK         0.0851 
     82 H82        22.5452  -25.3883  -45.9626 H         1 UNK         0.0851 
     83 H83        21.1314  -25.4624  -46.9983 H         1 UNK         0.0851 
     84 H84        19.5043  -27.3475  -45.8655 H         1 UNK         0.2976 
     85 H85        21.5898  -25.2200  -41.4447 H         1 UNK         0.3116 
     86 H86        22.9872  -24.9866  -38.9435 H         1 UNK         0.0646 
     87 H87        21.8857  -23.0439  -40.0433 H         1 UNK         0.0847 
     88 H88        22.9793  -23.1750  -41.4223 H         1 UNK         0.0847 
     89 H89        23.6009  -22.7356  -39.8383 H         1 UNK         0.0847 
     90 H90        23.9646  -26.1392  -42.1061 H         1 UNK         0.3040 
     91 H91        26.8427  -25.8131  -41.7236 H         1 UNK         0.1015 
     92 H92        25.8047  -25.8141  -43.9952 H         1 UNK         0.0786 
     93 H93        25.2297  -27.4614  -43.7439 H         1 UNK         0.0786 
     94 H94        26.9549  -27.1309  -43.8223 H         1 UNK         0.0786 
     95 H95        26.2769  -26.7491  -39.4694 H         1 UNK         0.3172 
     96 H96        26.7227  -28.1774  -37.8639 H         1 UNK         0.0595 
     97 H97        27.8007  -30.1865  -39.9105 H         1 UNK         0.0839 
     98 H98        27.9853  -30.2729  -38.1687 H         1 UNK         0.0839 
     99 H99        28.7459  -28.9657  -39.0610 H         1 UNK         0.0839 
    100 H100       25.3673  -30.0875  -40.5865 H         1 UNK         0.2998 
    101 H101       22.8466  -30.5325  -39.5022 H         1 UNK         0.0822 
    102 H102       23.9553  -32.0378  -37.7979 H         1 UNK         0.0787 
    103 H103       22.9432  -32.9627  -38.8671 H         1 UNK         0.0787 
    104 H104       24.6948  -32.9693  -39.0914 H         1 UNK         0.0787 
    105 H105       23.0749  -33.3989  -40.7218 H         1 UNK         0.3055 
    106 H106       22.7619  -34.4685  -42.6429 H         1 UNK         0.1106 
    107 H107       24.9989  -32.6489  -43.6809 H         1 UNK         0.0828 
    108 H108       24.5668  -34.2312  -44.3125 H         1 UNK         0.0828 
    109 H109       25.2436  -34.0937  -42.7006 H         1 UNK         0.0828 
    110 H110       21.1101  -32.0234  -42.3258 H         1 UNK         0.2931 
    111 H111       19.5363  -30.8817  -43.3374 H         1 UNK         0.0412 
    112 H112       22.5729  -30.1609  -43.7948 H         1 UNK         0.3472 
    113 H113       22.4070  -28.8496  -44.9334 H         1 UNK         0.3472 
    114 H114       18.4831  -31.5543  -45.4457 H         1 UNK         0.0970 
    115 H115       19.8624  -32.5116  -45.9007 H         1 UNK         0.0970 
    116 H116       16.3793  -32.9460  -44.9849 H         1 UNK         0.0612 
    117 H117       16.2644  -33.9628  -43.5677 H         1 UNK         0.0612 
@<TRIPOS>BOND
     1    1    2 1    
     2    1   62 1    
     3    1   63 1    
     4    1   64 1    
     5    2    3 2    
     6    2    4 am   BACKBONE|DICT|INTERRES
     7    4    5 1    
     8    4   65 1    
     9    5    6 1    
    10    5   25 1    
    11    5   66 1    
    12    6    7 1    
    13    6   67 1    
    14    6   68 1    
    15    7    8 1    
    16    8    9 1    
    17    8   69 1    
    18    8   70 1    
    19    9   10 ar   
    20    9   14 ar   
    21   10   11 ar   
    22   10   71 1    
    23   11   12 ar   
    24   11   61 1    
    25   12   13 ar   
    26   12   72 1    
    27   13   14 ar   
    28   13   15 1    
    29   14   73 1    
    30   15   16 1    
    31   15   74 1    
    32   15   75 1    
    33   16   17 1    
    34   17   18 1    
    35   17   76 1    
    36   17   77 1    
    37   18   19 1    
    38   18   27 1    
    39   18   78 1    
    40   19   20 am   BACKBONE|DICT|INTERRES
    41   19   79 1    
    42   20   21 2    
    43   20   22 1    
    44   22   23 1    
    45   22   24 1    
    46   22   80 1    
    47   23   81 1    
    48   23   82 1    
    49   23   83 1    
    50   24   25 am   BACKBONE|DICT|INTERRES
    51   24   84 1    
    52   25   26 2    
    53   27   28 2    
    54   27   29 am   BACKBONE|DICT|INTERRES
    55   29   30 1    
    56   29   85 1    
    57   30   31 1    
    58   30   32 1    
    59   30   86 1    
    60   31   87 1    
    61   31   88 1    
    62   31   89 1    
    63   32   33 2    
    64   32   34 am   BACKBONE|DICT|INTERRES
    65   34   35 1    
    66   34   90 1    
    67   35   36 1    
    68   35   37 1    
    69   35   91 1    
    70   36   92 1    
    71   36   93 1    
    72   36   94 1    
    73   37   38 2    
    74   37   39 am   BACKBONE|DICT|INTERRES
    75   39   40 1    
    76   39   95 1    
    77   40   41 1    
    78   40   42 1    
    79   40   96 1    
    80   41   97 1    
    81   41   98 1    
    82   41   99 1    
    83   42   43 2    
    84   42   44 am   BACKBONE|DICT|INTERRES
    85   44   45 1    
    86   44  100 1    
    87   45   46 1    
    88   45   47 1    
    89   45  101 1    
    90   46  102 1    
    91   46  103 1    
    92   46  104 1    
    93   47   48 2    
    94   47   49 am   BACKBONE|DICT|INTERRES
    95   49   50 1    
    96   49  105 1    
    97   50   51 1    
    98   50   52 1    
    99   50  106 1    
   100   51  107 1    
   101   51  108 1    
   102   51  109 1    
   103   52   53 2    
   104   52   54 am   BACKBONE|DICT|INTERRES
   105   54   55 1    
   106   54  110 1    
   107   55   56 1    
   108   55   59 1    
   109   55  111 1    
   110   56   57 am   BACKBONE|DICT|INTERRES
   111   56   58 2    
   112   57  112 1    
   113   57  113 1    
   114   59   60 1    
   115   59  114 1    
   116   59  115 1    
   117   60   61 1    
   118   61  116 1    
   119   61  117 1    
@<TRIPOS>SUBSTRUCTURE
     1 UNK         1 GROUP             0       ****    0 ROOT    
