@<TRIPOS>MOLECULE
3R8
117   119    1
SMALL
USER_CHARGES


@<TRIPOS>ATOM
      1 CA         14.9751  -23.6066  -41.4893 C.3       0 UNK        -0.2013 
      2 C          15.6682  -23.9394  -42.8022 C.2       0 UNK         0.4866 
      3 O          15.7222  -23.0954  -43.6978 O.2       0 UNK        -0.5176 
      4 N          16.1900  -25.1657  -42.9272 N.am      1 UNK        -0.4884 
      5 CA         16.9385  -25.6454  -44.0940 C.3       1 UNK         0.0853 
      6 C6         17.1480  -27.1794  -44.0492 C.3       10 UNK        -0.0849 
      7 S7         15.5819  -28.1178  -44.0002 S.3       10 UNK        -0.2776 
      8 C8         15.7454  -29.2292  -45.4380 C.3       10 UNK         0.0316 
      9 C9         16.9614  -30.1410  -45.3266 C.ar      10 UNK        -0.0863 
     10 C10        17.0206  -31.1234  -44.3332 C.ar      10 UNK        -0.1009 
     11 C11        18.1458  -31.9450  -44.2127 C.ar      10 UNK        -0.0712 
     12 C12        19.2185  -31.7772  -45.0931 C.ar      10 UNK        -0.0894 
     13 C13        19.1697  -30.8016  -46.0940 C.ar      10 UNK        -0.0745 
     14 C14        18.0322  -29.9971  -46.2141 C.ar      10 UNK        -0.0972 
     15 C15        20.3530  -30.6090  -47.0352 C.3       10 UNK         0.0209 
     16 S16        21.0337  -28.9176  -46.9736 S.3       10 UNK        -0.2568 
     17 C17        21.4326  -28.7541  -45.2009 C.3       10 UNK        -0.0983 
     18 CA         21.9437  -27.3423  -44.8239 C.3       3 UNK         0.0876 
     19 N          21.0086  -26.2956  -45.2420 N.am      3 UNK        -0.4424 
     20 C          21.2608  -24.9808  -45.2777 C.2       2 UNK         0.4918 
     21 O          22.3444  -24.4819  -44.9740 O.2       2 UNK        -0.4875 
     22 CA         20.0875  -24.0688  -45.6894 C.3       2 UNK         0.0481 
     23 CB         20.1858  -23.7149  -47.1816 C.3       2 UNK        -0.1831 
     24 N          18.7632  -24.6454  -45.4108 N.am      2 UNK        -0.4498 
     25 C          18.3100  -24.9472  -44.1846 C.2       1 UNK         0.5027 
     26 O          18.9665  -24.7662  -43.1566 O.2       1 UNK        -0.4969 
     27 C          22.2714  -27.3023  -43.3162 C.2       3 UNK         0.5005 
     28 O          23.2599  -27.9180  -42.9177 O.2       3 UNK        -0.5279 
     29 N          21.4681  -26.5995  -42.4976 N.am      4 UNK        -0.4463 
     30 CA         21.5745  -26.5411  -41.0312 C.3       4 UNK         0.0283 
     31 CB         20.4024  -25.7241  -40.4656 C.3       4 UNK        -0.1875 
     32 C          22.9121  -26.0087  -40.4805 C.2       4 UNK         0.4949 
     33 O          23.2100  -26.2450  -39.3100 O.2       4 UNK        -0.5039 
     34 N          23.7075  -25.3349  -41.3238 N.am      5 UNK        -0.4663 
     35 CA         25.0944  -24.9573  -41.0361 C.3       5 UNK         0.0242 
     36 CB         25.6002  -24.0173  -42.1421 C.3       5 UNK        -0.1982 
     37 C          26.0336  -26.1718  -40.8867 C.2       5 UNK         0.5017 
     38 O          27.0014  -26.0890  -40.1296 O.2       5 UNK        -0.5012 
     39 N          25.7265  -27.2681  -41.5943 N.am      6 UNK        -0.4439 
     40 CA         26.3981  -28.5641  -41.4808 C.3       6 UNK         0.0297 
     41 CB         26.6670  -29.1230  -42.8878 C.3       6 UNK        -0.2006 
     42 C          25.5492  -29.5537  -40.6656 C.2       6 UNK         0.4892 
     43 O          26.1115  -30.3182  -39.8808 O.2       6 UNK        -0.5089 
     44 N          24.2215  -29.5076  -40.8591 N.am      7 UNK        -0.4243 
     45 CA         23.1921  -30.3530  -40.2505 C.3       7 UNK         0.0196 
     46 CB         23.0769  -30.0765  -38.7335 C.3       7 UNK        -0.2007 
     47 C          23.3881  -31.8334  -40.6289 C.2       7 UNK         0.5020 
     48 O          23.4162  -32.1404  -41.8215 O.2       7 UNK        -0.5147 
     49 N          23.5039  -32.7145  -39.6237 N.am      8 UNK        -0.4734 
     50 CA         23.6829  -34.1704  -39.7342 C.3       8 UNK         0.0238 
     51 CB         25.0311  -34.5133  -40.4058 C.3       8 UNK        -0.1912 
     52 C          22.4845  -34.8911  -40.3871 C.2       8 UNK         0.5038 
     53 O          22.6713  -35.9020  -41.0673 O.2       8 UNK        -0.5046 
     54 N          21.2736  -34.3683  -40.1500 N.am      9 UNK        -0.4200 
     55 CA         19.9993  -34.9443  -40.6115 C.3       9 UNK         0.0839 
     56 C          19.5757  -36.2520  -39.8788 C.2       9 UNK         0.5513 
     57 N          20.1816  -36.6169  -38.7548 N.am      9 UNK        -0.7519 
     58 O          18.6794  -36.9507  -40.3446 O.2       9 UNK        -0.4960 
     59 C59        18.8514  -33.9013  -40.5721 C.3       10 UNK        -0.0876 
     60 S60        19.1387  -32.4809  -41.6820 S.3       10 UNK        -0.2414 
     61 C61        18.1963  -33.0228  -43.1413 C.3       10 UNK         0.0169 
     62 H62        13.9357  -23.3348  -41.6718 H         1 UNK         0.0903 
     63 H63        14.9888  -24.4476  -40.7961 H         1 UNK         0.0903 
     64 H64        15.4691  -22.7628  -41.0082 H         1 UNK         0.0903 
     65 H65        16.1191  -25.8189  -42.1602 H         1 UNK         0.3096 
     66 H66        16.3618  -25.3961  -44.9877 H         1 UNK         0.1121 
     67 H67        17.7288  -27.4995  -44.9152 H         1 UNK         0.0849 
     68 H68        17.7358  -27.4656  -43.1741 H         1 UNK         0.0849 
     69 H69        14.8458  -29.8412  -45.5169 H         1 UNK         0.0865 
     70 H70        15.7869  -28.6304  -46.3494 H         1 UNK         0.0865 
     71 H71        16.1924  -31.2397  -43.6472 H         1 UNK         0.1346 
     72 H72        20.0932  -32.4053  -44.9916 H         1 UNK         0.1412 
     73 H73        17.9960  -29.2414  -46.9872 H         1 UNK         0.1426 
     74 H74        20.0344  -30.8252  -48.0557 H         1 UNK         0.0716 
     75 H75        21.1521  -31.3155  -46.8053 H         1 UNK         0.0716 
     76 H76        20.5425  -28.9955  -44.6166 H         1 UNK         0.0695 
     77 H77        22.1782  -29.5128  -44.9533 H         1 UNK         0.0695 
     78 H78        22.8842  -27.1700  -45.3520 H         1 UNK         0.0983 
     79 H79        20.1037  -26.6155  -45.5512 H         1 UNK         0.3095 
     80 H80        20.1747  -23.1452  -45.1135 H         1 UNK         0.0454 
     81 H81        21.1498  -23.2586  -47.4114 H         1 UNK         0.0851 
     82 H82        20.0847  -24.5971  -47.8151 H         1 UNK         0.0851 
     83 H83        19.4157  -23.0004  -47.4729 H         1 UNK         0.0851 
     84 H84        18.1721  -24.8228  -46.2109 H         1 UNK         0.2976 
     85 H85        20.6947  -26.0852  -42.9037 H         1 UNK         0.3116 
     86 H86        21.4745  -27.5651  -40.6660 H         1 UNK         0.0646 
     87 H87        20.4284  -25.7020  -39.3752 H         1 UNK         0.0847 
     88 H88        19.4421  -26.1513  -40.7550 H         1 UNK         0.0847 
     89 H89        20.4287  -24.6904  -40.8128 H         1 UNK         0.0847 
     90 H90        23.3710  -25.1655  -42.2616 H         1 UNK         0.3040 
     91 H91        25.1075  -24.4149  -40.0880 H         1 UNK         0.1015 
     92 H92        24.9913  -23.1152  -42.2056 H         1 UNK         0.0786 
     93 H93        25.5881  -24.5002  -43.1202 H         1 UNK         0.0786 
     94 H94        26.6260  -23.7013  -41.9466 H         1 UNK         0.0786 
     95 H95        24.8830  -27.2530  -42.1611 H         1 UNK         0.3172 
     96 H96        27.3588  -28.4493  -40.9743 H         1 UNK         0.0595 
     97 H97        27.1698  -30.0896  -42.8333 H         1 UNK         0.0839 
     98 H98        27.3092  -28.4554  -43.4623 H         1 UNK         0.0839 
     99 H99        25.7440  -29.2669  -43.4515 H         1 UNK         0.0839 
    100 H100       23.8791  -28.8948  -41.5977 H         1 UNK         0.2998 
    101 H101       22.2483  -30.0535  -40.7091 H         1 UNK         0.0822 
    102 H102       22.8987  -29.0172  -38.5465 H         1 UNK         0.0787 
    103 H103       22.2394  -30.6194  -38.2935 H         1 UNK         0.0787 
    104 H104       23.9811  -30.3544  -38.1909 H         1 UNK         0.0787 
    105 H105       23.4783  -32.3474  -38.6819 H         1 UNK         0.3055 
    106 H106       23.7286  -34.5486  -38.7116 H         1 UNK         0.1106 
    107 H107       25.0392  -34.2433  -41.4622 H         1 UNK         0.0828 
    108 H108       25.8590  -33.9954  -39.9215 H         1 UNK         0.0828 
    109 H109       25.2388  -35.5823  -40.3440 H         1 UNK         0.0828 
    110 H110       21.2102  -33.5293  -39.5940 H         1 UNK         0.2931 
    111 H111       20.1396  -35.2292  -41.6563 H         1 UNK         0.0412 
    112 H112       20.9148  -36.0512  -38.3589 H         1 UNK         0.3472 
    113 H113       19.8973  -37.4680  -38.2951 H         1 UNK         0.3472 
    114 H114       17.8975  -34.3626  -40.8359 H         1 UNK         0.0970 
    115 H115       18.7211  -33.5221  -39.5570 H         1 UNK         0.0970 
    116 H116       17.1833  -33.2941  -42.8400 H         1 UNK         0.0612 
    117 H117       18.6510  -33.9278  -43.5472 H         1 UNK         0.0612 
@<TRIPOS>BOND
     1    1    2 1    
     2    1   62 1    
     3    1   63 1    
     4    1   64 1    
     5    2    3 2    
     6    2    4 am   BACKBONE|DICT|INTERRES
     7    4    5 1    
     8    4   65 1    
     9    5    6 1    
    10    5   25 1    
    11    5   66 1    
    12    6    7 1    
    13    6   67 1    
    14    6   68 1    
    15    7    8 1    
    16    8    9 1    
    17    8   69 1    
    18    8   70 1    
    19    9   10 ar   
    20    9   14 ar   
    21   10   11 ar   
    22   10   71 1    
    23   11   12 ar   
    24   11   61 1    
    25   12   13 ar   
    26   12   72 1    
    27   13   14 ar   
    28   13   15 1    
    29   14   73 1    
    30   15   16 1    
    31   15   74 1    
    32   15   75 1    
    33   16   17 1    
    34   17   18 1    
    35   17   76 1    
    36   17   77 1    
    37   18   19 1    
    38   18   27 1    
    39   18   78 1    
    40   19   20 am   BACKBONE|DICT|INTERRES
    41   19   79 1    
    42   20   21 2    
    43   20   22 1    
    44   22   23 1    
    45   22   24 1    
    46   22   80 1    
    47   23   81 1    
    48   23   82 1    
    49   23   83 1    
    50   24   25 am   BACKBONE|DICT|INTERRES
    51   24   84 1    
    52   25   26 2    
    53   27   28 2    
    54   27   29 am   BACKBONE|DICT|INTERRES
    55   29   30 1    
    56   29   85 1    
    57   30   31 1    
    58   30   32 1    
    59   30   86 1    
    60   31   87 1    
    61   31   88 1    
    62   31   89 1    
    63   32   33 2    
    64   32   34 am   BACKBONE|DICT|INTERRES
    65   34   35 1    
    66   34   90 1    
    67   35   36 1    
    68   35   37 1    
    69   35   91 1    
    70   36   92 1    
    71   36   93 1    
    72   36   94 1    
    73   37   38 2    
    74   37   39 am   BACKBONE|DICT|INTERRES
    75   39   40 1    
    76   39   95 1    
    77   40   41 1    
    78   40   42 1    
    79   40   96 1    
    80   41   97 1    
    81   41   98 1    
    82   41   99 1    
    83   42   43 2    
    84   42   44 am   BACKBONE|DICT|INTERRES
    85   44   45 1    
    86   44  100 1    
    87   45   46 1    
    88   45   47 1    
    89   45  101 1    
    90   46  102 1    
    91   46  103 1    
    92   46  104 1    
    93   47   48 2    
    94   47   49 am   BACKBONE|DICT|INTERRES
    95   49   50 1    
    96   49  105 1    
    97   50   51 1    
    98   50   52 1    
    99   50  106 1    
   100   51  107 1    
   101   51  108 1    
   102   51  109 1    
   103   52   53 2    
   104   52   54 am   BACKBONE|DICT|INTERRES
   105   54   55 1    
   106   54  110 1    
   107   55   56 1    
   108   55   59 1    
   109   55  111 1    
   110   56   57 am   BACKBONE|DICT|INTERRES
   111   56   58 2    
   112   57  112 1    
   113   57  113 1    
   114   59   60 1    
   115   59  114 1    
   116   59  115 1    
   117   60   61 1    
   118   61  116 1    
   119   61  117 1    
@<TRIPOS>SUBSTRUCTURE
     1 UNK         1 GROUP             0       ****    0 ROOT    
