@<TRIPOS>MOLECULE
3R8
117   119    1
SMALL
USER_CHARGES


@<TRIPOS>ATOM
      1 CA         13.9204  -24.6481  -41.8575 C.3       0 UNK        -0.2013 
      2 C          14.7819  -25.1769  -42.9946 C.2       0 UNK         0.4866 
      3 O          14.4320  -24.9988  -44.1621 O.2       0 UNK        -0.5176 
      4 N          15.9001  -25.8345  -42.6642 N.am      1 UNK        -0.4884 
      5 CA         16.8711  -26.3685  -43.6248 C.3       1 UNK         0.0853 
      6 C6         17.8564  -27.3584  -42.9528 C.3       10 UNK        -0.0849 
      7 S7         17.0375  -28.8825  -42.3732 S.3       10 UNK        -0.2776 
      8 C8         16.9729  -29.8934  -43.8915 C.3       10 UNK         0.0316 
      9 C9         18.3550  -30.3239  -44.3640 C.ar      10 UNK        -0.0863 
     10 C10        18.9954  -31.4102  -43.7625 C.ar      10 UNK        -0.1009 
     11 C11        20.2627  -31.8203  -44.1913 C.ar      10 UNK        -0.0712 
     12 C12        20.8941  -31.1150  -45.2209 C.ar      10 UNK        -0.0894 
     13 C13        20.2774  -30.0066  -45.8100 C.ar      10 UNK        -0.0745 
     14 C14        18.9956  -29.6347  -45.3968 C.ar      10 UNK        -0.0972 
     15 C15        21.0036  -29.1835  -46.8668 C.3       10 UNK         0.0209 
     16 S16        22.6199  -28.5454  -46.3008 S.3       10 UNK        -0.2568 
     17 C17        22.2463  -27.7355  -44.7069 C.3       10 UNK        -0.0983 
     18 CA         22.0371  -26.2084  -44.8448 C.3       3 UNK         0.0876 
     19 N          20.7370  -25.9084  -45.4424 N.am      3 UNK        -0.4424 
     20 C          20.3693  -24.7252  -45.9501 C.2       2 UNK         0.4918 
     21 O          21.1320  -23.7684  -46.0879 O.2       2 UNK        -0.4875 
     22 CA         18.8945  -24.5883  -46.3748 C.3       2 UNK         0.0481 
     23 CB         18.7385  -24.9047  -47.8709 C.3       2 UNK        -0.1831 
     24 N          18.0010  -25.4560  -45.5983 N.am      2 UNK        -0.4498 
     25 C          17.6555  -25.2370  -44.3203 C.2       1 UNK         0.5027 
     26 O          17.9679  -24.2254  -43.6871 O.2       1 UNK        -0.4969 
     27 C          22.1607  -25.5305  -43.4647 C.2       3 UNK         0.5005 
     28 O          21.1661  -25.4249  -42.7427 O.2       3 UNK        -0.5279 
     29 N          23.3893  -25.1242  -43.1184 N.am      4 UNK        -0.4463 
     30 CA         23.7611  -24.5902  -41.8077 C.3       4 UNK         0.0283 
     31 CB         24.8271  -23.4903  -41.9947 C.3       4 UNK        -0.1875 
     32 C          24.2068  -25.7507  -40.8989 C.2       4 UNK         0.4949 
     33 O          23.3786  -26.5851  -40.5370 O.2       4 UNK        -0.5039 
     34 N          25.5049  -25.8234  -40.5693 N.am      5 UNK        -0.4663 
     35 CA         26.1047  -26.8632  -39.7192 C.3       5 UNK         0.0242 
     36 CB         27.5781  -26.5102  -39.4584 C.3       5 UNK        -0.1982 
     37 C          25.9857  -28.2949  -40.2791 C.2       5 UNK         0.5017 
     38 O          26.0427  -29.2516  -39.5066 O.2       5 UNK        -0.5012 
     39 N          25.8022  -28.4140  -41.6014 N.am      6 UNK        -0.4439 
     40 CA         25.5642  -29.6697  -42.3146 C.3       6 UNK         0.0297 
     41 CB         25.8716  -29.4687  -43.8087 C.3       6 UNK        -0.2006 
     42 C          24.1526  -30.2581  -42.1120 C.2       6 UNK         0.4892 
     43 O          23.9318  -31.3979  -42.5242 O.2       6 UNK        -0.5089 
     44 N          23.2252  -29.5208  -41.4769 N.am      7 UNK        -0.4243 
     45 CA         21.8590  -29.9636  -41.1647 C.3       7 UNK         0.0196 
     46 CB         20.9655  -28.7359  -40.9132 C.3       7 UNK        -0.2007 
     47 C          21.8030  -30.9857  -40.0037 C.2       7 UNK         0.5020 
     48 O          21.0615  -30.7926  -39.0400 O.2       7 UNK        -0.5147 
     49 N          22.5927  -32.0608  -40.1130 N.am      8 UNK        -0.4734 
     50 CA         22.7335  -33.1385  -39.1255 C.3       8 UNK         0.0238 
     51 CB         24.2053  -33.5881  -39.1128 C.3       8 UNK        -0.1912 
     52 C          21.7964  -34.3360  -39.3865 C.2       8 UNK         0.5038 
     53 O          21.8807  -35.3328  -38.6675 O.2       8 UNK        -0.5046 
     54 N          20.9481  -34.2292  -40.4161 N.am      9 UNK        -0.4200 
     55 CA         19.9458  -35.2108  -40.8548 C.3       9 UNK         0.0839 
     56 C          18.9349  -35.5757  -39.7323 C.2       9 UNK         0.5513 
     57 N          18.5689  -36.8446  -39.6150 N.am      9 UNK        -0.7519 
     58 O          18.4459  -34.7129  -39.0059 O.2       9 UNK        -0.4960 
     59 C59        19.1855  -34.6967  -42.1084 C.3       10 UNK        -0.0876 
     60 S60        20.2164  -34.5852  -43.6171 S.3       10 UNK        -0.2414 
     61 C61        21.0081  -32.9480  -43.4867 C.3       10 UNK         0.0169 
     62 H62        12.9211  -25.0792  -41.9119 H         1 UNK         0.0903 
     63 H63        14.3406  -24.8890  -40.8811 H         1 UNK         0.0903 
     64 H64        13.8288  -23.5647  -41.9292 H         1 UNK         0.0903 
     65 H65        16.1448  -25.9454  -41.6906 H         1 UNK         0.3096 
     66 H66        16.3091  -26.9028  -44.3938 H         1 UNK         0.1121 
     67 H67        18.3391  -26.8855  -42.0949 H         1 UNK         0.0849 
     68 H68        18.6742  -27.6294  -43.6198 H         1 UNK         0.0849 
     69 H69        16.3679  -30.7798  -43.6943 H         1 UNK         0.0865 
     70 H70        16.4496  -29.3462  -44.6766 H         1 UNK         0.0865 
     71 H71        18.5023  -31.9158  -42.9485 H         1 UNK         0.1346 
     72 H72        21.8897  -31.3967  -45.5359 H         1 UNK         0.1412 
     73 H73        18.5042  -28.7921  -45.8619 H         1 UNK         0.1426 
     74 H74        20.3933  -28.3397  -47.1917 H         1 UNK         0.0716 
     75 H75        21.1612  -29.8035  -47.7502 H         1 UNK         0.0716 
     76 H76        21.3908  -28.2055  -44.2206 H         1 UNK         0.0695 
     77 H77        23.0931  -27.9463  -44.0534 H         1 UNK         0.0695 
     78 H78        22.8130  -25.7991  -45.4962 H         1 UNK         0.0983 
     79 H79        20.0346  -26.6215  -45.3434 H         1 UNK         0.3095 
     80 H80        18.5956  -23.5503  -46.2140 H         1 UNK         0.0454 
     81 H81        19.3723  -24.2530  -48.4740 H         1 UNK         0.0851 
     82 H82        19.0187  -25.9333  -48.1013 H         1 UNK         0.0851 
     83 H83        17.7120  -24.7521  -48.2045 H         1 UNK         0.0851 
     84 H84        17.6606  -26.2836  -46.0661 H         1 UNK         0.2976 
     85 H85        24.1464  -25.2647  -43.7725 H         1 UNK         0.3116 
     86 H86        22.8912  -24.1303  -41.3338 H         1 UNK         0.0646 
     87 H87        25.1364  -23.0722  -41.0355 H         1 UNK         0.0847 
     88 H88        24.4296  -22.6632  -42.5834 H         1 UNK         0.0847 
     89 H89        25.7186  -23.8546  -42.5067 H         1 UNK         0.0847 
     90 H90        26.1265  -25.1016  -40.9056 H         1 UNK         0.3040 
     91 H91        25.5750  -26.8527  -38.7639 H         1 UNK         0.1015 
     92 H92        27.6744  -25.5412  -38.9681 H         1 UNK         0.0786 
     93 H93        28.1562  -26.4796  -40.3829 H         1 UNK         0.0786 
     94 H94        28.0472  -27.2480  -38.8055 H         1 UNK         0.0786 
     95 H95        25.7812  -27.5658  -42.1476 H         1 UNK         0.3172 
     96 H96        26.2666  -30.4124  -41.9304 H         1 UNK         0.0595 
     97 H97        26.9159  -29.1970  -43.9633 H         1 UNK         0.0839 
     98 H98        25.2556  -28.6893  -44.2551 H         1 UNK         0.0839 
     99 H99        25.6933  -30.3850  -44.3736 H         1 UNK         0.0839 
    100 H100       23.4780  -28.5982  -41.1390 H         1 UNK         0.2998 
    101 H101       21.4627  -30.4555  -42.0518 H         1 UNK         0.0822 
    102 H102       21.2670  -28.1942  -40.0161 H         1 UNK         0.0787 
    103 H103       20.9985  -28.0395  -41.7505 H         1 UNK         0.0787 
    104 H104       19.9233  -29.0310  -40.7834 H         1 UNK         0.0787 
    105 H105       23.1740  -32.1212  -40.9465 H         1 UNK         0.3055 
    106 H106       22.4865  -32.7544  -38.1331 H         1 UNK         0.1106 
    107 H107       24.5062  -34.0103  -40.0725 H         1 UNK         0.0828 
    108 H108       24.8719  -32.7546  -38.8898 H         1 UNK         0.0828 
    109 H109       24.3789  -34.3501  -38.3517 H         1 UNK         0.0828 
    110 H110       20.9554  -33.3575  -40.9188 H         1 UNK         0.2931 
    111 H111       20.4901  -36.1168  -41.1285 H         1 UNK         0.0412 
    112 H112       17.9005  -37.0992  -38.9041 H         1 UNK         0.3472 
    113 H113       18.9567  -37.5568  -40.2151 H         1 UNK         0.3472 
    114 H114       18.7098  -33.7419  -41.8930 H         1 UNK         0.0970 
    115 H115       18.3677  -35.3780  -42.3525 H         1 UNK         0.0970 
    116 H116       21.1368  -32.6757  -42.4456 H         1 UNK         0.0612 
    117 H117       22.0174  -33.0400  -43.8911 H         1 UNK         0.0612 
@<TRIPOS>BOND
     1    1    2 1    
     2    1   62 1    
     3    1   63 1    
     4    1   64 1    
     5    2    3 2    
     6    2    4 am   BACKBONE|DICT|INTERRES
     7    4    5 1    
     8    4   65 1    
     9    5    6 1    
    10    5   25 1    
    11    5   66 1    
    12    6    7 1    
    13    6   67 1    
    14    6   68 1    
    15    7    8 1    
    16    8    9 1    
    17    8   69 1    
    18    8   70 1    
    19    9   10 ar   
    20    9   14 ar   
    21   10   11 ar   
    22   10   71 1    
    23   11   12 ar   
    24   11   61 1    
    25   12   13 ar   
    26   12   72 1    
    27   13   14 ar   
    28   13   15 1    
    29   14   73 1    
    30   15   16 1    
    31   15   74 1    
    32   15   75 1    
    33   16   17 1    
    34   17   18 1    
    35   17   76 1    
    36   17   77 1    
    37   18   19 1    
    38   18   27 1    
    39   18   78 1    
    40   19   20 am   BACKBONE|DICT|INTERRES
    41   19   79 1    
    42   20   21 2    
    43   20   22 1    
    44   22   23 1    
    45   22   24 1    
    46   22   80 1    
    47   23   81 1    
    48   23   82 1    
    49   23   83 1    
    50   24   25 am   BACKBONE|DICT|INTERRES
    51   24   84 1    
    52   25   26 2    
    53   27   28 2    
    54   27   29 am   BACKBONE|DICT|INTERRES
    55   29   30 1    
    56   29   85 1    
    57   30   31 1    
    58   30   32 1    
    59   30   86 1    
    60   31   87 1    
    61   31   88 1    
    62   31   89 1    
    63   32   33 2    
    64   32   34 am   BACKBONE|DICT|INTERRES
    65   34   35 1    
    66   34   90 1    
    67   35   36 1    
    68   35   37 1    
    69   35   91 1    
    70   36   92 1    
    71   36   93 1    
    72   36   94 1    
    73   37   38 2    
    74   37   39 am   BACKBONE|DICT|INTERRES
    75   39   40 1    
    76   39   95 1    
    77   40   41 1    
    78   40   42 1    
    79   40   96 1    
    80   41   97 1    
    81   41   98 1    
    82   41   99 1    
    83   42   43 2    
    84   42   44 am   BACKBONE|DICT|INTERRES
    85   44   45 1    
    86   44  100 1    
    87   45   46 1    
    88   45   47 1    
    89   45  101 1    
    90   46  102 1    
    91   46  103 1    
    92   46  104 1    
    93   47   48 2    
    94   47   49 am   BACKBONE|DICT|INTERRES
    95   49   50 1    
    96   49  105 1    
    97   50   51 1    
    98   50   52 1    
    99   50  106 1    
   100   51  107 1    
   101   51  108 1    
   102   51  109 1    
   103   52   53 2    
   104   52   54 am   BACKBONE|DICT|INTERRES
   105   54   55 1    
   106   54  110 1    
   107   55   56 1    
   108   55   59 1    
   109   55  111 1    
   110   56   57 am   BACKBONE|DICT|INTERRES
   111   56   58 2    
   112   57  112 1    
   113   57  113 1    
   114   59   60 1    
   115   59  114 1    
   116   59  115 1    
   117   60   61 1    
   118   61  116 1    
   119   61  117 1    
@<TRIPOS>SUBSTRUCTURE
     1 UNK         1 GROUP             0       ****    0 ROOT    
