@<TRIPOS>MOLECULE
3R8
117   119    1
SMALL
USER_CHARGES


@<TRIPOS>ATOM
      1 CA         19.1387  -24.4902  -49.9383 C.3       0 UNK        -0.2013 
      2 C          19.9382  -24.8571  -48.6968 C.2       0 UNK         0.4866 
      3 O          20.9970  -24.2759  -48.4563 O.2       0 UNK        -0.5176 
      4 N          19.4459  -25.8233  -47.9122 N.am      1 UNK        -0.4884 
      5 CA         20.0555  -26.2711  -46.6563 C.3       1 UNK         0.0853 
      6 C6         19.4028  -27.5732  -46.1332 C.3       10 UNK        -0.0849 
      7 S7         19.6813  -29.0196  -47.2051 S.3       10 UNK        -0.2776 
      8 C8         18.2797  -30.0925  -46.7281 C.3       10 UNK         0.0316 
      9 C9         18.0966  -30.1904  -45.2160 C.ar      10 UNK        -0.0863 
     10 C10        19.1167  -30.7085  -44.4137 C.ar      10 UNK        -0.1009 
     11 C11        18.9798  -30.7485  -43.0233 C.ar      10 UNK        -0.0712 
     12 C12        17.7851  -30.3141  -42.4406 C.ar      10 UNK        -0.0894 
     13 C13        16.7644  -29.7687  -43.2271 C.ar      10 UNK        -0.0745 
     14 C14        16.9244  -29.7192  -44.6155 C.ar      10 UNK        -0.0972 
     15 C15        15.4923  -29.2175  -42.5888 C.3       10 UNK         0.0209 
     16 S16        15.8019  -28.1736  -41.1211 S.3       10 UNK        -0.2568 
     17 C17        16.7457  -26.7631  -41.8060 C.3       10 UNK        -0.0983 
     18 CA         18.2846  -26.8928  -41.6547 C.3       3 UNK         0.0876 
     19 N          18.9895  -25.7875  -42.3093 N.am      3 UNK        -0.4424 
     20 C          20.3207  -25.6792  -42.4205 C.2       2 UNK         0.4918 
     21 O          21.1237  -26.4761  -41.9287 O.2       2 UNK        -0.4875 
     22 CA         20.8298  -24.5604  -43.3416 C.3       2 UNK         0.0481 
     23 CB         22.1970  -24.0079  -42.9015 C.3       2 UNK        -0.1831 
     24 N          20.9424  -25.1463  -44.6753 N.am      2 UNK        -0.4498 
     25 C          19.9336  -25.2010  -45.5545 C.2       1 UNK         0.5027 
     26 O          18.8982  -24.5366  -45.4552 O.2       1 UNK        -0.4969 
     27 C          18.7413  -27.0754  -40.1907 C.2       3 UNK         0.5005 
     28 O          18.6594  -26.1315  -39.4018 O.2       3 UNK        -0.5279 
     29 N          19.2446  -28.2828  -39.8917 N.am      4 UNK        -0.4463 
     30 CA         19.8056  -28.7448  -38.6165 C.3       4 UNK         0.0283 
     31 CB         18.7559  -28.6720  -37.4878 C.3       4 UNK        -0.1875 
     32 C          21.1404  -28.0820  -38.2146 C.2       4 UNK         0.4949 
     33 O          21.6065  -28.3267  -37.1012 O.2       4 UNK        -0.5039 
     34 N          21.7461  -27.2833  -39.1045 N.am      5 UNK        -0.4663 
     35 CA         22.9941  -26.5538  -38.8569 C.3       5 UNK         0.0242 
     36 CB         22.7037  -25.0467  -38.9555 C.3       5 UNK        -0.1982 
     37 C          24.1243  -26.9495  -39.8223 C.2       5 UNK         0.5017 
     38 O          25.2657  -26.5475  -39.5913 O.2       5 UNK        -0.5012 
     39 N          23.8128  -27.7105  -40.8777 N.am      6 UNK        -0.4439 
     40 CA         24.7416  -28.1472  -41.9173 C.3       6 UNK         0.0297 
     41 CB         24.9657  -27.0003  -42.9262 C.3       6 UNK        -0.2006 
     42 C          24.1841  -29.4033  -42.6026 C.2       6 UNK         0.4892 
     43 O          23.1358  -29.9107  -42.1961 O.2       6 UNK        -0.5089 
     44 N          24.8905  -29.8602  -43.6465 N.am      7 UNK        -0.4243 
     45 CA         24.5454  -30.9826  -44.5254 C.3       7 UNK         0.0196 
     46 CB         23.2689  -30.6576  -45.3392 C.3       7 UNK        -0.2007 
     47 C          24.4911  -32.3258  -43.7700 C.2       7 UNK         0.5020 
     48 O          25.3061  -32.5539  -42.8730 O.2       7 UNK        -0.5147 
     49 N          23.5468  -33.1987  -44.1479 N.am      8 UNK        -0.4734 
     50 CA         23.3617  -34.5536  -43.6105 C.3       8 UNK         0.0238 
     51 CB         22.2738  -35.2670  -44.4306 C.3       8 UNK        -0.1912 
     52 C          23.0254  -34.6178  -42.1085 C.2       8 UNK         0.5038 
     53 O          23.1807  -35.6808  -41.5057 O.2       8 UNK        -0.5046 
     54 N          22.5786  -33.4940  -41.5368 N.am      9 UNK        -0.4200 
     55 CA         22.3098  -33.3261  -40.1035 C.3       9 UNK         0.0839 
     56 C          23.5971  -33.1899  -39.2381 C.2       9 UNK         0.5513 
     57 N          24.7752  -32.9778  -39.8161 N.am      9 UNK        -0.7519 
     58 O          23.5229  -33.2845  -38.0160 O.2       9 UNK        -0.4960 
     59 C59        21.3427  -32.1444  -39.8350 C.3       10 UNK        -0.0876 
     60 S60        19.7760  -32.2460  -40.7734 S.3       10 UNK        -0.2414 
     61 C61        20.1737  -31.1409  -42.1649 C.3       10 UNK         0.0169 
     62 H62        18.2342  -25.0908  -50.0335 H         1 UNK         0.0903 
     63 H63        18.8464  -23.4412  -49.8994 H         1 UNK         0.0903 
     64 H64        19.7425  -24.6431  -50.8324 H         1 UNK         0.0903 
     65 H65        18.5695  -26.2638  -48.1525 H         1 UNK         0.3096 
     66 H66        21.1156  -26.4574  -46.8443 H         1 UNK         0.1121 
     67 H67        19.7953  -27.8338  -45.1472 H         1 UNK         0.0849 
     68 H68        18.3283  -27.4279  -46.0011 H         1 UNK         0.0849 
     69 H69        17.3733  -29.7133  -47.2025 H         1 UNK         0.0865 
     70 H70        18.4416  -31.0914  -47.1354 H         1 UNK         0.0865 
     71 H71        20.0376  -31.0344  -44.8766 H         1 UNK         0.1346 
     72 H72        17.6665  -30.3504  -41.3667 H         1 UNK         0.1412 
     73 H73        16.1393  -29.2992  -45.2297 H         1 UNK         0.1426 
     74 H74        14.8621  -30.0569  -42.2927 H         1 UNK         0.0716 
     75 H75        14.9148  -28.6380  -43.3108 H         1 UNK         0.0716 
     76 H76        16.3970  -25.8557  -41.3096 H         1 UNK         0.0695 
     77 H77        16.4831  -26.6485  -42.8591 H         1 UNK         0.0695 
     78 H78        18.5896  -27.7771  -42.2142 H         1 UNK         0.0983 
     79 H79        18.4115  -25.0958  -42.7649 H         1 UNK         0.3095 
     80 H80        20.1155  -23.7342  -43.3415 H         1 UNK         0.0454 
     81 H81        22.9481  -24.7903  -42.7969 H         1 UNK         0.0851 
     82 H82        22.1162  -23.5031  -41.9389 H         1 UNK         0.0851 
     83 H83        22.5755  -23.2765  -43.6155 H         1 UNK         0.0851 
     84 H84        21.7419  -25.7466  -44.8200 H         1 UNK         0.2976 
     85 H85        19.2789  -28.9659  -40.6341 H         1 UNK         0.3116 
     86 H86        20.0370  -29.7988  -38.7665 H         1 UNK         0.0646 
     87 H87        18.5250  -27.6426  -37.2130 H         1 UNK         0.0847 
     88 H88        19.1133  -29.1728  -36.5873 H         1 UNK         0.0847 
     89 H89        17.8252  -29.1592  -37.7786 H         1 UNK         0.0847 
     90 H90        21.3013  -27.1121  -40.0008 H         1 UNK         0.3040 
     91 H91        23.3675  -26.7589  -37.8513 H         1 UNK         0.1015 
     92 H92        21.9621  -24.7389  -38.2180 H         1 UNK         0.0786 
     93 H93        22.3256  -24.7766  -39.9408 H         1 UNK         0.0786 
     94 H94        23.6039  -24.4575  -38.7755 H         1 UNK         0.0786 
     95 H95        22.8661  -28.0485  -40.9962 H         1 UNK         0.3172 
     96 H96        25.6923  -28.4189  -41.4540 H         1 UNK         0.0595 
     97 H97        24.0574  -26.7853  -43.4900 H         1 UNK         0.0839 
     98 H98        25.7467  -27.2454  -43.6462 H         1 UNK         0.0839 
     99 H99        25.2757  -26.0812  -42.4287 H         1 UNK         0.0839 
    100 H100       25.7629  -29.3991  -43.8624 H         1 UNK         0.2998 
    101 H101       25.3702  -31.0758  -45.2334 H         1 UNK         0.0822 
    102 H102       23.3581  -29.6915  -45.8363 H         1 UNK         0.0787 
    103 H103       23.0900  -31.3950  -46.1224 H         1 UNK         0.0787 
    104 H104       22.3818  -30.6160  -44.7071 H         1 UNK         0.0787 
    105 H105       22.9226  -32.9236  -44.8927 H         1 UNK         0.3055 
    106 H106       24.3030  -35.0915  -43.7442 H         1 UNK         0.1106 
    107 H107       22.1299  -36.2913  -44.0832 H         1 UNK         0.0828 
    108 H108       21.3115  -34.7593  -44.3519 H         1 UNK         0.0828 
    109 H109       22.5415  -35.3222  -45.4860 H         1 UNK         0.0828 
    110 H110       22.5205  -32.6595  -42.1008 H         1 UNK         0.2931 
    111 H111       21.8091  -34.2337  -39.7606 H         1 UNK         0.0412 
    112 H112       24.8541  -32.8885  -40.8223 H         1 UNK         0.3472 
    113 H113       25.5980  -32.8972  -39.2401 H         1 UNK         0.3472 
    114 H114       21.0829  -32.1138  -38.7751 H         1 UNK         0.0970 
    115 H115       21.8380  -31.1942  -40.0450 H         1 UNK         0.0970 
    116 H116       20.9430  -31.6119  -42.7771 H         1 UNK         0.0612 
    117 H117       20.6057  -30.2195  -41.7752 H         1 UNK         0.0612 
@<TRIPOS>BOND
     1    1    2 1    
     2    1   62 1    
     3    1   63 1    
     4    1   64 1    
     5    2    3 2    
     6    2    4 am   BACKBONE|DICT|INTERRES
     7    4    5 1    
     8    4   65 1    
     9    5    6 1    
    10    5   25 1    
    11    5   66 1    
    12    6    7 1    
    13    6   67 1    
    14    6   68 1    
    15    7    8 1    
    16    8    9 1    
    17    8   69 1    
    18    8   70 1    
    19    9   10 ar   
    20    9   14 ar   
    21   10   11 ar   
    22   10   71 1    
    23   11   12 ar   
    24   11   61 1    
    25   12   13 ar   
    26   12   72 1    
    27   13   14 ar   
    28   13   15 1    
    29   14   73 1    
    30   15   16 1    
    31   15   74 1    
    32   15   75 1    
    33   16   17 1    
    34   17   18 1    
    35   17   76 1    
    36   17   77 1    
    37   18   19 1    
    38   18   27 1    
    39   18   78 1    
    40   19   20 am   BACKBONE|DICT|INTERRES
    41   19   79 1    
    42   20   21 2    
    43   20   22 1    
    44   22   23 1    
    45   22   24 1    
    46   22   80 1    
    47   23   81 1    
    48   23   82 1    
    49   23   83 1    
    50   24   25 am   BACKBONE|DICT|INTERRES
    51   24   84 1    
    52   25   26 2    
    53   27   28 2    
    54   27   29 am   BACKBONE|DICT|INTERRES
    55   29   30 1    
    56   29   85 1    
    57   30   31 1    
    58   30   32 1    
    59   30   86 1    
    60   31   87 1    
    61   31   88 1    
    62   31   89 1    
    63   32   33 2    
    64   32   34 am   BACKBONE|DICT|INTERRES
    65   34   35 1    
    66   34   90 1    
    67   35   36 1    
    68   35   37 1    
    69   35   91 1    
    70   36   92 1    
    71   36   93 1    
    72   36   94 1    
    73   37   38 2    
    74   37   39 am   BACKBONE|DICT|INTERRES
    75   39   40 1    
    76   39   95 1    
    77   40   41 1    
    78   40   42 1    
    79   40   96 1    
    80   41   97 1    
    81   41   98 1    
    82   41   99 1    
    83   42   43 2    
    84   42   44 am   BACKBONE|DICT|INTERRES
    85   44   45 1    
    86   44  100 1    
    87   45   46 1    
    88   45   47 1    
    89   45  101 1    
    90   46  102 1    
    91   46  103 1    
    92   46  104 1    
    93   47   48 2    
    94   47   49 am   BACKBONE|DICT|INTERRES
    95   49   50 1    
    96   49  105 1    
    97   50   51 1    
    98   50   52 1    
    99   50  106 1    
   100   51  107 1    
   101   51  108 1    
   102   51  109 1    
   103   52   53 2    
   104   52   54 am   BACKBONE|DICT|INTERRES
   105   54   55 1    
   106   54  110 1    
   107   55   56 1    
   108   55   59 1    
   109   55  111 1    
   110   56   57 am   BACKBONE|DICT|INTERRES
   111   56   58 2    
   112   57  112 1    
   113   57  113 1    
   114   59   60 1    
   115   59  114 1    
   116   59  115 1    
   117   60   61 1    
   118   61  116 1    
   119   61  117 1    
@<TRIPOS>SUBSTRUCTURE
     1 UNK         1 GROUP             0       ****    0 ROOT    
