@<TRIPOS>MOLECULE
3R8
117   119    1
SMALL
USER_CHARGES


@<TRIPOS>ATOM
      1 CA         16.0476  -23.4458  -44.4556 C.3       0 UNK        -0.2013 
      2 C          16.7771  -24.7803  -44.4212 C.2       0 UNK         0.4866 
      3 O          17.9124  -24.8711  -44.8929 O.2       0 UNK        -0.5176 
      4 N          16.1350  -25.8208  -43.8717 N.am      1 UNK        -0.4884 
      5 CA         16.7133  -27.1605  -43.7273 C.3       1 UNK         0.0853 
      6 C6         15.6444  -28.2407  -43.4235 C.3       10 UNK        -0.0849 
      7 S7         14.6685  -28.7746  -44.8750 S.3       10 UNK        -0.2776 
      8 C8         15.8870  -29.0745  -46.2162 C.3       10 UNK         0.0316 
      9 C9         17.1857  -29.7599  -45.7841 C.ar      10 UNK        -0.0863 
     10 C10        17.1736  -30.8568  -44.9169 C.ar      10 UNK        -0.1009 
     11 C11        18.3688  -31.4619  -44.5215 C.ar      10 UNK        -0.0712 
     12 C12        19.5819  -30.9799  -45.0192 C.ar      10 UNK        -0.0894 
     13 C13        19.6209  -29.8850  -45.8876 C.ar      10 UNK        -0.0745 
     14 C14        18.4119  -29.2888  -46.2727 C.ar      10 UNK        -0.0972 
     15 C15        20.9798  -29.4195  -46.4217 C.3       10 UNK         0.0209 
     16 S16        21.0587  -27.6659  -46.9404 S.3       10 UNK        -0.2568 
     17 C17        22.3003  -26.9360  -45.8125 C.3       10 UNK        -0.0983 
     18 CA         21.6360  -26.0357  -44.7374 C.3       3 UNK         0.0876 
     19 N          20.7606  -26.7987  -43.8438 N.am      3 UNK        -0.4424 
     20 C          21.1216  -27.6925  -42.9091 C.2       2 UNK         0.4918 
     21 O          22.2896  -27.9305  -42.6026 O.2       2 UNK        -0.4875 
     22 CA         19.9984  -28.4902  -42.2207 C.3       2 UNK         0.0481 
     23 CB         19.9944  -28.2928  -40.6919 C.3       2 UNK        -0.1831 
     24 N          18.6777  -28.2707  -42.8269 N.am      2 UNK        -0.4498 
     25 C          17.8683  -27.2072  -42.7076 C.2       1 UNK         0.5027 
     26 O          18.0311  -26.2914  -41.8986 O.2       1 UNK        -0.4969 
     27 C          22.6411  -25.1815  -43.9375 C.2       3 UNK         0.5005 
     28 O          23.8523  -25.3502  -44.0794 O.2       3 UNK        -0.5279 
     29 N          22.1044  -24.3206  -43.0568 N.am      4 UNK        -0.4463 
     30 CA         22.8318  -23.4791  -42.0931 C.3       4 UNK         0.0283 
     31 CB         23.6792  -22.4104  -42.8168 C.3       4 UNK        -0.1875 
     32 C          23.6473  -24.3047  -41.0751 C.2       4 UNK         0.4949 
     33 O          24.7412  -23.8981  -40.6818 O.2       4 UNK        -0.5039 
     34 N          23.0868  -25.4587  -40.6823 N.am      5 UNK        -0.4663 
     35 CA         23.6464  -26.4736  -39.7802 C.3       5 UNK         0.0242 
     36 CB         23.8436  -25.9063  -38.3579 C.3       5 UNK        -0.1982 
     37 C          24.9067  -27.1765  -40.3261 C.2       5 UNK         0.5017 
     38 O          25.6817  -27.7236  -39.5393 O.2       5 UNK        -0.5012 
     39 N          25.0846  -27.1807  -41.6557 N.am      6 UNK        -0.4439 
     40 CA         26.1309  -27.9403  -42.3439 C.3       6 UNK         0.0297 
     41 CB         26.3065  -27.4049  -43.7729 C.3       6 UNK        -0.2006 
     42 C          25.8335  -29.4493  -42.3736 C.2       6 UNK         0.4892 
     43 O          26.7750  -30.2437  -42.3742 O.2       6 UNK        -0.5089 
     44 N          24.5452  -29.8141  -42.3934 N.am      7 UNK        -0.4243 
     45 CA         24.0602  -31.1889  -42.3265 C.3       7 UNK         0.0196 
     46 CB         23.0204  -31.3977  -43.4374 C.3       7 UNK        -0.2007 
     47 C          23.4204  -31.4357  -40.9554 C.2       7 UNK         0.5020 
     48 O          22.7952  -30.5323  -40.3975 O.2       7 UNK        -0.5147 
     49 N          23.5577  -32.6679  -40.4525 N.am      8 UNK        -0.4734 
     50 CA         22.9238  -33.1181  -39.2079 C.3       8 UNK         0.0238 
     51 CB         23.8044  -34.1992  -38.5587 C.3       8 UNK        -0.1912 
     52 C          21.4959  -33.6517  -39.4248 C.2       8 UNK         0.5038 
     53 O          20.7270  -33.7024  -38.4642 O.2       8 UNK        -0.5046 
     54 N          21.1811  -34.0589  -40.6638 N.am      9 UNK        -0.4200 
     55 CA         19.9085  -34.6687  -41.0942 C.3       9 UNK         0.0839 
     56 C          19.6182  -36.0730  -40.4789 C.2       9 UNK         0.5513 
     57 N          20.6083  -36.7772  -39.9432 N.am      9 UNK        -0.7519 
     58 O          18.4871  -36.5512  -40.5152 O.2       9 UNK        -0.4960 
     59 C59        18.6903  -33.7048  -40.9878 C.3       10 UNK        -0.0876 
     60 S60        18.9241  -32.1469  -41.9068 S.3       10 UNK        -0.2414 
     61 C61        18.3539  -32.6411  -43.5619 C.3       10 UNK         0.0169 
     62 H62        16.6111  -22.6970  -43.8997 H         1 UNK         0.0903 
     63 H63        15.9448  -23.1013  -45.4842 H         1 UNK         0.0903 
     64 H64        15.0512  -23.5140  -44.0194 H         1 UNK         0.0903 
     65 H65        15.2112  -25.6919  -43.4840 H         1 UNK         0.3096 
     66 H66        17.1850  -27.3733  -44.6837 H         1 UNK         0.1121 
     67 H67        16.0901  -29.1441  -43.0032 H         1 UNK         0.0849 
     68 H68        14.9562  -27.8853  -42.6546 H         1 UNK         0.0849 
     69 H69        15.4118  -29.6889  -46.9820 H         1 UNK         0.0865 
     70 H70        16.1025  -28.1179  -46.6952 H         1 UNK         0.0865 
     71 H71        16.2316  -31.2338  -44.5419 H         1 UNK         0.1346 
     72 H72        20.4997  -31.4692  -44.7278 H         1 UNK         0.1412 
     73 H73        18.4197  -28.4560  -46.9622 H         1 UNK         0.1426 
     74 H74        21.2342  -30.0379  -47.2831 H         1 UNK         0.0716 
     75 H75        21.7499  -29.6123  -45.6744 H         1 UNK         0.0716 
     76 H76        22.9802  -26.3461  -46.4299 H         1 UNK         0.0695 
     77 H77        22.9133  -27.7126  -45.3528 H         1 UNK         0.0695 
     78 H78        20.9960  -25.3217  -45.2596 H         1 UNK         0.0983 
     79 H79        19.7739  -26.6627  -44.0045 H         1 UNK         0.3095 
     80 H80        20.2296  -29.5386  -42.4064 H         1 UNK         0.0454 
     81 H81        19.1818  -28.8475  -40.2232 H         1 UNK         0.0851 
     82 H82        19.8994  -27.2448  -40.4085 H         1 UNK         0.0851 
     83 H83        20.9236  -28.6582  -40.2555 H         1 UNK         0.0851 
     84 H84        18.4287  -28.9716  -43.5149 H         1 UNK         0.2976 
     85 H85        21.0954  -24.2699  -43.0051 H         1 UNK         0.3116 
     86 H86        22.0718  -22.9540  -41.5126 H         1 UNK         0.0646 
     87 H87        24.5106  -22.8539  -43.3655 H         1 UNK         0.0847 
     88 H88        23.0785  -21.8372  -43.5227 H         1 UNK         0.0847 
     89 H89        24.1042  -21.7015  -42.1052 H         1 UNK         0.0847 
     90 H90        22.2000  -25.7010  -41.1004 H         1 UNK         0.3040 
     91 H91        22.8927  -27.2597  -39.7129 H         1 UNK         0.1015 
     92 H92        24.1001  -26.6979  -37.6527 H         1 UNK         0.0786 
     93 H93        22.9341  -25.4313  -37.9901 H         1 UNK         0.0786 
     94 H94        24.6464  -25.1695  -38.3224 H         1 UNK         0.0786 
     95 H95        24.3977  -26.7162  -42.2387 H         1 UNK         0.3172 
     96 H96        27.0716  -27.7927  -41.8093 H         1 UNK         0.0595 
     97 H97        25.4073  -27.5538  -44.3722 H         1 UNK         0.0839 
     98 H98        27.1252  -27.9144  -44.2825 H         1 UNK         0.0839 
     99 H99        26.5361  -26.3391  -43.7733 H         1 UNK         0.0839 
    100 H100       23.8284  -29.0943  -42.3423 H         1 UNK         0.2998 
    101 H101       24.8797  -31.8956  -42.4742 H         1 UNK         0.0822 
    102 H102       22.6248  -32.4139  -43.4239 H         1 UNK         0.0787 
    103 H103       22.1788  -30.7152  -43.3201 H         1 UNK         0.0787 
    104 H104       23.4545  -31.2288  -44.4230 H         1 UNK         0.0787 
    105 H105       24.1065  -33.3487  -40.9593 H         1 UNK         0.3055 
    106 H106       22.8521  -32.2780  -38.5127 H         1 UNK         0.1106 
    107 H107       24.7987  -33.8149  -38.3302 H         1 UNK         0.0828 
    108 H108       23.3701  -34.5442  -37.6191 H         1 UNK         0.0828 
    109 H109       23.9212  -35.0712  -39.2030 H         1 UNK         0.0828 
    110 H110       21.8857  -33.9750  -41.3798 H         1 UNK         0.2931 
    111 H111       20.0488  -34.8760  -42.1555 H         1 UNK         0.0412 
    112 H112       20.4132  -37.6884  -39.5583 H         1 UNK         0.3472 
    113 H113       21.5450  -36.4086  -39.9182 H         1 UNK         0.3472 
    114 H114       17.7814  -34.1842  -41.3556 H         1 UNK         0.0970 
    115 H115       18.4910  -33.4595  -39.9437 H         1 UNK         0.0970 
    116 H116       17.3497  -33.0614  -43.4890 H         1 UNK         0.0612 
    117 H117       18.9973  -33.4336  -43.9467 H         1 UNK         0.0612 
@<TRIPOS>BOND
     1    1    2 1    
     2    1   62 1    
     3    1   63 1    
     4    1   64 1    
     5    2    3 2    
     6    2    4 am   BACKBONE|DICT|INTERRES
     7    4    5 1    
     8    4   65 1    
     9    5    6 1    
    10    5   25 1    
    11    5   66 1    
    12    6    7 1    
    13    6   67 1    
    14    6   68 1    
    15    7    8 1    
    16    8    9 1    
    17    8   69 1    
    18    8   70 1    
    19    9   10 ar   
    20    9   14 ar   
    21   10   11 ar   
    22   10   71 1    
    23   11   12 ar   
    24   11   61 1    
    25   12   13 ar   
    26   12   72 1    
    27   13   14 ar   
    28   13   15 1    
    29   14   73 1    
    30   15   16 1    
    31   15   74 1    
    32   15   75 1    
    33   16   17 1    
    34   17   18 1    
    35   17   76 1    
    36   17   77 1    
    37   18   19 1    
    38   18   27 1    
    39   18   78 1    
    40   19   20 am   BACKBONE|DICT|INTERRES
    41   19   79 1    
    42   20   21 2    
    43   20   22 1    
    44   22   23 1    
    45   22   24 1    
    46   22   80 1    
    47   23   81 1    
    48   23   82 1    
    49   23   83 1    
    50   24   25 am   BACKBONE|DICT|INTERRES
    51   24   84 1    
    52   25   26 2    
    53   27   28 2    
    54   27   29 am   BACKBONE|DICT|INTERRES
    55   29   30 1    
    56   29   85 1    
    57   30   31 1    
    58   30   32 1    
    59   30   86 1    
    60   31   87 1    
    61   31   88 1    
    62   31   89 1    
    63   32   33 2    
    64   32   34 am   BACKBONE|DICT|INTERRES
    65   34   35 1    
    66   34   90 1    
    67   35   36 1    
    68   35   37 1    
    69   35   91 1    
    70   36   92 1    
    71   36   93 1    
    72   36   94 1    
    73   37   38 2    
    74   37   39 am   BACKBONE|DICT|INTERRES
    75   39   40 1    
    76   39   95 1    
    77   40   41 1    
    78   40   42 1    
    79   40   96 1    
    80   41   97 1    
    81   41   98 1    
    82   41   99 1    
    83   42   43 2    
    84   42   44 am   BACKBONE|DICT|INTERRES
    85   44   45 1    
    86   44  100 1    
    87   45   46 1    
    88   45   47 1    
    89   45  101 1    
    90   46  102 1    
    91   46  103 1    
    92   46  104 1    
    93   47   48 2    
    94   47   49 am   BACKBONE|DICT|INTERRES
    95   49   50 1    
    96   49  105 1    
    97   50   51 1    
    98   50   52 1    
    99   50  106 1    
   100   51  107 1    
   101   51  108 1    
   102   51  109 1    
   103   52   53 2    
   104   52   54 am   BACKBONE|DICT|INTERRES
   105   54   55 1    
   106   54  110 1    
   107   55   56 1    
   108   55   59 1    
   109   55  111 1    
   110   56   57 am   BACKBONE|DICT|INTERRES
   111   56   58 2    
   112   57  112 1    
   113   57  113 1    
   114   59   60 1    
   115   59  114 1    
   116   59  115 1    
   117   60   61 1    
   118   61  116 1    
   119   61  117 1    
@<TRIPOS>SUBSTRUCTURE
     1 UNK         1 GROUP             0       ****    0 ROOT    
