@<TRIPOS>MOLECULE
3R8
117   119    1
SMALL
USER_CHARGES


@<TRIPOS>ATOM
      1 CA         15.3888  -22.8469  -44.6673 C.3       0 UNK        -0.2013 
      2 C          15.9707  -24.2490  -44.5722 C.2       0 UNK         0.4866 
      3 O          17.0364  -24.5072  -45.1330 O.2       0 UNK        -0.5176 
      4 N          15.2774  -25.1558  -43.8703 N.am      1 UNK        -0.4884 
      5 CA         15.6917  -26.5430  -43.6397 C.3       1 UNK         0.0853 
      6 C6         14.5100  -27.4304  -43.1667 C.3       10 UNK        -0.0849 
      7 S7         13.5378  -28.0180  -44.5945 S.3       10 UNK        -0.2776 
      8 C8         14.1978  -29.7067  -44.8255 C.3       10 UNK         0.0316 
      9 C9         15.7170  -29.7273  -44.9584 C.ar      10 UNK        -0.0863 
     10 C10        16.5098  -30.1710  -43.8942 C.ar      10 UNK        -0.1009 
     11 C11        17.9032  -30.1540  -43.9934 C.ar      10 UNK        -0.0712 
     12 C12        18.5050  -29.7082  -45.1729 C.ar      10 UNK        -0.0894 
     13 C13        17.7261  -29.2724  -46.2477 C.ar      10 UNK        -0.0745 
     14 C14        16.3313  -29.2866  -46.1356 C.ar      10 UNK        -0.0972 
     15 C15        18.3881  -28.7983  -47.5331 C.3       10 UNK         0.0209 
     16 S16        18.9415  -27.0676  -47.4141 S.3       10 UNK        -0.2568 
     17 C17        20.6955  -27.2545  -46.9355 C.3       10 UNK        -0.0983 
     18 CA         21.1743  -26.1171  -45.9912 C.3       3 UNK         0.0876 
     19 N          20.3930  -26.0552  -44.7445 N.am      3 UNK        -0.4424 
     20 C          20.4426  -26.9175  -43.7150 C.2       2 UNK         0.4918 
     21 O          21.2431  -27.8472  -43.6250 O.2       2 UNK        -0.4875 
     22 CA         19.3958  -26.7106  -42.6172 C.3       2 UNK         0.0481 
     23 CB         19.7251  -25.4708  -41.7632 C.3       2 UNK        -0.1831 
     24 N          18.0910  -26.5996  -43.2595 N.am      2 UNK        -0.4498 
     25 C          16.8909  -26.6007  -42.6741 C.2       1 UNK         0.5027 
     26 O          16.7064  -26.6331  -41.4560 O.2       1 UNK        -0.4969 
     27 C          22.7064  -26.1371  -45.7574 C.2       3 UNK         0.5005 
     28 O          23.4440  -26.7291  -46.5474 O.2       3 UNK        -0.5279 
     29 N          23.1494  -25.5060  -44.6568 N.am      4 UNK        -0.4463 
     30 CA         24.5202  -25.4508  -44.1273 C.3       4 UNK         0.0283 
     31 CB         25.4704  -24.7408  -45.1146 C.3       4 UNK        -0.1875 
     32 C          25.0912  -26.8059  -43.6536 C.2       4 UNK         0.4949 
     33 O          26.2670  -26.8635  -43.2914 O.2       4 UNK        -0.5039 
     34 N          24.2705  -27.8643  -43.6081 N.am      5 UNK        -0.4663 
     35 CA         24.6531  -29.2127  -43.1824 C.3       5 UNK         0.0242 
     36 CB         23.8644  -30.2371  -44.0194 C.3       5 UNK        -0.1982 
     37 C          24.4442  -29.3869  -41.6677 C.2       5 UNK         0.5017 
     38 O          23.7575  -30.3168  -41.2409 O.2       5 UNK        -0.5012 
     39 N          25.0251  -28.4691  -40.8819 N.am      6 UNK        -0.4439 
     40 CA         24.9294  -28.4091  -39.4209 C.3       6 UNK         0.0297 
     41 CB         25.7248  -27.1968  -38.9108 C.3       6 UNK        -0.2006 
     42 C          25.4201  -29.7000  -38.7443 C.2       6 UNK         0.4892 
     43 O          26.4466  -30.2483  -39.1525 O.2       6 UNK        -0.5089 
     44 N          24.6599  -30.1633  -37.7428 N.am      7 UNK        -0.4243 
     45 CA         24.8183  -31.3981  -36.9571 C.3       7 UNK         0.0196 
     46 CB         26.1677  -31.4323  -36.2121 C.3       7 UNK        -0.2007 
     47 C          24.5863  -32.7011  -37.7477 C.2       7 UNK         0.5020 
     48 O          24.0019  -33.6342  -37.1966 O.2       7 UNK        -0.5147 
     49 N          25.0305  -32.7534  -39.0095 N.am      8 UNK        -0.4734 
     50 CA         24.8344  -33.8760  -39.9303 C.3       8 UNK         0.0238 
     51 CB         25.7276  -33.6820  -41.1668 C.3       8 UNK        -0.1912 
     52 C          23.3641  -34.0501  -40.3456 C.2       8 UNK         0.5038 
     53 O          22.8759  -35.1818  -40.3822 O.2       8 UNK        -0.5046 
     54 N          22.6974  -32.9279  -40.6394 N.am      9 UNK        -0.4200 
     55 CA         21.2771  -32.8312  -40.9819 C.3       9 UNK         0.0839 
     56 C          20.4998  -32.1780  -39.8082 C.2       9 UNK         0.5513 
     57 N          19.2853  -32.6360  -39.5361 N.am      9 UNK        -0.7519 
     58 O          20.9742  -31.2486  -39.1577 O.2       9 UNK        -0.4960 
     59 C59        21.1210  -32.0331  -42.3000 C.3       10 UNK        -0.0876 
     60 S60        19.4941  -32.2295  -43.1016 S.3       10 UNK        -0.2414 
     61 C61        18.7693  -30.5842  -42.8220 C.3       10 UNK         0.0169 
     62 H62        16.0804  -22.1242  -44.2352 H         1 UNK         0.0903 
     63 H63        15.2249  -22.5797  -45.7108 H         1 UNK         0.0903 
     64 H64        14.4375  -22.7625  -44.1423 H         1 UNK         0.0903 
     65 H65        14.4137  -24.8801  -43.4250 H         1 UNK         0.3096 
     66 H66        16.0458  -26.9369  -44.5950 H         1 UNK         0.1121 
     67 H67        13.8567  -26.8830  -42.4852 H         1 UNK         0.0849 
     68 H68        14.8517  -28.2988  -42.6009 H         1 UNK         0.0849 
     69 H69        13.8766  -30.3317  -43.9907 H         1 UNK         0.0865 
     70 H70        13.7495  -30.1438  -45.7190 H         1 UNK         0.0865 
     71 H71        16.0439  -30.5124  -42.9797 H         1 UNK         0.1346 
     72 H72        19.5835  -29.6999  -45.2468 H         1 UNK         0.1412 
     73 H73        15.7208  -28.9413  -46.9593 H         1 UNK         0.1426 
     74 H74        17.6849  -28.8779  -48.3635 H         1 UNK         0.0716 
     75 H75        19.2268  -29.4475  -47.7894 H         1 UNK         0.0716 
     76 H76        20.8585  -28.2260  -46.4683 H         1 UNK         0.0695 
     77 H77        21.2752  -27.2610  -47.8603 H         1 UNK         0.0695 
     78 H78        20.9870  -25.1730  -46.5056 H         1 UNK         0.0983 
     79 H79        19.7106  -25.3096  -44.7098 H         1 UNK         0.3095 
     80 H80        19.3923  -27.5917  -41.9736 H         1 UNK         0.0454 
     81 H81        20.7373  -25.5321  -41.3612 H         1 UNK         0.0851 
     82 H82        19.6548  -24.5476  -42.3392 H         1 UNK         0.0851 
     83 H83        19.0505  -25.3818  -40.9120 H         1 UNK         0.0851 
     84 H84        18.1137  -26.5639  -44.2715 H         1 UNK         0.2976 
     85 H85        22.4509  -25.0583  -44.0796 H         1 UNK         0.3116 
     86 H86        24.4625  -24.8306  -43.2316 H         1 UNK         0.0646 
     87 H87        26.4442  -24.5581  -44.6584 H         1 UNK         0.0847 
     88 H88        25.0740  -23.7735  -45.4229 H         1 UNK         0.0847 
     89 H89        25.6431  -25.3352  -46.0122 H         1 UNK         0.0847 
     90 H90        23.2906  -27.7355  -43.8389 H         1 UNK         0.3040 
     91 H91        25.7153  -29.3764  -43.3783 H         1 UNK         0.1015 
     92 H92        24.0893  -30.1337  -45.0809 H         1 UNK         0.0786 
     93 H93        22.7883  -30.1141  -43.8963 H         1 UNK         0.0786 
     94 H94        24.1169  -31.2590  -43.7331 H         1 UNK         0.0786 
     95 H95        25.5978  -27.7678  -41.3342 H         1 UNK         0.3172 
     96 H96        23.8759  -28.2607  -39.1738 H         1 UNK         0.0595 
     97 H97        25.3481  -26.2654  -39.3340 H         1 UNK         0.0839 
     98 H98        26.7839  -27.2766  -39.1610 H         1 UNK         0.0839 
     99 H99        25.6530  -27.1102  -37.8256 H         1 UNK         0.0839 
    100 H100       23.8211  -29.6411  -37.5276 H         1 UNK         0.2998 
    101 H101       24.0330  -31.3585  -36.2002 H         1 UNK         0.0822 
    102 H102       26.2182  -32.2918  -35.5424 H         1 UNK         0.0787 
    103 H103       27.0128  -31.5090  -36.8968 H         1 UNK         0.0787 
    104 H104       26.3080  -30.5387  -35.6037 H         1 UNK         0.0787 
    105 H105       25.5320  -31.9411  -39.3582 H         1 UNK         0.3055 
    106 H106       25.1446  -34.7910  -39.4203 H         1 UNK         0.1106 
    107 H107       25.4850  -32.7622  -41.7012 H         1 UNK         0.0828 
    108 H108       26.7817  -33.6408  -40.8916 H         1 UNK         0.0828 
    109 H109       25.6085  -34.5089  -41.8684 H         1 UNK         0.0828 
    110 H110       23.1790  -32.0338  -40.5774 H         1 UNK         0.2931 
    111 H111       20.8767  -33.8351  -41.1438 H         1 UNK         0.0412 
    112 H112       18.8806  -33.3828  -40.0791 H         1 UNK         0.3472 
    113 H113       18.7601  -32.2210  -38.7815 H         1 UNK         0.3472 
    114 H114       21.8571  -32.3865  -43.0245 H         1 UNK         0.0970 
    115 H115       21.3569  -30.9790  -42.1428 H         1 UNK         0.0970 
    116 H116       19.5537  -29.8407  -42.6873 H         1 UNK         0.0612 
    117 H117       18.1974  -30.5976  -41.8928 H         1 UNK         0.0612 
@<TRIPOS>BOND
     1    1    2 1    
     2    1   62 1    
     3    1   63 1    
     4    1   64 1    
     5    2    3 2    
     6    2    4 am   BACKBONE|DICT|INTERRES
     7    4    5 1    
     8    4   65 1    
     9    5    6 1    
    10    5   25 1    
    11    5   66 1    
    12    6    7 1    
    13    6   67 1    
    14    6   68 1    
    15    7    8 1    
    16    8    9 1    
    17    8   69 1    
    18    8   70 1    
    19    9   10 ar   
    20    9   14 ar   
    21   10   11 ar   
    22   10   71 1    
    23   11   12 ar   
    24   11   61 1    
    25   12   13 ar   
    26   12   72 1    
    27   13   14 ar   
    28   13   15 1    
    29   14   73 1    
    30   15   16 1    
    31   15   74 1    
    32   15   75 1    
    33   16   17 1    
    34   17   18 1    
    35   17   76 1    
    36   17   77 1    
    37   18   19 1    
    38   18   27 1    
    39   18   78 1    
    40   19   20 am   BACKBONE|DICT|INTERRES
    41   19   79 1    
    42   20   21 2    
    43   20   22 1    
    44   22   23 1    
    45   22   24 1    
    46   22   80 1    
    47   23   81 1    
    48   23   82 1    
    49   23   83 1    
    50   24   25 am   BACKBONE|DICT|INTERRES
    51   24   84 1    
    52   25   26 2    
    53   27   28 2    
    54   27   29 am   BACKBONE|DICT|INTERRES
    55   29   30 1    
    56   29   85 1    
    57   30   31 1    
    58   30   32 1    
    59   30   86 1    
    60   31   87 1    
    61   31   88 1    
    62   31   89 1    
    63   32   33 2    
    64   32   34 am   BACKBONE|DICT|INTERRES
    65   34   35 1    
    66   34   90 1    
    67   35   36 1    
    68   35   37 1    
    69   35   91 1    
    70   36   92 1    
    71   36   93 1    
    72   36   94 1    
    73   37   38 2    
    74   37   39 am   BACKBONE|DICT|INTERRES
    75   39   40 1    
    76   39   95 1    
    77   40   41 1    
    78   40   42 1    
    79   40   96 1    
    80   41   97 1    
    81   41   98 1    
    82   41   99 1    
    83   42   43 2    
    84   42   44 am   BACKBONE|DICT|INTERRES
    85   44   45 1    
    86   44  100 1    
    87   45   46 1    
    88   45   47 1    
    89   45  101 1    
    90   46  102 1    
    91   46  103 1    
    92   46  104 1    
    93   47   48 2    
    94   47   49 am   BACKBONE|DICT|INTERRES
    95   49   50 1    
    96   49  105 1    
    97   50   51 1    
    98   50   52 1    
    99   50  106 1    
   100   51  107 1    
   101   51  108 1    
   102   51  109 1    
   103   52   53 2    
   104   52   54 am   BACKBONE|DICT|INTERRES
   105   54   55 1    
   106   54  110 1    
   107   55   56 1    
   108   55   59 1    
   109   55  111 1    
   110   56   57 am   BACKBONE|DICT|INTERRES
   111   56   58 2    
   112   57  112 1    
   113   57  113 1    
   114   59   60 1    
   115   59  114 1    
   116   59  115 1    
   117   60   61 1    
   118   61  116 1    
   119   61  117 1    
@<TRIPOS>SUBSTRUCTURE
     1 UNK         1 GROUP             0       ****    0 ROOT    
