@<TRIPOS>MOLECULE
3R8
117   119    1
SMALL
USER_CHARGES


@<TRIPOS>ATOM
      1 CA         15.4561  -24.7406  -48.6748 C.3       0 UNK        -0.2013 
      2 C          16.1686  -25.5226  -47.5817 C.2       0 UNK         0.4866 
      3 O          17.2091  -26.1251  -47.8402 O.2       0 UNK        -0.5176 
      4 N          15.6242  -25.5043  -46.3584 N.am      1 UNK        -0.4884 
      5 CA         16.1411  -26.2269  -45.1850 C.3       1 UNK         0.0853 
      6 C6         14.9939  -26.6554  -44.2327 C.3       10 UNK        -0.0849 
      7 S7         13.9841  -27.9707  -45.0004 S.3       10 UNK        -0.2776 
      8 C8         14.3198  -29.4239  -43.9414 C.3       10 UNK         0.0316 
      9 C9         15.8013  -29.6561  -43.6531 C.ar      10 UNK        -0.0863 
     10 C10        16.2430  -29.7601  -42.3303 C.ar      10 UNK        -0.1009 
     11 C11        17.5944  -29.9609  -42.0325 C.ar      10 UNK        -0.0712 
     12 C12        18.5127  -30.0448  -43.0879 C.ar      10 UNK        -0.0894 
     13 C13        18.0886  -29.9379  -44.4158 C.ar      10 UNK        -0.0745 
     14 C14        16.7294  -29.7648  -44.6929 C.ar      10 UNK        -0.0972 
     15 C15        19.0965  -30.0071  -45.5538 C.3       10 UNK         0.0209 
     16 S16        19.6997  -28.3538  -46.0258 S.3       10 UNK        -0.2568 
     17 C17        20.9617  -28.0419  -44.7455 C.3       10 UNK        -0.0983 
     18 CA         21.4640  -26.5767  -44.7277 C.3       3 UNK         0.0876 
     19 N          20.3571  -25.6490  -44.4999 N.am      3 UNK        -0.4424 
     20 C          20.2772  -24.3877  -44.9316 C.2       2 UNK         0.4918 
     21 O          21.1561  -23.8357  -45.5965 O.2       2 UNK        -0.4875 
     22 CA         18.9692  -23.6394  -44.5870 C.3       2 UNK         0.0481 
     23 CB         18.9241  -22.2196  -45.1813 C.3       2 UNK        -0.1831 
     24 N          17.7856  -24.3809  -45.0380 N.am      2 UNK        -0.4498 
     25 C          17.2677  -25.4687  -44.4481 C.2       1 UNK         0.5027 
     26 O          17.6886  -25.9031  -43.3745 O.2       1 UNK        -0.4969 
     27 C          22.5639  -26.3785  -43.6617 C.2       3 UNK         0.5005 
     28 O          22.3763  -25.6222  -42.7044 O.2       3 UNK        -0.5279 
     29 N          23.6890  -27.0915  -43.8204 N.am      4 UNK        -0.4463 
     30 CA         24.8905  -27.0479  -42.9711 C.3       4 UNK         0.0283 
     31 CB         26.0594  -27.6862  -43.7464 C.3       4 UNK        -0.1875 
     32 C          24.7368  -27.6593  -41.5562 C.2       4 UNK         0.4949 
     33 O          25.6948  -28.2372  -41.0386 O.2       4 UNK        -0.5039 
     34 N          23.5527  -27.5086  -40.9470 N.am      5 UNK        -0.4663 
     35 CA         23.1733  -27.9114  -39.5877 C.3       5 UNK         0.0242 
     36 CB         23.7246  -26.8834  -38.5736 C.3       5 UNK        -0.1982 
     37 C          23.5506  -29.3721  -39.2725 C.2       5 UNK         0.5017 
     38 O          23.1003  -30.2732  -39.9806 O.2       5 UNK        -0.5012 
     39 N          24.3935  -29.5827  -38.2519 N.am      6 UNK        -0.4439 
     40 CA         24.8675  -30.8867  -37.7793 C.3       6 UNK         0.0297 
     41 CB         25.7931  -30.6795  -36.5699 C.3       6 UNK        -0.2006 
     42 C          25.5679  -31.7511  -38.8451 C.2       6 UNK         0.4892 
     43 O          25.5202  -32.9766  -38.7375 O.2       6 UNK        -0.5089 
     44 N          26.1778  -31.1201  -39.8590 N.am      7 UNK        -0.4243 
     45 CA         26.8075  -31.8140  -40.9847 C.3       7 UNK         0.0196 
     46 CB         27.8353  -30.8816  -41.6465 C.3       7 UNK        -0.2007 
     47 C          25.7929  -32.3233  -42.0252 C.2       7 UNK         0.5020 
     48 O          26.1440  -33.2053  -42.8096 O.2       7 UNK        -0.5147 
     49 N          24.5754  -31.7636  -42.0351 N.am      8 UNK        -0.4734 
     50 CA         23.5197  -32.0900  -42.9951 C.3       8 UNK         0.0238 
     51 CB         22.9491  -30.7845  -43.5662 C.3       8 UNK        -0.1912 
     52 C          22.3931  -32.9251  -42.3713 C.2       8 UNK         0.5038 
     53 O          21.8700  -33.8147  -43.0436 O.2       8 UNK        -0.5046 
     54 N          22.0263  -32.6198  -41.1223 N.am      9 UNK        -0.4200 
     55 CA         20.8749  -33.1984  -40.4133 C.3       9 UNK         0.0839 
     56 C          21.1458  -33.4951  -38.9116 C.2       9 UNK         0.5513 
     57 N          22.3910  -33.5132  -38.4537 N.am      9 UNK        -0.7519 
     58 O          20.2166  -33.7502  -38.1495 O.2       9 UNK        -0.4960 
     59 C59        19.5717  -32.3903  -40.6730 C.3       10 UNK        -0.0876 
     60 S60        19.6983  -30.6249  -40.2167 S.3       10 UNK        -0.2414 
     61 C61        18.0018  -30.0437  -40.5583 C.3       10 UNK         0.0169 
     62 H62        16.1181  -23.9778  -49.0838 H         1 UNK         0.0903 
     63 H63        15.1662  -25.4096  -49.4846 H         1 UNK         0.0903 
     64 H64        14.5573  -24.2474  -48.3051 H         1 UNK         0.0903 
     65 H65        14.7691  -24.9873  -46.2063 H         1 UNK         0.3096 
     66 H66        16.6286  -27.1368  -45.5406 H         1 UNK         0.1121 
     67 H67        14.3519  -25.8059  -43.9942 H         1 UNK         0.0849 
     68 H68        15.3740  -27.0144  -43.2749 H         1 UNK         0.0849 
     69 H69        13.7627  -29.3021  -43.0111 H         1 UNK         0.0865 
     70 H70        13.9116  -30.3127  -44.4242 H         1 UNK         0.0865 
     71 H71        15.5301  -29.6781  -41.5208 H         1 UNK         0.1346 
     72 H72        19.5643  -30.1850  -42.8864 H         1 UNK         0.1412 
     73 H73        16.3960  -29.6848  -45.7189 H         1 UNK         0.1426 
     74 H74        18.6322  -30.4699  -46.4259 H         1 UNK         0.0716 
     75 H75        19.9376  -30.6473  -45.2850 H         1 UNK         0.0716 
     76 H76        20.5606  -28.3107  -43.7683 H         1 UNK         0.0695 
     77 H77        21.7860  -28.7237  -44.9495 H         1 UNK         0.0695 
     78 H78        21.9098  -26.3526  -45.6995 H         1 UNK         0.0983 
     79 H79        19.5836  -26.0021  -43.9468 H         1 UNK         0.3095 
     80 H80        18.9294  -23.5441  -43.5000 H         1 UNK         0.0454 
     81 H81        19.7671  -21.6225  -44.8311 H         1 UNK         0.0851 
     82 H82        18.9661  -22.2356  -46.2711 H         1 UNK         0.0851 
     83 H83        18.0150  -21.6947  -44.8876 H         1 UNK         0.0851 
     84 H84        17.4091  -24.1236  -45.9389 H         1 UNK         0.2976 
     85 H85        23.7503  -27.7020  -44.6223 H         1 UNK         0.3116 
     86 H86        25.1385  -25.9960  -42.8163 H         1 UNK         0.0646 
     87 H87        26.9995  -27.5758  -43.2041 H         1 UNK         0.0847 
     88 H88        26.1994  -27.2147  -44.7192 H         1 UNK         0.0847 
     89 H89        25.9004  -28.7532  -43.9071 H         1 UNK         0.0847 
     90 H90        22.8588  -26.9693  -41.4574 H         1 UNK         0.3040 
     91 H91        22.0835  -27.8722  -39.5451 H         1 UNK         0.1015 
     92 H92        23.3610  -25.8814  -38.8026 H         1 UNK         0.0786 
     93 H93        24.8147  -26.8422  -38.5808 H         1 UNK         0.0786 
     94 H94        23.3993  -27.1097  -37.5571 H         1 UNK         0.0786 
     95 H95        24.7348  -28.7729  -37.7547 H         1 UNK         0.3172 
     96 H96        23.9894  -31.4388  -37.4404 H         1 UNK         0.0595 
     97 H97        25.2791  -30.1658  -35.7572 H         1 UNK         0.0839 
     98 H98        26.6769  -30.0967  -36.8327 H         1 UNK         0.0839 
     99 H99        26.1399  -31.6360  -36.1755 H         1 UNK         0.0839 
    100 H100       26.1322  -30.1084  -39.9133 H         1 UNK         0.2998 
    101 H101       27.3442  -32.6843  -40.6003 H         1 UNK         0.0822 
    102 H102       28.5776  -30.5333  -40.9282 H         1 UNK         0.0787 
    103 H103       28.3727  -31.3976  -42.4432 H         1 UNK         0.0787 
    104 H104       27.3609  -30.0067  -42.0907 H         1 UNK         0.0787 
    105 H105       24.3440  -31.0778  -41.3234 H         1 UNK         0.3055 
    106 H106       23.9284  -32.6675  -43.8276 H         1 UNK         0.1106 
    107 H107       22.5216  -30.1510  -42.7872 H         1 UNK         0.0828 
    108 H108       23.7200  -30.2120  -44.0810 H         1 UNK         0.0828 
    109 H109       22.1615  -30.9953  -44.2901 H         1 UNK         0.0828 
    110 H110       22.4683  -31.8325  -40.6516 H         1 UNK         0.2931 
    111 H111       20.7028  -34.1948  -40.8240 H         1 UNK         0.0412 
    112 H112       22.5489  -33.7277  -37.4821 H         1 UNK         0.3472 
    113 H113       23.1777  -33.3575  -39.0655 H         1 UNK         0.3472 
    114 H114       18.7274  -32.8361  -40.1442 H         1 UNK         0.0970 
    115 H115       19.3171  -32.4546  -41.7314 H         1 UNK         0.0970 
    116 H116       17.3036  -30.6890  -40.0230 H         1 UNK         0.0612 
    117 H117       17.8966  -29.0490  -40.1232 H         1 UNK         0.0612 
@<TRIPOS>BOND
     1    1    2 1    
     2    1   62 1    
     3    1   63 1    
     4    1   64 1    
     5    2    3 2    
     6    2    4 am   BACKBONE|DICT|INTERRES
     7    4    5 1    
     8    4   65 1    
     9    5    6 1    
    10    5   25 1    
    11    5   66 1    
    12    6    7 1    
    13    6   67 1    
    14    6   68 1    
    15    7    8 1    
    16    8    9 1    
    17    8   69 1    
    18    8   70 1    
    19    9   10 ar   
    20    9   14 ar   
    21   10   11 ar   
    22   10   71 1    
    23   11   12 ar   
    24   11   61 1    
    25   12   13 ar   
    26   12   72 1    
    27   13   14 ar   
    28   13   15 1    
    29   14   73 1    
    30   15   16 1    
    31   15   74 1    
    32   15   75 1    
    33   16   17 1    
    34   17   18 1    
    35   17   76 1    
    36   17   77 1    
    37   18   19 1    
    38   18   27 1    
    39   18   78 1    
    40   19   20 am   BACKBONE|DICT|INTERRES
    41   19   79 1    
    42   20   21 2    
    43   20   22 1    
    44   22   23 1    
    45   22   24 1    
    46   22   80 1    
    47   23   81 1    
    48   23   82 1    
    49   23   83 1    
    50   24   25 am   BACKBONE|DICT|INTERRES
    51   24   84 1    
    52   25   26 2    
    53   27   28 2    
    54   27   29 am   BACKBONE|DICT|INTERRES
    55   29   30 1    
    56   29   85 1    
    57   30   31 1    
    58   30   32 1    
    59   30   86 1    
    60   31   87 1    
    61   31   88 1    
    62   31   89 1    
    63   32   33 2    
    64   32   34 am   BACKBONE|DICT|INTERRES
    65   34   35 1    
    66   34   90 1    
    67   35   36 1    
    68   35   37 1    
    69   35   91 1    
    70   36   92 1    
    71   36   93 1    
    72   36   94 1    
    73   37   38 2    
    74   37   39 am   BACKBONE|DICT|INTERRES
    75   39   40 1    
    76   39   95 1    
    77   40   41 1    
    78   40   42 1    
    79   40   96 1    
    80   41   97 1    
    81   41   98 1    
    82   41   99 1    
    83   42   43 2    
    84   42   44 am   BACKBONE|DICT|INTERRES
    85   44   45 1    
    86   44  100 1    
    87   45   46 1    
    88   45   47 1    
    89   45  101 1    
    90   46  102 1    
    91   46  103 1    
    92   46  104 1    
    93   47   48 2    
    94   47   49 am   BACKBONE|DICT|INTERRES
    95   49   50 1    
    96   49  105 1    
    97   50   51 1    
    98   50   52 1    
    99   50  106 1    
   100   51  107 1    
   101   51  108 1    
   102   51  109 1    
   103   52   53 2    
   104   52   54 am   BACKBONE|DICT|INTERRES
   105   54   55 1    
   106   54  110 1    
   107   55   56 1    
   108   55   59 1    
   109   55  111 1    
   110   56   57 am   BACKBONE|DICT|INTERRES
   111   56   58 2    
   112   57  112 1    
   113   57  113 1    
   114   59   60 1    
   115   59  114 1    
   116   59  115 1    
   117   60   61 1    
   118   61  116 1    
   119   61  117 1    
@<TRIPOS>SUBSTRUCTURE
     1 UNK         1 GROUP             0       ****    0 ROOT    
