@<TRIPOS>MOLECULE
3R8
117   119    1
SMALL
USER_CHARGES


@<TRIPOS>ATOM
      1 CA         21.2594  -25.1630  -49.1265 C.3       0 UNK        -0.2013 
      2 C          21.6661  -26.2119  -48.1027 C.2       0 UNK         0.4866 
      3 O          22.8316  -26.2655  -47.7104 O.2       0 UNK        -0.5176 
      4 N          20.7139  -27.0465  -47.6652 N.am      1 UNK        -0.4884 
      5 CA         20.9196  -28.1083  -46.6701 C.3       1 UNK         0.0853 
      6 C6         19.8403  -29.2094  -46.7806 C.3       10 UNK        -0.0849 
      7 S7         18.1190  -28.6171  -46.6392 S.3       10 UNK        -0.2776 
      8 C8         17.2913  -30.1257  -46.0415 C.3       10 UNK         0.0316 
      9 C9         17.3507  -30.2400  -44.5249 C.ar      10 UNK        -0.0863 
     10 C10        18.4055  -30.9074  -43.8953 C.ar      10 UNK        -0.1009 
     11 C11        18.4512  -31.0144  -42.5026 C.ar      10 UNK        -0.0712 
     12 C12        17.4161  -30.4684  -41.7361 C.ar      10 UNK        -0.0894 
     13 C13        16.3528  -29.8021  -42.3551 C.ar      10 UNK        -0.0745 
     14 C14        16.3297  -29.6881  -43.7480 C.ar      10 UNK        -0.0972 
     15 C15        15.2143  -29.2149  -41.5309 C.3       10 UNK         0.0209 
     16 S16        15.7458  -27.8565  -40.4396 S.3       10 UNK        -0.2568 
     17 C17        16.5463  -26.6837  -41.5917 C.3       10 UNK        -0.0983 
     18 CA         18.0479  -26.4985  -41.2443 C.3       3 UNK         0.0876 
     19 N          18.8315  -26.0590  -42.4090 N.am      3 UNK        -0.4424 
     20 C          20.1620  -26.1682  -42.5355 C.2       2 UNK         0.4918 
     21 O          20.8849  -26.7082  -41.6933 O.2       2 UNK        -0.4875 
     22 CA         20.7907  -25.5256  -43.7823 C.3       2 UNK         0.0481 
     23 CB         22.2778  -25.1734  -43.5674 C.3       2 UNK        -0.1831 
     24 N          20.6328  -26.3367  -44.9911 N.am      2 UNK        -0.4498 
     25 C          21.0758  -27.5837  -45.2246 C.2       1 UNK         0.5027 
     26 O          21.6212  -28.3040  -44.3852 O.2       1 UNK        -0.4969 
     27 C          18.2836  -25.5804  -40.0148 C.2       3 UNK         0.5005 
     28 O          17.3721  -24.8948  -39.5472 O.2       3 UNK        -0.5279 
     29 N          19.5288  -25.5768  -39.5357 N.am      4 UNK        -0.4463 
     30 CA         20.0560  -24.8615  -38.3781 C.3       4 UNK         0.0283 
     31 CB         20.0918  -23.3388  -38.6153 C.3       4 UNK        -0.1875 
     32 C          21.4545  -25.4145  -38.0832 C.2       4 UNK         0.4949 
     33 O          21.7167  -25.8403  -36.9590 O.2       4 UNK        -0.5039 
     34 N          22.3090  -25.4459  -39.1178 N.am      5 UNK        -0.4663 
     35 CA         23.6291  -26.0831  -39.0831 C.3       5 UNK         0.0242 
     36 CB         24.5035  -25.5006  -40.2057 C.3       5 UNK        -0.1982 
     37 C          23.5495  -27.6146  -39.2133 C.2       5 UNK         0.5017 
     38 O          24.4216  -28.3045  -38.6855 O.2       5 UNK        -0.5012 
     39 N          22.5158  -28.1039  -39.9182 N.am      6 UNK        -0.4439 
     40 CA         22.2295  -29.5027  -40.2522 C.3       6 UNK         0.0297 
     41 CB         21.9799  -30.3371  -38.9778 C.3       6 UNK        -0.2006 
     42 C          23.3016  -30.1026  -41.1809 C.2       6 UNK         0.4892 
     43 O          23.6894  -31.2598  -41.0124 O.2       6 UNK        -0.5089 
     44 N          23.7647  -29.2888  -42.1411 N.am      7 UNK        -0.4243 
     45 CA         24.9201  -29.5519  -43.0022 C.3       7 UNK         0.0196 
     46 CB         25.2036  -28.3119  -43.8660 C.3       7 UNK        -0.2007 
     47 C          24.7891  -30.8069  -43.8782 C.2       7 UNK         0.5020 
     48 O          25.7745  -31.5258  -44.0460 O.2       7 UNK        -0.5147 
     49 N          23.5857  -31.0575  -44.4110 N.am      8 UNK        -0.4734 
     50 CA         23.3006  -32.2512  -45.2160 C.3       8 UNK         0.0238 
     51 CB         22.1047  -31.9778  -46.1377 C.3       8 UNK        -0.1912 
     52 C          23.0320  -33.5051  -44.3660 C.2       8 UNK         0.5038 
     53 O          23.2238  -34.6146  -44.8658 O.2       8 UNK        -0.5046 
     54 N          22.5710  -33.3144  -43.1238 N.am      9 UNK        -0.4200 
     55 CA         22.2397  -34.3973  -42.1864 C.3       9 UNK         0.0839 
     56 C          23.4857  -34.9276  -41.4291 C.2       9 UNK         0.5513 
     57 N          24.4341  -34.0748  -41.0619 N.am      9 UNK        -0.7519 
     58 O          23.5928  -36.1248  -41.1769 O.2       9 UNK        -0.4960 
     59 C59        21.1253  -33.9888  -41.1891 C.3       10 UNK        -0.0876 
     60 S60        19.5672  -33.5050  -42.0112 S.3       10 UNK        -0.2414 
     61 C61        19.6342  -31.6970  -41.8337 C.3       10 UNK         0.0169 
     62 H62        21.4495  -24.1637  -48.7358 H         1 UNK         0.0903 
     63 H63        21.8391  -25.2872  -50.0408 H         1 UNK         0.0903 
     64 H64        20.2025  -25.2315  -49.3837 H         1 UNK         0.0903 
     65 H65        19.7707  -26.9682  -48.0217 H         1 UNK         0.3096 
     66 H66        21.8765  -28.5818  -46.9027 H         1 UNK         0.1121 
     67 H67        20.0187  -29.9701  -46.0252 H         1 UNK         0.0849 
     68 H68        19.9390  -29.7201  -47.7398 H         1 UNK         0.0849 
     69 H69        16.2503  -30.1041  -46.3679 H         1 UNK         0.0865 
     70 H70        17.7312  -31.0075  -46.5103 H         1 UNK         0.0865 
     71 H71        19.1937  -31.3524  -44.4831 H         1 UNK         0.1346 
     72 H72        17.4388  -30.5518  -40.6581 H         1 UNK         0.1412 
     73 H73        15.5114  -29.1724  -44.2322 H         1 UNK         0.1426 
     74 H74        14.7742  -30.0043  -40.9201 H         1 UNK         0.0716 
     75 H75        14.4147  -28.8493  -42.1771 H         1 UNK         0.0716 
     76 H76        16.4404  -27.0622  -42.6086 H         1 UNK         0.0695 
     77 H77        16.0055  -25.7358  -41.5806 H         1 UNK         0.0695 
     78 H78        18.4360  -27.4842  -40.9743 H         1 UNK         0.0983 
     79 H79        18.3157  -25.5843  -43.1355 H         1 UNK         0.3095 
     80 H80        20.2593  -24.5903  -43.9640 H         1 UNK         0.0454 
     81 H81        22.4029  -24.5136  -42.7083 H         1 UNK         0.0851 
     82 H82        22.8866  -26.0604  -43.3904 H         1 UNK         0.0851 
     83 H83        22.6905  -24.6571  -44.4340 H         1 UNK         0.0851 
     84 H84        20.1806  -25.8743  -45.7669 H         1 UNK         0.2976 
     85 H85        20.1952  -26.1609  -40.0309 H         1 UNK         0.3116 
     86 H86        19.4159  -25.0737  -37.5193 H         1 UNK         0.0646 
     87 H87        20.5585  -22.8251  -37.7738 H         1 UNK         0.0847 
     88 H88        19.0880  -22.9280  -38.7227 H         1 UNK         0.0847 
     89 H89        20.6552  -23.0777  -39.5115 H         1 UNK         0.0847 
     90 H90        22.0255  -25.0407  -39.9983 H         1 UNK         0.3040 
     91 H91        24.1036  -25.8562  -38.1253 H         1 UNK         0.1015 
     92 H92        24.6067  -24.4196  -40.1095 H         1 UNK         0.0786 
     93 H93        24.0928  -25.7141  -41.1926 H         1 UNK         0.0786 
     94 H94        25.5083  -25.9246  -40.1749 H         1 UNK         0.0786 
     95 H95        21.9157  -27.4359  -40.3949 H         1 UNK         0.3172 
     96 H96        21.3022  -29.4849  -40.8254 H         1 UNK         0.0595 
     97 H97        21.2285  -29.8716  -38.3402 H         1 UNK         0.0839 
     98 H98        22.8891  -30.4615  -38.3891 H         1 UNK         0.0839 
     99 H99        21.6201  -31.3347  -39.2224 H         1 UNK         0.0839 
    100 H100       23.3213  -28.3876  -42.2487 H         1 UNK         0.2998 
    101 H101       25.7774  -29.7083  -42.3439 H         1 UNK         0.0822 
    102 H102       26.0818  -28.4667  -44.4943 H         1 UNK         0.0787 
    103 H103       24.3678  -28.0792  -44.5272 H         1 UNK         0.0787 
    104 H104       25.3987  -27.4340  -43.2498 H         1 UNK         0.0787 
    105 H105       22.8362  -30.3955  -44.2513 H         1 UNK         0.3055 
    106 H106       24.1667  -32.4652  -45.8472 H         1 UNK         0.1106 
    107 H107       22.2647  -31.0902  -46.7490 H         1 UNK         0.0828 
    108 H108       21.9421  -32.8138  -46.8195 H         1 UNK         0.0828 
    109 H109       21.1876  -31.8482  -45.5658 H         1 UNK         0.0828 
    110 H110       22.5288  -32.3747  -42.7601 H         1 UNK         0.2931 
    111 H111       21.8470  -35.2352  -42.7666 H         1 UNK         0.0412 
    112 H112       25.2471  -34.4162  -40.5747 H         1 UNK         0.3472 
    113 H113       24.3037  -33.0755  -41.1923 H         1 UNK         0.3472 
    114 H114       21.4709  -33.1827  -40.5424 H         1 UNK         0.0970 
    115 H115       20.8939  -34.8236  -40.5247 H         1 UNK         0.0970 
    116 H116       19.6689  -31.4433  -40.7735 H         1 UNK         0.0612 
    117 H117       20.5583  -31.3258  -42.2779 H         1 UNK         0.0612 
@<TRIPOS>BOND
     1    1    2 1    
     2    1   62 1    
     3    1   63 1    
     4    1   64 1    
     5    2    3 2    
     6    2    4 am   BACKBONE|DICT|INTERRES
     7    4    5 1    
     8    4   65 1    
     9    5    6 1    
    10    5   25 1    
    11    5   66 1    
    12    6    7 1    
    13    6   67 1    
    14    6   68 1    
    15    7    8 1    
    16    8    9 1    
    17    8   69 1    
    18    8   70 1    
    19    9   10 ar   
    20    9   14 ar   
    21   10   11 ar   
    22   10   71 1    
    23   11   12 ar   
    24   11   61 1    
    25   12   13 ar   
    26   12   72 1    
    27   13   14 ar   
    28   13   15 1    
    29   14   73 1    
    30   15   16 1    
    31   15   74 1    
    32   15   75 1    
    33   16   17 1    
    34   17   18 1    
    35   17   76 1    
    36   17   77 1    
    37   18   19 1    
    38   18   27 1    
    39   18   78 1    
    40   19   20 am   BACKBONE|DICT|INTERRES
    41   19   79 1    
    42   20   21 2    
    43   20   22 1    
    44   22   23 1    
    45   22   24 1    
    46   22   80 1    
    47   23   81 1    
    48   23   82 1    
    49   23   83 1    
    50   24   25 am   BACKBONE|DICT|INTERRES
    51   24   84 1    
    52   25   26 2    
    53   27   28 2    
    54   27   29 am   BACKBONE|DICT|INTERRES
    55   29   30 1    
    56   29   85 1    
    57   30   31 1    
    58   30   32 1    
    59   30   86 1    
    60   31   87 1    
    61   31   88 1    
    62   31   89 1    
    63   32   33 2    
    64   32   34 am   BACKBONE|DICT|INTERRES
    65   34   35 1    
    66   34   90 1    
    67   35   36 1    
    68   35   37 1    
    69   35   91 1    
    70   36   92 1    
    71   36   93 1    
    72   36   94 1    
    73   37   38 2    
    74   37   39 am   BACKBONE|DICT|INTERRES
    75   39   40 1    
    76   39   95 1    
    77   40   41 1    
    78   40   42 1    
    79   40   96 1    
    80   41   97 1    
    81   41   98 1    
    82   41   99 1    
    83   42   43 2    
    84   42   44 am   BACKBONE|DICT|INTERRES
    85   44   45 1    
    86   44  100 1    
    87   45   46 1    
    88   45   47 1    
    89   45  101 1    
    90   46  102 1    
    91   46  103 1    
    92   46  104 1    
    93   47   48 2    
    94   47   49 am   BACKBONE|DICT|INTERRES
    95   49   50 1    
    96   49  105 1    
    97   50   51 1    
    98   50   52 1    
    99   50  106 1    
   100   51  107 1    
   101   51  108 1    
   102   51  109 1    
   103   52   53 2    
   104   52   54 am   BACKBONE|DICT|INTERRES
   105   54   55 1    
   106   54  110 1    
   107   55   56 1    
   108   55   59 1    
   109   55  111 1    
   110   56   57 am   BACKBONE|DICT|INTERRES
   111   56   58 2    
   112   57  112 1    
   113   57  113 1    
   114   59   60 1    
   115   59  114 1    
   116   59  115 1    
   117   60   61 1    
   118   61  116 1    
   119   61  117 1    
@<TRIPOS>SUBSTRUCTURE
     1 UNK         1 GROUP             0       ****    0 ROOT    
