@<TRIPOS>MOLECULE
3R8
117   119    1
SMALL
USER_CHARGES


@<TRIPOS>ATOM
      1 CA         16.4944  -22.6317  -41.1618 C.3       0 UNK        -0.2013 
      2 C          17.1743  -23.9407  -40.7686 C.2       0 UNK         0.4866 
      3 O          17.6714  -24.0483  -39.6490 O.2       0 UNK        -0.5176 
      4 N          17.2121  -24.9650  -41.6316 N.am      1 UNK        -0.4884 
      5 CA         16.7261  -24.9920  -43.0167 C.3       1 UNK         0.0853 
      6 C6         16.1566  -26.3935  -43.3765 C.3       10 UNK        -0.0849 
      7 S7         17.4008  -27.7276  -43.3074 S.3       10 UNK        -0.2776 
      8 C8         16.8967  -28.7915  -44.6935 C.3       10 UNK         0.0316 
      9 C9         18.0396  -29.7182  -45.0685 C.ar      10 UNK        -0.0863 
     10 C10        18.1407  -30.9927  -44.5044 C.ar      10 UNK        -0.1009 
     11 C11        19.2193  -31.8218  -44.8248 C.ar      10 UNK        -0.0712 
     12 C12        20.2113  -31.3543  -45.6946 C.ar      10 UNK        -0.0894 
     13 C13        20.1281  -30.0783  -46.2651 C.ar      10 UNK        -0.0745 
     14 C14        19.0160  -29.2794  -45.9653 C.ar      10 UNK        -0.0972 
     15 C15        21.2443  -29.6225  -47.2112 C.3       10 UNK         0.0209 
     16 S16        21.1747  -27.8699  -47.7335 S.3       10 UNK        -0.2568 
     17 C17        22.3541  -27.0062  -46.6279 C.3       10 UNK        -0.0983 
     18 CA         21.7665  -26.2949  -45.3669 C.3       3 UNK         0.0876 
     19 N          20.3973  -25.7897  -45.5145 N.am      3 UNK        -0.4424 
     20 C          20.0602  -24.7418  -46.2748 C.2       2 UNK         0.4918 
     21 O          20.8747  -24.0676  -46.9067 O.2       2 UNK        -0.4875 
     22 CA         18.5645  -24.3813  -46.3758 C.3       2 UNK         0.0481 
     23 CB         17.9906  -24.9079  -47.7016 C.3       2 UNK        -0.1831 
     24 N          17.7212  -24.8602  -45.2737 N.am      2 UNK        -0.4498 
     25 C          17.8011  -24.4550  -43.9977 C.2       1 UNK         0.5027 
     26 O          18.6652  -23.6713  -43.5976 O.2       1 UNK        -0.4969 
     27 C          21.9157  -27.1444  -44.0977 C.2       3 UNK         0.5005 
     28 O          22.9234  -27.0150  -43.3984 O.2       3 UNK        -0.5279 
     29 N          20.9356  -28.0220  -43.8348 N.am      4 UNK        -0.4463 
     30 CA         20.8537  -28.9537  -42.7010 C.3       4 UNK         0.0283 
     31 CB         20.6341  -28.1823  -41.3826 C.3       4 UNK        -0.1875 
     32 C          22.0345  -29.9401  -42.6010 C.2       4 UNK         0.4949 
     33 O          22.2589  -30.4918  -41.5256 O.2       4 UNK        -0.5039 
     34 N          22.7930  -30.1073  -43.6963 N.am      5 UNK        -0.4663 
     35 CA         24.0676  -30.8304  -43.7954 C.3       5 UNK         0.0242 
     36 CB         23.8263  -32.3520  -43.7548 C.3       5 UNK        -0.1982 
     37 C          25.1024  -30.3519  -42.7543 C.2       5 UNK         0.5017 
     38 O          25.7726  -31.1757  -42.1313 O.2       5 UNK        -0.5012 
     39 N          25.1741  -29.0244  -42.5562 N.am      6 UNK        -0.4439 
     40 CA         25.9600  -28.3317  -41.5254 C.3       6 UNK         0.0297 
     41 CB         27.4763  -28.5209  -41.7476 C.3       6 UNK        -0.2006 
     42 C          25.4987  -28.7039  -40.1010 C.2       6 UNK         0.4892 
     43 O          26.3234  -28.9960  -39.2340 O.2       6 UNK        -0.5089 
     44 N          24.1713  -28.6921  -39.9127 N.am      7 UNK        -0.4243 
     45 CA         23.4089  -29.0107  -38.6982 C.3       7 UNK         0.0196 
     46 CB         23.8383  -28.1288  -37.5065 C.3       7 UNK        -0.2007 
     47 C          23.3617  -30.5069  -38.3301 C.2       7 UNK         0.5020 
     48 O          22.7731  -30.8434  -37.3016 O.2       7 UNK        -0.5147 
     49 N          23.9166  -31.3932  -39.1696 N.am      8 UNK        -0.4734 
     50 CA         23.8559  -32.8482  -38.9889 C.3       8 UNK         0.0238 
     51 CB         24.8541  -33.5327  -39.9345 C.3       8 UNK        -0.1912 
     52 C          22.4408  -33.4306  -39.1688 C.2       8 UNK         0.5038 
     53 O          22.1350  -34.4493  -38.5472 O.2       8 UNK        -0.5046 
     54 N          21.6009  -32.7719  -39.9793 N.am      9 UNK        -0.4200 
     55 CA         20.1687  -33.0798  -40.1343 C.3       9 UNK         0.0839 
     56 C          19.2820  -32.5463  -38.9695 C.2       9 UNK         0.5513 
     57 N          19.8119  -31.8195  -37.9912 N.am      9 UNK        -0.7519 
     58 O          18.0820  -32.8073  -38.9472 O.2       9 UNK        -0.4960 
     59 C59        19.6146  -32.6240  -41.5126 C.3       10 UNK        -0.0876 
     60 S60        20.4974  -33.3951  -42.9106 S.3       10 UNK        -0.2414 
     61 C61        19.2939  -33.2369  -44.2656 C.3       10 UNK         0.0169 
     62 H62        16.6164  -21.8874  -40.3750 H         1 UNK         0.0903 
     63 H63        16.9262  -22.2192  -42.0727 H         1 UNK         0.0903 
     64 H64        15.4258  -22.7820  -41.3123 H         1 UNK         0.0903 
     65 H65        17.6820  -25.8120  -41.3450 H         1 UNK         0.3096 
     66 H66        15.8888  -24.2981  -43.1066 H         1 UNK         0.1121 
     67 H67        15.3612  -26.6500  -42.6746 H         1 UNK         0.0849 
     68 H68        15.6713  -26.3761  -44.3534 H         1 UNK         0.0849 
     69 H69        16.0103  -29.3629  -44.4133 H         1 UNK         0.0865 
     70 H70        16.6164  -28.1857  -45.5565 H         1 UNK         0.0865 
     71 H71        17.3799  -31.3386  -43.8180 H         1 UNK         0.1346 
     72 H72        21.0495  -31.9949  -45.9332 H         1 UNK         0.1412 
     73 H73        18.9033  -28.3010  -46.4093 H         1 UNK         0.1426 
     74 H74        21.1863  -30.2355  -48.1115 H         1 UNK         0.0716 
     75 H75        22.2176  -29.8320  -46.7662 H         1 UNK         0.0716 
     76 H76        22.8199  -26.2412  -47.2510 H         1 UNK         0.0695 
     77 H77        23.1748  -27.6785  -46.3701 H         1 UNK         0.0695 
     78 H78        22.3939  -25.4205  -45.1765 H         1 UNK         0.0983 
     79 H79        19.6802  -26.2337  -44.9616 H         1 UNK         0.3095 
     80 H80        18.4978  -23.2915  -46.3886 H         1 UNK         0.0454 
     81 H81        16.9614  -24.5809  -47.8499 H         1 UNK         0.0851 
     82 H82        18.0095  -25.9977  -47.7457 H         1 UNK         0.0851 
     83 H83        18.5685  -24.5405  -48.5510 H         1 UNK         0.0851 
     84 H84        16.9877  -25.5061  -45.5251 H         1 UNK         0.2976 
     85 H85        20.1964  -28.1374  -44.5149 H         1 UNK         0.3116 
     86 H86        19.9686  -29.5638  -42.8742 H         1 UNK         0.0646 
     87 H87        21.5057  -27.5879  -41.1092 H         1 UNK         0.0847 
     88 H88        19.7832  -27.5062  -41.4555 H         1 UNK         0.0847 
     89 H89        20.4281  -28.8650  -40.5573 H         1 UNK         0.0847 
     90 H90        22.5070  -29.6058  -44.5232 H         1 UNK         0.3040 
     91 H91        24.4923  -30.5907  -44.7715 H         1 UNK         0.1015 
     92 H92        24.7570  -32.9054  -43.8848 H         1 UNK         0.0786 
     93 H93        23.1498  -32.6659  -44.5493 H         1 UNK         0.0786 
     94 H94        23.3892  -32.6618  -42.8064 H         1 UNK         0.0786 
     95 H95        24.5373  -28.4335  -43.0817 H         1 UNK         0.3172 
     96 H96        25.7442  -27.2689  -41.6453 H         1 UNK         0.0595 
     97 H97        27.7884  -29.5528  -41.5839 H         1 UNK         0.0839 
     98 H98        28.0497  -27.8988  -41.0593 H         1 UNK         0.0839 
     99 H99        27.7681  -28.2380  -42.7588 H         1 UNK         0.0839 
    100 H100       23.6019  -28.4993  -40.7251 H         1 UNK         0.2998 
    101 H101       22.3773  -28.7464  -38.9326 H         1 UNK         0.0822 
    102 H102       23.1527  -28.2470  -36.6665 H         1 UNK         0.0787 
    103 H103       23.8403  -27.0721  -37.7739 H         1 UNK         0.0787 
    104 H104       24.8340  -28.3878  -37.1460 H         1 UNK         0.0787 
    105 H105       24.3402  -31.0518  -40.0227 H         1 UNK         0.3055 
    106 H106       24.1625  -33.0664  -37.9634 H         1 UNK         0.1106 
    107 H107       25.8671  -33.1604  -39.7811 H         1 UNK         0.0828 
    108 H108       24.8745  -34.6102  -39.7661 H         1 UNK         0.0828 
    109 H109       24.5952  -33.3729  -40.9800 H         1 UNK         0.0828 
    110 H110       21.9334  -31.9447  -40.4714 H         1 UNK         0.2931 
    111 H111       20.0647  -34.1660  -40.0997 H         1 UNK         0.0412 
    112 H112       19.2162  -31.4921  -37.2473 H         1 UNK         0.3472 
    113 H113       20.8021  -31.6161  -37.9666 H         1 UNK         0.3472 
    114 H114       18.5575  -32.8821  -41.5978 H         1 UNK         0.0970 
    115 H115       19.6693  -31.5402  -41.6087 H         1 UNK         0.0970 
    116 H116       19.5859  -33.9187  -45.0656 H         1 UNK         0.0612 
    117 H117       18.3134  -33.5747  -43.9267 H         1 UNK         0.0612 
@<TRIPOS>BOND
     1    1    2 1    
     2    1   62 1    
     3    1   63 1    
     4    1   64 1    
     5    2    3 2    
     6    2    4 am   BACKBONE|DICT|INTERRES
     7    4    5 1    
     8    4   65 1    
     9    5    6 1    
    10    5   25 1    
    11    5   66 1    
    12    6    7 1    
    13    6   67 1    
    14    6   68 1    
    15    7    8 1    
    16    8    9 1    
    17    8   69 1    
    18    8   70 1    
    19    9   10 ar   
    20    9   14 ar   
    21   10   11 ar   
    22   10   71 1    
    23   11   12 ar   
    24   11   61 1    
    25   12   13 ar   
    26   12   72 1    
    27   13   14 ar   
    28   13   15 1    
    29   14   73 1    
    30   15   16 1    
    31   15   74 1    
    32   15   75 1    
    33   16   17 1    
    34   17   18 1    
    35   17   76 1    
    36   17   77 1    
    37   18   19 1    
    38   18   27 1    
    39   18   78 1    
    40   19   20 am   BACKBONE|DICT|INTERRES
    41   19   79 1    
    42   20   21 2    
    43   20   22 1    
    44   22   23 1    
    45   22   24 1    
    46   22   80 1    
    47   23   81 1    
    48   23   82 1    
    49   23   83 1    
    50   24   25 am   BACKBONE|DICT|INTERRES
    51   24   84 1    
    52   25   26 2    
    53   27   28 2    
    54   27   29 am   BACKBONE|DICT|INTERRES
    55   29   30 1    
    56   29   85 1    
    57   30   31 1    
    58   30   32 1    
    59   30   86 1    
    60   31   87 1    
    61   31   88 1    
    62   31   89 1    
    63   32   33 2    
    64   32   34 am   BACKBONE|DICT|INTERRES
    65   34   35 1    
    66   34   90 1    
    67   35   36 1    
    68   35   37 1    
    69   35   91 1    
    70   36   92 1    
    71   36   93 1    
    72   36   94 1    
    73   37   38 2    
    74   37   39 am   BACKBONE|DICT|INTERRES
    75   39   40 1    
    76   39   95 1    
    77   40   41 1    
    78   40   42 1    
    79   40   96 1    
    80   41   97 1    
    81   41   98 1    
    82   41   99 1    
    83   42   43 2    
    84   42   44 am   BACKBONE|DICT|INTERRES
    85   44   45 1    
    86   44  100 1    
    87   45   46 1    
    88   45   47 1    
    89   45  101 1    
    90   46  102 1    
    91   46  103 1    
    92   46  104 1    
    93   47   48 2    
    94   47   49 am   BACKBONE|DICT|INTERRES
    95   49   50 1    
    96   49  105 1    
    97   50   51 1    
    98   50   52 1    
    99   50  106 1    
   100   51  107 1    
   101   51  108 1    
   102   51  109 1    
   103   52   53 2    
   104   52   54 am   BACKBONE|DICT|INTERRES
   105   54   55 1    
   106   54  110 1    
   107   55   56 1    
   108   55   59 1    
   109   55  111 1    
   110   56   57 am   BACKBONE|DICT|INTERRES
   111   56   58 2    
   112   57  112 1    
   113   57  113 1    
   114   59   60 1    
   115   59  114 1    
   116   59  115 1    
   117   60   61 1    
   118   61  116 1    
   119   61  117 1    
@<TRIPOS>SUBSTRUCTURE
     1 UNK         1 GROUP             0       ****    0 ROOT    
