@<TRIPOS>MOLECULE
3R8
117   119    1
SMALL
USER_CHARGES


@<TRIPOS>ATOM
      1 CA         14.3185  -22.9762  -44.6768 C.3       0 UNK        -0.2013 
      2 C          15.3965  -24.0373  -44.8344 C.2       0 UNK         0.4866 
      3 O          15.8435  -24.2984  -45.9519 O.2       0 UNK        -0.5176 
      4 N          15.8330  -24.6453  -43.7244 N.am      1 UNK        -0.4884 
      5 CA         16.8392  -25.7143  -43.6660 C.3       1 UNK         0.0853 
      6 C6         16.6992  -26.5588  -42.3726 C.3       10 UNK        -0.0849 
      7 S7         15.0809  -27.3827  -42.1691 S.3       10 UNK        -0.2776 
      8 C8         15.0347  -28.6138  -43.5224 C.3       10 UNK         0.0316 
      9 C9         16.3563  -29.3399  -43.7551 C.ar      10 UNK        -0.0863 
     10 C10        16.9956  -30.0230  -42.7154 C.ar      10 UNK        -0.1009 
     11 C11        18.2280  -30.6471  -42.9306 C.ar      10 UNK        -0.0712 
     12 C12        18.8124  -30.6058  -44.2002 C.ar      10 UNK        -0.0894 
     13 C13        18.1702  -29.9525  -45.2558 C.ar      10 UNK        -0.0745 
     14 C14        16.9410  -29.3258  -45.0249 C.ar      10 UNK        -0.0972 
     15 C15        18.7826  -29.9602  -46.6516 C.3       10 UNK         0.0209 
     16 S16        18.8911  -28.2884  -47.3704 S.3       10 UNK        -0.2568 
     17 C17        20.6932  -28.0144  -47.5119 C.3       10 UNK        -0.0983 
     18 CA         21.3170  -27.1775  -46.3625 C.3       3 UNK         0.0876 
     19 N          20.4887  -26.0174  -46.0328 N.am      3 UNK        -0.4424 
     20 C          20.9150  -24.8436  -45.5551 C.2       2 UNK         0.4918 
     21 O          22.0978  -24.5738  -45.3489 O.2       2 UNK        -0.4875 
     22 CA         19.8253  -23.8010  -45.2356 C.3       2 UNK         0.0481 
     23 CB         19.6515  -22.8289  -46.4126 C.3       2 UNK        -0.1831 
     24 N          18.5221  -24.3912  -44.9001 N.am      2 UNK        -0.4498 
     25 C          18.2810  -25.1776  -43.8420 C.2       1 UNK         0.5027 
     26 O          19.1584  -25.4859  -43.0343 O.2       1 UNK        -0.4969 
     27 C          21.6973  -28.0426  -45.1386 C.2       3 UNK         0.5005 
     28 O          22.4437  -29.0089  -45.3114 O.2       3 UNK        -0.5279 
     29 N          21.2370  -27.6975  -43.9243 N.am      4 UNK        -0.4463 
     30 CA         21.5940  -28.3732  -42.6698 C.3       4 UNK         0.0283 
     31 CB         20.5121  -28.0899  -41.6123 C.3       4 UNK        -0.1875 
     32 C          23.0012  -27.9733  -42.1801 C.2       4 UNK         0.4949 
     33 O          23.1432  -27.4265  -41.0842 O.2       4 UNK        -0.5039 
     34 N          24.0187  -28.2393  -43.0098 N.am      5 UNK        -0.4663 
     35 CA         25.4338  -27.9409  -42.7724 C.3       5 UNK         0.0242 
     36 CB         26.2576  -28.4078  -43.9836 C.3       5 UNK        -0.1982 
     37 C          25.9414  -28.5908  -41.4752 C.2       5 UNK         0.5017 
     38 O          25.9531  -29.8193  -41.3794 O.2       5 UNK        -0.5012 
     39 N          26.2769  -27.7522  -40.4828 N.am      6 UNK        -0.4439 
     40 CA         26.6770  -28.1132  -39.1134 C.3       6 UNK         0.0297 
     41 CB         28.0656  -28.7878  -39.1208 C.3       6 UNK        -0.2006 
     42 C          25.6263  -28.9514  -38.3487 C.2       6 UNK         0.4892 
     43 O          25.9878  -29.6581  -37.4066 O.2       6 UNK        -0.5089 
     44 N          24.3564  -28.8781  -38.7827 N.am      7 UNK        -0.4243 
     45 CA         23.2123  -29.6897  -38.3502 C.3       7 UNK         0.0196 
     46 CB         22.8402  -29.3854  -36.8837 C.3       7 UNK        -0.2007 
     47 C          23.3755  -31.2023  -38.6180 C.2       7 UNK         0.5020 
     48 O          22.6652  -32.0030  -38.0067 O.2       7 UNK        -0.5147 
     49 N          24.2752  -31.5885  -39.5363 N.am      8 UNK        -0.4734 
     50 CA         24.5697  -32.9796  -39.8962 C.3       8 UNK         0.0238 
     51 CB         26.0053  -33.0611  -40.4480 C.3       8 UNK        -0.1912 
     52 C          23.5229  -33.5443  -40.8753 C.2       8 UNK         0.5038 
     53 O          23.8574  -33.8956  -42.0087 O.2       8 UNK        -0.5046 
     54 N          22.2648  -33.5845  -40.4237 N.am      9 UNK        -0.4200 
     55 CA         21.1064  -34.0904  -41.1695 C.3       9 UNK         0.0839 
     56 C          21.1563  -35.6234  -41.4216 C.2       9 UNK         0.5513 
     57 N          20.4801  -36.1003  -42.4572 N.am      9 UNK        -0.7519 
     58 O          21.7653  -36.3837  -40.6711 O.2       9 UNK        -0.4960 
     59 C59        19.7772  -33.6515  -40.4919 C.3       10 UNK        -0.0876 
     60 S60        18.5431  -33.1093  -41.7180 S.3       10 UNK        -0.2414 
     61 C61        18.9468  -31.3394  -41.7858 C.3       10 UNK         0.0169 
     62 H62        14.6803  -22.0164  -45.0444 H         1 UNK         0.0903 
     63 H63        13.4356  -23.2513  -45.2531 H         1 UNK         0.0903 
     64 H64        14.0186  -22.8506  -43.6366 H         1 UNK         0.0903 
     65 H65        15.4386  -24.3805  -42.8325 H         1 UNK         0.3096 
     66 H66        16.6705  -26.3822  -44.5130 H         1 UNK         0.1121 
     67 H67        17.4740  -27.3231  -42.3236 H         1 UNK         0.0849 
     68 H68        16.8615  -25.9285  -41.4962 H         1 UNK         0.0849 
     69 H69        14.2617  -29.3507  -43.3003 H         1 UNK         0.0865 
     70 H70        14.7120  -28.1045  -44.4320 H         1 UNK         0.0865 
     71 H71        16.5452  -30.0453  -41.7323 H         1 UNK         0.1346 
     72 H72        19.7647  -31.0912  -44.3656 H         1 UNK         0.1412 
     73 H73        16.4419  -28.8215  -45.8413 H         1 UNK         0.1426 
     74 H74        18.1589  -30.5766  -47.3001 H         1 UNK         0.0716 
     75 H75        19.7666  -30.4309  -46.6394 H         1 UNK         0.0716 
     76 H76        20.8432  -27.4732  -48.4474 H         1 UNK         0.0695 
     77 H77        21.2138  -28.9628  -47.6565 H         1 UNK         0.0695 
     78 H78        22.2714  -26.7994  -46.7363 H         1 UNK         0.0983 
     79 H79        19.4979  -26.1446  -46.1823 H         1 UNK         0.3095 
     80 H80        20.1633  -23.2301  -44.3685 H         1 UNK         0.0454 
     81 H81        20.5992  -22.3539  -46.6705 H         1 UNK         0.0851 
     82 H82        18.9479  -22.0326  -46.1694 H         1 UNK         0.0851 
     83 H83        19.2875  -23.3373  -47.3063 H         1 UNK         0.0851 
     84 H84        17.7385  -24.1871  -45.5150 H         1 UNK         0.2976 
     85 H85        20.6514  -26.8752  -43.8367 H         1 UNK         0.3116 
     86 H86        21.6054  -29.4508  -42.8461 H         1 UNK         0.0646 
     87 H87        20.4890  -27.0375  -41.3273 H         1 UNK         0.0847 
     88 H88        19.5225  -28.3563  -41.9769 H         1 UNK         0.0847 
     89 H89        20.6898  -28.6683  -40.7055 H         1 UNK         0.0847 
     90 H90        23.7849  -28.6894  -43.8900 H         1 UNK         0.3040 
     91 H91        25.5328  -26.8564  -42.6914 H         1 UNK         0.1015 
     92 H92        27.3173  -28.1911  -43.8421 H         1 UNK         0.0786 
     93 H93        25.9426  -27.9027  -44.8971 H         1 UNK         0.0786 
     94 H94        26.1632  -29.4826  -44.1455 H         1 UNK         0.0786 
     95 H95        26.1862  -26.7596  -40.6544 H         1 UNK         0.3172 
     96 H96        26.7677  -27.1743  -38.5655 H         1 UNK         0.0595 
     97 H97        28.0347  -29.7702  -39.5936 H         1 UNK         0.0839 
     98 H98        28.4404  -28.9282  -38.1062 H         1 UNK         0.0839 
     99 H99        28.7993  -28.1824  -39.6527 H         1 UNK         0.0839 
    100 H100       24.1612  -28.2596  -39.5655 H         1 UNK         0.2998 
    101 H101       22.3744  -29.3710  -38.9713 H         1 UNK         0.0822 
    102 H102       21.8987  -29.8636  -36.6107 H         1 UNK         0.0787 
    103 H103       22.7162  -28.3149  -36.7199 H         1 UNK         0.0787 
    104 H104       23.5992  -29.7464  -36.1892 H         1 UNK         0.0787 
    105 H105       24.8018  -30.8792  -40.0377 H         1 UNK         0.3055 
    106 H106       24.5308  -33.5940  -38.9936 H         1 UNK         0.1106 
    107 H107       26.7291  -32.6722  -39.7315 H         1 UNK         0.0828 
    108 H108       26.2829  -34.0940  -40.6620 H         1 UNK         0.0828 
    109 H109       26.1159  -32.4963  -41.3744 H         1 UNK         0.0828 
    110 H110       22.0993  -33.2626  -39.4764 H         1 UNK         0.2931 
    111 H111       21.1742  -33.6106  -42.1486 H         1 UNK         0.0412 
    112 H112       20.4840  -37.0927  -42.6349 H         1 UNK         0.3472 
    113 H113       19.9508  -35.4838  -43.0550 H         1 UNK         0.3472 
    114 H114       19.3473  -34.4511  -39.8849 H         1 UNK         0.0970 
    115 H115       19.9419  -32.8279  -39.7947 H         1 UNK         0.0970 
    116 H116       18.6850  -30.8710  -40.8357 H         1 UNK         0.0612 
    117 H117       20.0250  -31.2186  -41.9024 H         1 UNK         0.0612 
@<TRIPOS>BOND
     1    1    2 1    
     2    1   62 1    
     3    1   63 1    
     4    1   64 1    
     5    2    3 2    
     6    2    4 am   BACKBONE|DICT|INTERRES
     7    4    5 1    
     8    4   65 1    
     9    5    6 1    
    10    5   25 1    
    11    5   66 1    
    12    6    7 1    
    13    6   67 1    
    14    6   68 1    
    15    7    8 1    
    16    8    9 1    
    17    8   69 1    
    18    8   70 1    
    19    9   10 ar   
    20    9   14 ar   
    21   10   11 ar   
    22   10   71 1    
    23   11   12 ar   
    24   11   61 1    
    25   12   13 ar   
    26   12   72 1    
    27   13   14 ar   
    28   13   15 1    
    29   14   73 1    
    30   15   16 1    
    31   15   74 1    
    32   15   75 1    
    33   16   17 1    
    34   17   18 1    
    35   17   76 1    
    36   17   77 1    
    37   18   19 1    
    38   18   27 1    
    39   18   78 1    
    40   19   20 am   BACKBONE|DICT|INTERRES
    41   19   79 1    
    42   20   21 2    
    43   20   22 1    
    44   22   23 1    
    45   22   24 1    
    46   22   80 1    
    47   23   81 1    
    48   23   82 1    
    49   23   83 1    
    50   24   25 am   BACKBONE|DICT|INTERRES
    51   24   84 1    
    52   25   26 2    
    53   27   28 2    
    54   27   29 am   BACKBONE|DICT|INTERRES
    55   29   30 1    
    56   29   85 1    
    57   30   31 1    
    58   30   32 1    
    59   30   86 1    
    60   31   87 1    
    61   31   88 1    
    62   31   89 1    
    63   32   33 2    
    64   32   34 am   BACKBONE|DICT|INTERRES
    65   34   35 1    
    66   34   90 1    
    67   35   36 1    
    68   35   37 1    
    69   35   91 1    
    70   36   92 1    
    71   36   93 1    
    72   36   94 1    
    73   37   38 2    
    74   37   39 am   BACKBONE|DICT|INTERRES
    75   39   40 1    
    76   39   95 1    
    77   40   41 1    
    78   40   42 1    
    79   40   96 1    
    80   41   97 1    
    81   41   98 1    
    82   41   99 1    
    83   42   43 2    
    84   42   44 am   BACKBONE|DICT|INTERRES
    85   44   45 1    
    86   44  100 1    
    87   45   46 1    
    88   45   47 1    
    89   45  101 1    
    90   46  102 1    
    91   46  103 1    
    92   46  104 1    
    93   47   48 2    
    94   47   49 am   BACKBONE|DICT|INTERRES
    95   49   50 1    
    96   49  105 1    
    97   50   51 1    
    98   50   52 1    
    99   50  106 1    
   100   51  107 1    
   101   51  108 1    
   102   51  109 1    
   103   52   53 2    
   104   52   54 am   BACKBONE|DICT|INTERRES
   105   54   55 1    
   106   54  110 1    
   107   55   56 1    
   108   55   59 1    
   109   55  111 1    
   110   56   57 am   BACKBONE|DICT|INTERRES
   111   56   58 2    
   112   57  112 1    
   113   57  113 1    
   114   59   60 1    
   115   59  114 1    
   116   59  115 1    
   117   60   61 1    
   118   61  116 1    
   119   61  117 1    
@<TRIPOS>SUBSTRUCTURE
     1 UNK         1 GROUP             0       ****    0 ROOT    
