@<TRIPOS>MOLECULE
3R8
117   119    1
SMALL
USER_CHARGES


@<TRIPOS>ATOM
      1 CA         18.7424  -23.2075  -39.8428 C.3       0 UNK        -0.2013 
      2 C          18.2882  -23.6658  -41.2208 C.2       0 UNK         0.4866 
      3 O          17.1399  -23.4307  -41.5981 O.2       0 UNK        -0.5176 
      4 N          19.1821  -24.3114  -41.9751 N.am      1 UNK        -0.4884 
      5 CA         18.9351  -24.8394  -43.3147 C.3       1 UNK         0.0853 
      6 C6         18.0650  -26.1261  -43.3350 C.3       10 UNK        -0.0849 
      7 S7         18.5603  -27.4194  -42.1375 S.3       10 UNK        -0.2776 
      8 C8         17.2099  -28.6326  -42.3171 C.3       10 UNK         0.0316 
      9 C9         17.6001  -29.7543  -43.2680 C.ar      10 UNK        -0.0863 
     10 C10        17.8963  -31.0313  -42.7836 C.ar      10 UNK        -0.1009 
     11 C11        18.2853  -32.0492  -43.6605 C.ar      10 UNK        -0.0712 
     12 C12        18.3981  -31.7741  -45.0293 C.ar      10 UNK        -0.0894 
     13 C13        18.1307  -30.4920  -45.5258 C.ar      10 UNK        -0.0745 
     14 C14        17.6880  -29.5054  -44.6378 C.ar      10 UNK        -0.0972 
     15 C15        18.3268  -30.1983  -47.0155 C.3       10 UNK         0.0209 
     16 S16        18.6674  -28.4359  -47.3973 S.3       10 UNK        -0.2568 
     17 C17        20.2543  -28.4796  -48.3015 C.3       10 UNK        -0.0983 
     18 CA         21.4739  -27.9417  -47.5046 C.3       3 UNK         0.0876 
     19 N          21.2223  -26.6204  -46.9123 N.am      3 UNK        -0.4424 
     20 C          22.1731  -25.7722  -46.4968 C.2       2 UNK         0.4918 
     21 O          23.3760  -26.0312  -46.5130 O.2       2 UNK        -0.4875 
     22 CA         21.7081  -24.4135  -45.9507 C.3       2 UNK         0.0481 
     23 CB         21.5912  -23.3918  -47.0928 C.3       2 UNK        -0.1831 
     24 N          20.4416  -24.4716  -45.2144 N.am      2 UNK        -0.4498 
     25 C          20.2970  -25.0235  -44.0016 C.2       1 UNK         0.5027 
     26 O          21.1964  -25.6297  -43.4124 O.2       1 UNK        -0.4969 
     27 C          22.0341  -28.9851  -46.5130 C.2       3 UNK         0.5005 
     28 O          22.5259  -30.0220  -46.9630 O.2       3 UNK        -0.5279 
     29 N          21.9771  -28.7005  -45.2047 N.am      4 UNK        -0.4463 
     30 CA         22.4838  -29.5721  -44.1448 C.3       4 UNK         0.0283 
     31 CB         21.3097  -30.3396  -43.5304 C.3       4 UNK        -0.1875 
     32 C          23.2825  -28.8223  -43.0726 C.2       4 UNK         0.4949 
     33 O          23.5183  -29.4027  -42.0147 O.2       4 UNK        -0.5039 
     34 N          23.6754  -27.5660  -43.3376 N.am      5 UNK        -0.4663 
     35 CA         24.4478  -26.6854  -42.4467 C.3       5 UNK         0.0242 
     36 CB         25.9237  -27.1362  -42.4137 C.3       5 UNK        -0.1982 
     37 C          23.8307  -26.5596  -41.0362 C.2       5 UNK         0.5017 
     38 O          24.5246  -26.7602  -40.0375 O.2       5 UNK        -0.5012 
     39 N          22.5246  -26.2585  -41.0025 N.am      6 UNK        -0.4439 
     40 CA         21.6509  -26.2206  -39.8241 C.3       6 UNK         0.0297 
     41 CB         22.1138  -25.1617  -38.7996 C.3       6 UNK        -0.2006 
     42 C          21.4354  -27.6193  -39.2131 C.2       6 UNK         0.4892 
     43 O          21.6706  -27.8217  -38.0205 O.2       6 UNK        -0.5089 
     44 N          20.9453  -28.5369  -40.0590 N.am      7 UNK        -0.4243 
     45 CA         20.4505  -29.8808  -39.7417 C.3       7 UNK         0.0196 
     46 CB         19.1597  -29.7912  -38.8995 C.3       7 UNK        -0.2007 
     47 C          21.5070  -30.8108  -39.1167 C.2       7 UNK         0.5020 
     48 O          21.2435  -31.4469  -38.0951 O.2       7 UNK        -0.5147 
     49 N          22.6749  -30.9177  -39.7636 N.am      8 UNK        -0.4734 
     50 CA         23.7537  -31.8417  -39.3871 C.3       8 UNK         0.0238 
     51 CB         25.0771  -31.3338  -39.9861 C.3       8 UNK        -0.1912 
     52 C          23.4969  -33.3118  -39.7893 C.2       8 UNK         0.5038 
     53 O          24.3625  -34.1524  -39.5391 O.2       8 UNK        -0.5046 
     54 N          22.3460  -33.5946  -40.4175 N.am      9 UNK        -0.4200 
     55 CA         21.8801  -34.9179  -40.8648 C.3       9 UNK         0.0839 
     56 C          21.8713  -35.9860  -39.7361 C.2       9 UNK         0.5513 
     57 N          22.2843  -37.2099  -40.0359 N.am      9 UNK        -0.7519 
     58 O          21.4456  -35.7268  -38.6124 O.2       9 UNK        -0.4960 
     59 C59        20.4716  -34.8321  -41.5140 C.3       10 UNK        -0.0876 
     60 S60        20.4027  -33.6553  -42.9049 S.3       10 UNK        -0.2414 
     61 C61        18.6081  -33.4350  -43.1189 C.3       10 UNK         0.0169 
     62 H62        18.5128  -22.1515  -39.7030 H         1 UNK         0.0903 
     63 H63        18.2241  -23.7747  -39.0702 H         1 UNK         0.0903 
     64 H64        19.8145  -23.3397  -39.7017 H         1 UNK         0.0903 
     65 H65        20.1250  -24.4603  -41.6434 H         1 UNK         0.3096 
     66 H66        18.3948  -24.0689  -43.8699 H         1 UNK         0.1121 
     67 H67        17.0322  -25.8525  -43.1140 H         1 UNK         0.0849 
     68 H68        18.0482  -26.5452  -44.3404 H         1 UNK         0.0849 
     69 H69        16.9704  -29.0374  -41.3332 H         1 UNK         0.0865 
     70 H70        16.3007  -28.1438  -42.6697 H         1 UNK         0.0865 
     71 H71        17.8325  -31.2324  -41.7229 H         1 UNK         0.1346 
     72 H72        18.7253  -32.5547  -45.7026 H         1 UNK         0.1412 
     73 H73        17.4346  -28.5241  -45.0050 H         1 UNK         0.1426 
     74 H74        17.4262  -30.5007  -47.5508 H         1 UNK         0.0716 
     75 H75        19.1368  -30.8193  -47.3998 H         1 UNK         0.0716 
     76 H76        20.1210  -27.8598  -49.1895 H         1 UNK         0.0695 
     77 H77        20.4454  -29.4819  -48.6886 H         1 UNK         0.0695 
     78 H78        22.2756  -27.8007  -48.2336 H         1 UNK         0.0983 
     79 H79        20.2536  -26.3422  -46.8512 H         1 UNK         0.3095 
     80 H80        22.4783  -24.0576  -45.2626 H         1 UNK         0.0454 
     81 H81        22.5303  -23.3116  -47.6423 H         1 UNK         0.0851 
     82 H82        21.3564  -22.3970  -46.7137 H         1 UNK         0.0851 
     83 H83        20.8179  -23.6698  -47.8100 H         1 UNK         0.0851 
     84 H84        19.6575  -23.9895  -45.6312 H         1 UNK         0.2976 
     85 H85        21.5371  -27.8382  -44.9130 H         1 UNK         0.3116 
     86 H86        23.1820  -30.3016  -44.5599 H         1 UNK         0.0646 
     87 H87        20.5432  -29.6680  -43.1446 H         1 UNK         0.0847 
     88 H88        20.8531  -30.9806  -44.2805 H         1 UNK         0.0847 
     89 H89        21.6311  -30.9860  -42.7142 H         1 UNK         0.0847 
     90 H90        23.4431  -27.1754  -44.2406 H         1 UNK         0.3040 
     91 H91        24.4139  -25.6867  -42.8857 H         1 UNK         0.1015 
     92 H92        26.5320  -26.4441  -41.8300 H         1 UNK         0.0786 
     93 H93        26.3493  -27.1739  -43.4164 H         1 UNK         0.0786 
     94 H94        26.0331  -28.1247  -41.9654 H         1 UNK         0.0786 
     95 H95        22.0629  -26.1211  -41.9019 H         1 UNK         0.3172 
     96 H96        20.6724  -25.9049  -40.1861 H         1 UNK         0.0595 
     97 H97        23.0543  -25.4370  -38.3218 H         1 UNK         0.0839 
     98 H98        21.3749  -25.0436  -38.0061 H         1 UNK         0.0839 
     99 H99        22.2486  -24.1864  -39.2666 H         1 UNK         0.0839 
    100 H100       20.8043  -28.2462  -41.0166 H         1 UNK         0.2998 
    101 H101       20.1779  -30.3336  -40.6958 H         1 UNK         0.0822 
    102 H102       18.7032  -30.7741  -38.7771 H         1 UNK         0.0787 
    103 H103       18.4197  -29.1470  -39.3730 H         1 UNK         0.0787 
    104 H104       19.3553  -29.3959  -37.9021 H         1 UNK         0.0787 
    105 H105       22.8530  -30.3338  -40.5810 H         1 UNK         0.3055 
    106 H106       23.8511  -31.8268  -38.2993 H         1 UNK         0.1106 
    107 H107       25.2660  -30.2954  -39.7120 H         1 UNK         0.0828 
    108 H108       25.9227  -31.9221  -39.6279 H         1 UNK         0.0828 
    109 H109       25.0753  -31.3967  -41.0749 H         1 UNK         0.0828 
    110 H110       21.7092  -32.8321  -40.5850 H         1 UNK         0.2931 
    111 H111       22.5853  -35.2442  -41.6318 H         1 UNK         0.0412 
    112 H112       22.2691  -37.9219  -39.3219 H         1 UNK         0.3472 
    113 H113       22.6238  -37.4340  -40.9589 H         1 UNK         0.3472 
    114 H114       20.1610  -35.8102  -41.8869 H         1 UNK         0.0970 
    115 H115       19.7326  -34.5398  -40.7652 H         1 UNK         0.0970 
    116 H116       18.0959  -33.5873  -42.1679 H         1 UNK         0.0612 
    117 H117       18.2306  -34.2013  -43.7974 H         1 UNK         0.0612 
@<TRIPOS>BOND
     1    1    2 1    
     2    1   62 1    
     3    1   63 1    
     4    1   64 1    
     5    2    3 2    
     6    2    4 am   BACKBONE|DICT|INTERRES
     7    4    5 1    
     8    4   65 1    
     9    5    6 1    
    10    5   25 1    
    11    5   66 1    
    12    6    7 1    
    13    6   67 1    
    14    6   68 1    
    15    7    8 1    
    16    8    9 1    
    17    8   69 1    
    18    8   70 1    
    19    9   10 ar   
    20    9   14 ar   
    21   10   11 ar   
    22   10   71 1    
    23   11   12 ar   
    24   11   61 1    
    25   12   13 ar   
    26   12   72 1    
    27   13   14 ar   
    28   13   15 1    
    29   14   73 1    
    30   15   16 1    
    31   15   74 1    
    32   15   75 1    
    33   16   17 1    
    34   17   18 1    
    35   17   76 1    
    36   17   77 1    
    37   18   19 1    
    38   18   27 1    
    39   18   78 1    
    40   19   20 am   BACKBONE|DICT|INTERRES
    41   19   79 1    
    42   20   21 2    
    43   20   22 1    
    44   22   23 1    
    45   22   24 1    
    46   22   80 1    
    47   23   81 1    
    48   23   82 1    
    49   23   83 1    
    50   24   25 am   BACKBONE|DICT|INTERRES
    51   24   84 1    
    52   25   26 2    
    53   27   28 2    
    54   27   29 am   BACKBONE|DICT|INTERRES
    55   29   30 1    
    56   29   85 1    
    57   30   31 1    
    58   30   32 1    
    59   30   86 1    
    60   31   87 1    
    61   31   88 1    
    62   31   89 1    
    63   32   33 2    
    64   32   34 am   BACKBONE|DICT|INTERRES
    65   34   35 1    
    66   34   90 1    
    67   35   36 1    
    68   35   37 1    
    69   35   91 1    
    70   36   92 1    
    71   36   93 1    
    72   36   94 1    
    73   37   38 2    
    74   37   39 am   BACKBONE|DICT|INTERRES
    75   39   40 1    
    76   39   95 1    
    77   40   41 1    
    78   40   42 1    
    79   40   96 1    
    80   41   97 1    
    81   41   98 1    
    82   41   99 1    
    83   42   43 2    
    84   42   44 am   BACKBONE|DICT|INTERRES
    85   44   45 1    
    86   44  100 1    
    87   45   46 1    
    88   45   47 1    
    89   45  101 1    
    90   46  102 1    
    91   46  103 1    
    92   46  104 1    
    93   47   48 2    
    94   47   49 am   BACKBONE|DICT|INTERRES
    95   49   50 1    
    96   49  105 1    
    97   50   51 1    
    98   50   52 1    
    99   50  106 1    
   100   51  107 1    
   101   51  108 1    
   102   51  109 1    
   103   52   53 2    
   104   52   54 am   BACKBONE|DICT|INTERRES
   105   54   55 1    
   106   54  110 1    
   107   55   56 1    
   108   55   59 1    
   109   55  111 1    
   110   56   57 am   BACKBONE|DICT|INTERRES
   111   56   58 2    
   112   57  112 1    
   113   57  113 1    
   114   59   60 1    
   115   59  114 1    
   116   59  115 1    
   117   60   61 1    
   118   61  116 1    
   119   61  117 1    
@<TRIPOS>SUBSTRUCTURE
     1 UNK         1 GROUP             0       ****    0 ROOT    
