@<TRIPOS>MOLECULE
3R8
117   119    1
SMALL
USER_CHARGES


@<TRIPOS>ATOM
      1 CA         13.8246  -27.2711  -39.3418 C.3       0 UNK        -0.2013 
      2 C          14.8412  -26.6692  -40.3005 C.2       0 UNK         0.4866 
      3 O          15.6146  -25.7963  -39.9045 O.2       0 UNK        -0.5176 
      4 N          14.8397  -27.1215  -41.5600 N.am      1 UNK        -0.4884 
      5 CA         15.8043  -26.7314  -42.5933 C.3       1 UNK         0.0853 
      6 C6         15.2617  -27.0030  -44.0221 C.3       10 UNK        -0.0849 
      7 S7         14.6666  -28.7098  -44.2949 S.3       10 UNK        -0.2776 
      8 C8         15.4691  -29.1449  -45.8771 C.3       10 UNK         0.0316 
      9 C9         16.9685  -29.4227  -45.7783 C.ar      10 UNK        -0.0863 
     10 C10        17.5114  -30.1161  -44.6911 C.ar      10 UNK        -0.1009 
     11 C11        18.8738  -30.4245  -44.6472 C.ar      10 UNK        -0.0712 
     12 C12        19.7005  -30.0474  -45.7090 C.ar      10 UNK        -0.0894 
     13 C13        19.1754  -29.3500  -46.8007 C.ar      10 UNK        -0.0745 
     14 C14        17.8118  -29.0375  -46.8261 C.ar      10 UNK        -0.0972 
     15 C15        20.0667  -28.9668  -47.9740 C.3       10 UNK         0.0209 
     16 S16        20.8261  -27.3252  -47.7600 S.3       10 UNK        -0.2568 
     17 C17        22.3294  -27.7112  -46.7998 C.3       10 UNK        -0.0983 
     18 CA         22.4088  -26.9276  -45.4666 C.3       3 UNK         0.0876 
     19 N          21.4190  -27.3631  -44.4888 N.am      3 UNK        -0.4424 
     20 C          20.3429  -26.6719  -44.1132 C.2       2 UNK         0.4918 
     21 O          19.9601  -25.6251  -44.6428 O.2       2 UNK        -0.4875 
     22 CA         19.6053  -27.2131  -42.8870 C.3       2 UNK         0.0481 
     23 CB         20.2684  -26.7089  -41.5938 C.3       2 UNK        -0.1831 
     24 N          18.2202  -26.7664  -42.9414 N.am      2 UNK        -0.4498 
     25 C          17.1865  -27.3772  -42.3552 C.2       1 UNK         0.5027 
     26 O          17.2941  -28.3954  -41.6643 O.2       1 UNK        -0.4969 
     27 C          23.7541  -27.1641  -44.7714 C.2       3 UNK         0.5005 
     28 O          23.9706  -28.2672  -44.2662 O.2       3 UNK        -0.5279 
     29 N          24.6165  -26.1408  -44.7118 N.am      4 UNK        -0.4463 
     30 CA         25.8948  -26.1938  -43.9950 C.3       4 UNK         0.0283 
     31 CB         26.5469  -24.8019  -44.0108 C.3       4 UNK        -0.1875 
     32 C          26.8565  -27.2471  -44.5890 C.2       4 UNK         0.4949 
     33 O          26.9098  -27.3730  -45.8122 O.2       4 UNK        -0.5039 
     34 N          27.6249  -27.9901  -43.7794 N.am      5 UNK        -0.4663 
     35 CA         27.7253  -27.9463  -42.3139 C.3       5 UNK         0.0242 
     36 CB         29.1739  -28.2964  -41.9279 C.3       5 UNK        -0.1982 
     37 C          26.7327  -28.8851  -41.5932 C.2       5 UNK         0.5017 
     38 O          26.8388  -29.0422  -40.3756 O.2       5 UNK        -0.5012 
     39 N          25.8010  -29.5093  -42.3272 N.am      6 UNK        -0.4439 
     40 CA         24.8273  -30.4783  -41.8188 C.3       6 UNK         0.0297 
     41 CB         24.3933  -31.4021  -42.9719 C.3       6 UNK        -0.2006 
     42 C          23.6376  -29.7807  -41.1319 C.2       6 UNK         0.4892 
     43 O          22.5172  -29.7931  -41.6506 O.2       6 UNK        -0.5089 
     44 N          23.9117  -29.1831  -39.9640 N.am      7 UNK        -0.4243 
     45 CA         22.9414  -28.5454  -39.0708 C.3       7 UNK         0.0196 
     46 CB         23.6755  -27.9823  -37.8431 C.3       7 UNK        -0.2007 
     47 C          21.8395  -29.5330  -38.6524 C.2       7 UNK         0.5020 
     48 O          22.1415  -30.5396  -38.0085 O.2       7 UNK        -0.5147 
     49 N          20.6026  -29.2606  -39.0931 N.am      8 UNK        -0.4734 
     50 CA         19.4069  -30.1099  -38.9648 C.3       8 UNK         0.0238 
     51 CB         18.9323  -30.1532  -37.4968 C.3       8 UNK        -0.1912 
     52 C          19.5796  -31.5200  -39.5739 C.2       8 UNK         0.5038 
     53 O          18.9368  -32.4655  -39.1144 O.2       8 UNK        -0.5046 
     54 N          20.4589  -31.6310  -40.5802 N.am      9 UNK        -0.4200 
     55 CA         20.9077  -32.8692  -41.2341 C.3       9 UNK         0.0839 
     56 C          21.7996  -33.7692  -40.3218 C.2       9 UNK         0.5513 
     57 N          22.3270  -33.2800  -39.2046 N.am      9 UNK        -0.7519 
     58 O          22.0541  -34.9257  -40.6480 O.2       9 UNK        -0.4960 
     59 C59        19.7724  -33.6635  -41.9531 C.3       10 UNK        -0.0876 
     60 S60        18.9107  -32.8812  -43.3737 S.3       10 UNK        -0.2414 
     61 C61        19.4490  -31.1427  -43.4376 C.3       10 UNK         0.0169 
     62 H62        14.3354  -27.7509  -38.5073 H         1 UNK         0.0903 
     63 H63        13.1769  -26.4910  -38.9426 H         1 UNK         0.0903 
     64 H64        13.1967  -28.0170  -39.8289 H         1 UNK         0.0903 
     65 H65        14.2102  -27.8653  -41.8281 H         1 UNK         0.3096 
     66 H66        15.9498  -25.6519  -42.5048 H         1 UNK         0.1121 
     67 H67        16.0115  -26.7474  -44.7734 H         1 UNK         0.0849 
     68 H68        14.4223  -26.3336  -44.2170 H         1 UNK         0.0849 
     69 H69        15.2700  -28.3518  -46.5997 H         1 UNK         0.0865 
     70 H70        14.9865  -30.0408  -46.2697 H         1 UNK         0.0865 
     71 H71        16.8755  -30.4251  -43.8728 H         1 UNK         0.1346 
     72 H72        20.7531  -30.2925  -45.6843 H         1 UNK         0.1412 
     73 H73        17.4038  -28.5113  -47.6786 H         1 UNK         0.1426 
     74 H74        20.8387  -29.7212  -48.1323 H         1 UNK         0.0716 
     75 H75        19.4752  -28.9534  -48.8907 H         1 UNK         0.0716 
     76 H76        23.1837  -27.4635  -47.4327 H         1 UNK         0.0695 
     77 H77        22.3940  -28.7852  -46.6181 H         1 UNK         0.0695 
     78 H78        22.3007  -25.8595  -45.6689 H         1 UNK         0.0983 
     79 H79        21.7062  -28.1733  -43.9531 H         1 UNK         0.3095 
     80 H80        19.6390  -28.3025  -42.9115 H         1 UNK         0.0454 
     81 H81        20.3014  -25.6191  -41.5593 H         1 UNK         0.0851 
     82 H82        19.7303  -27.0498  -40.7106 H         1 UNK         0.0851 
     83 H83        21.2951  -27.0686  -41.5225 H         1 UNK         0.0851 
     84 H84        18.0717  -25.9605  -43.5365 H         1 UNK         0.2976 
     85 H85        24.3893  -25.2725  -45.1749 H         1 UNK         0.3116 
     86 H86        25.6454  -26.4477  -42.9648 H         1 UNK         0.0646 
     87 H87        25.9030  -24.0536  -43.5484 H         1 UNK         0.0847 
     88 H88        26.7705  -24.4731  -45.0266 H         1 UNK         0.0847 
     89 H89        27.4868  -24.8039  -43.4572 H         1 UNK         0.0847 
     90 H90        28.2210  -28.6760  -44.2209 H         1 UNK         0.3040 
     91 H91        27.5394  -26.9342  -41.9517 H         1 UNK         0.1015 
     92 H92        29.3282  -28.2110  -40.8512 H         1 UNK         0.0786 
     93 H93        29.8860  -27.6227  -42.4051 H         1 UNK         0.0786 
     94 H94        29.4334  -29.3166  -42.2137 H         1 UNK         0.0786 
     95 H95        25.6823  -29.2394  -43.2965 H         1 UNK         0.3172 
     96 H96        25.3164  -31.1052  -41.0700 H         1 UNK         0.0595 
     97 H97        23.8229  -30.8684  -43.7329 H         1 UNK         0.0839 
     98 H98        23.7687  -32.2141  -42.6027 H         1 UNK         0.0839 
     99 H99        25.2539  -31.8600  -43.4595 H         1 UNK         0.0839 
    100 H100       24.8758  -29.2041  -39.6509 H         1 UNK         0.2998 
    101 H101       22.4935  -27.7089  -39.6083 H         1 UNK         0.0822 
    102 H102       24.1815  -28.7676  -37.2797 H         1 UNK         0.0787 
    103 H103       24.4227  -27.2426  -38.1317 H         1 UNK         0.0787 
    104 H104       22.9782  -27.4908  -37.1633 H         1 UNK         0.0787 
    105 H105       20.4729  -28.4217  -39.6395 H         1 UNK         0.3055 
    106 H106       18.6217  -29.6302  -39.5523 H         1 UNK         0.1106 
    107 H107       18.7975  -29.1498  -37.0934 H         1 UNK         0.0828 
    108 H108       17.9738  -30.6661  -37.4088 H         1 UNK         0.0828 
    109 H109       19.6424  -30.6797  -36.8582 H         1 UNK         0.0828 
    110 H110       20.9751  -30.8026  -40.8586 H         1 UNK         0.2931 
    111 H111       21.5925  -32.5407  -42.0131 H         1 UNK         0.0412 
    112 H112       22.9085  -33.8766  -38.6380 H         1 UNK         0.3472 
    113 H113       22.1425  -32.3289  -38.9027 H         1 UNK         0.3472 
    114 H114       19.0156  -33.9723  -41.2314 H         1 UNK         0.0970 
    115 H115       20.1742  -34.5968  -42.3509 H         1 UNK         0.0970 
    116 H116       20.5379  -31.0836  -43.4460 H         1 UNK         0.0612 
    117 H117       19.1004  -30.6249  -42.5443 H         1 UNK         0.0612 
@<TRIPOS>BOND
     1    1    2 1    
     2    1   62 1    
     3    1   63 1    
     4    1   64 1    
     5    2    3 2    
     6    2    4 am   BACKBONE|DICT|INTERRES
     7    4    5 1    
     8    4   65 1    
     9    5    6 1    
    10    5   25 1    
    11    5   66 1    
    12    6    7 1    
    13    6   67 1    
    14    6   68 1    
    15    7    8 1    
    16    8    9 1    
    17    8   69 1    
    18    8   70 1    
    19    9   10 ar   
    20    9   14 ar   
    21   10   11 ar   
    22   10   71 1    
    23   11   12 ar   
    24   11   61 1    
    25   12   13 ar   
    26   12   72 1    
    27   13   14 ar   
    28   13   15 1    
    29   14   73 1    
    30   15   16 1    
    31   15   74 1    
    32   15   75 1    
    33   16   17 1    
    34   17   18 1    
    35   17   76 1    
    36   17   77 1    
    37   18   19 1    
    38   18   27 1    
    39   18   78 1    
    40   19   20 am   BACKBONE|DICT|INTERRES
    41   19   79 1    
    42   20   21 2    
    43   20   22 1    
    44   22   23 1    
    45   22   24 1    
    46   22   80 1    
    47   23   81 1    
    48   23   82 1    
    49   23   83 1    
    50   24   25 am   BACKBONE|DICT|INTERRES
    51   24   84 1    
    52   25   26 2    
    53   27   28 2    
    54   27   29 am   BACKBONE|DICT|INTERRES
    55   29   30 1    
    56   29   85 1    
    57   30   31 1    
    58   30   32 1    
    59   30   86 1    
    60   31   87 1    
    61   31   88 1    
    62   31   89 1    
    63   32   33 2    
    64   32   34 am   BACKBONE|DICT|INTERRES
    65   34   35 1    
    66   34   90 1    
    67   35   36 1    
    68   35   37 1    
    69   35   91 1    
    70   36   92 1    
    71   36   93 1    
    72   36   94 1    
    73   37   38 2    
    74   37   39 am   BACKBONE|DICT|INTERRES
    75   39   40 1    
    76   39   95 1    
    77   40   41 1    
    78   40   42 1    
    79   40   96 1    
    80   41   97 1    
    81   41   98 1    
    82   41   99 1    
    83   42   43 2    
    84   42   44 am   BACKBONE|DICT|INTERRES
    85   44   45 1    
    86   44  100 1    
    87   45   46 1    
    88   45   47 1    
    89   45  101 1    
    90   46  102 1    
    91   46  103 1    
    92   46  104 1    
    93   47   48 2    
    94   47   49 am   BACKBONE|DICT|INTERRES
    95   49   50 1    
    96   49  105 1    
    97   50   51 1    
    98   50   52 1    
    99   50  106 1    
   100   51  107 1    
   101   51  108 1    
   102   51  109 1    
   103   52   53 2    
   104   52   54 am   BACKBONE|DICT|INTERRES
   105   54   55 1    
   106   54  110 1    
   107   55   56 1    
   108   55   59 1    
   109   55  111 1    
   110   56   57 am   BACKBONE|DICT|INTERRES
   111   56   58 2    
   112   57  112 1    
   113   57  113 1    
   114   59   60 1    
   115   59  114 1    
   116   59  115 1    
   117   60   61 1    
   118   61  116 1    
   119   61  117 1    
@<TRIPOS>SUBSTRUCTURE
     1 UNK         1 GROUP             0       ****    0 ROOT    
