@<TRIPOS>MOLECULE
3R8
117   119    1
SMALL
USER_CHARGES


@<TRIPOS>ATOM
      1 CA         21.0894  -21.4625  -47.8986 C.3       0 UNK        -0.2013 
      2 C          20.7940  -22.9126  -47.5452 C.2       0 UNK         0.4866 
      3 O          21.3526  -23.8203  -48.1617 O.2       0 UNK        -0.5176 
      4 N          19.9228  -23.1390  -46.5579 N.am      1 UNK        -0.4884 
      5 CA         19.5307  -24.4549  -46.0609 C.3       1 UNK         0.0853 
      6 C6         18.4772  -25.1253  -46.9895 C.3       10 UNK        -0.0849 
      7 S7         17.7547  -26.6762  -46.3493 S.3       10 UNK        -0.2776 
      8 C8         18.9416  -27.9195  -46.9601 C.3       10 UNK         0.0316 
      9 C9         18.8707  -29.2534  -46.2159 C.ar      10 UNK        -0.0863 
     10 C10        20.0354  -30.0135  -46.0645 C.ar      10 UNK        -0.1009 
     11 C11        20.0130  -31.2515  -45.4136 C.ar      10 UNK        -0.0712 
     12 C12        18.7948  -31.7303  -44.9136 C.ar      10 UNK        -0.0894 
     13 C13        17.6250  -30.9786  -45.0403 C.ar      10 UNK        -0.0745 
     14 C14        17.6658  -29.7508  -45.7037 C.ar      10 UNK        -0.0972 
     15 C15        16.3157  -31.5027  -44.4688 C.3       10 UNK         0.0209 
     16 S16        16.2675  -31.3788  -42.6512 S.3       10 UNK        -0.2568 
     17 C17        16.2163  -29.5726  -42.3812 C.3       10 UNK        -0.0983 
     18 CA         17.5411  -29.0217  -41.7865 C.3       3 UNK         0.0876 
     19 N          17.6960  -27.5892  -42.0852 N.am      3 UNK        -0.4424 
     20 C          18.8469  -26.9053  -42.0612 C.2       2 UNK         0.4918 
     21 O          19.9373  -27.4123  -41.7854 O.2       2 UNK        -0.4875 
     22 CA         18.7889  -25.4182  -42.4150 C.3       2 UNK         0.0481 
     23 CB         19.6576  -24.5714  -41.4652 C.3       2 UNK        -0.1831 
     24 N          19.2627  -25.2999  -43.7857 N.am      2 UNK        -0.4498 
     25 C          19.0501  -24.2689  -44.6096 C.2       1 UNK         0.5027 
     26 O          18.4914  -23.2185  -44.2787 O.2       1 UNK        -0.4969 
     27 C          17.7136  -29.3068  -40.2705 C.2       3 UNK         0.5005 
     28 O          16.7821  -29.7584  -39.6013 O.2       3 UNK        -0.5279 
     29 N          18.9060  -28.9845  -39.7606 N.am      4 UNK        -0.4463 
     30 CA         19.3644  -29.0768  -38.3762 C.3       4 UNK         0.0283 
     31 CB         18.5339  -28.1731  -37.4420 C.3       4 UNK        -0.1875 
     32 C          20.8489  -28.6901  -38.2870 C.2       4 UNK         0.4949 
     33 O          21.5777  -29.2975  -37.5021 O.2       4 UNK        -0.5039 
     34 N          21.2732  -27.6942  -39.0819 N.am      5 UNK        -0.4663 
     35 CA         22.6266  -27.1268  -39.0519 C.3       5 UNK         0.0242 
     36 CB         22.5206  -25.6228  -38.7449 C.3       5 UNK        -0.1982 
     37 C          23.4256  -27.3545  -40.3474 C.2       5 UNK         0.5017 
     38 O          24.6255  -27.0735  -40.3512 O.2       5 UNK        -0.5012 
     39 N          22.7799  -27.8314  -41.4228 N.am      6 UNK        -0.4439 
     40 CA         23.3863  -28.1124  -42.7283 C.3       6 UNK         0.0297 
     41 CB         22.2748  -28.2599  -43.7846 C.3       6 UNK        -0.2006 
     42 C          24.3278  -29.3326  -42.6958 C.2       6 UNK         0.4892 
     43 O          23.9695  -30.4060  -43.1851 O.2       6 UNK        -0.5089 
     44 N          25.5175  -29.1339  -42.1115 N.am      7 UNK        -0.4243 
     45 CA         26.6143  -30.0942  -41.9622 C.3       7 UNK         0.0196 
     46 CB         27.2803  -30.3647  -43.3317 C.3       7 UNK        -0.2007 
     47 C          26.1504  -31.3601  -41.2193 C.2       7 UNK         0.5020 
     48 O          25.7346  -31.2586  -40.0640 O.2       7 UNK        -0.5147 
     49 N          26.1950  -32.5173  -41.8929 N.am      8 UNK        -0.4734 
     50 CA         25.7514  -33.8167  -41.3787 C.3       8 UNK         0.0238 
     51 CB         26.1108  -34.9097  -42.3986 C.3       8 UNK        -0.1912 
     52 C          24.2531  -33.8821  -41.0273 C.2       8 UNK         0.5038 
     53 O          23.8737  -34.7240  -40.2118 O.2       8 UNK        -0.5046 
     54 N          23.4382  -33.0035  -41.6269 N.am      9 UNK        -0.4200 
     55 CA         22.0127  -32.8497  -41.3051 C.3       9 UNK         0.0839 
     56 C          21.7443  -32.0141  -40.0222 C.2       9 UNK         0.5513 
     57 N          22.7323  -31.3671  -39.4138 N.am      9 UNK        -0.7519 
     58 O          20.6063  -31.9586  -39.5670 O.2       9 UNK        -0.4960 
     59 C59        21.1991  -32.2930  -42.4999 C.3       10 UNK        -0.0876 
     60 S60        21.3514  -33.3229  -43.9981 S.3       10 UNK        -0.2414 
     61 C61        21.3182  -32.0445  -45.3020 C.3       10 UNK         0.0169 
     62 H62        20.8328  -21.2706  -48.9401 H         1 UNK         0.0903 
     63 H63        20.5243  -20.7681  -47.2770 H         1 UNK         0.0903 
     64 H64        22.1501  -21.2520  -47.7643 H         1 UNK         0.0903 
     65 H65        19.5055  -22.3711  -46.0442 H         1 UNK         0.3096 
     66 H66        20.4227  -25.0852  -46.0309 H         1 UNK         0.1121 
     67 H67        17.6510  -24.4339  -47.1653 H         1 UNK         0.0849 
     68 H68        18.9125  -25.3181  -47.9714 H         1 UNK         0.0849 
     69 H69        18.7611  -28.0943  -48.0215 H         1 UNK         0.0865 
     70 H70        19.9495  -27.5092  -46.8787 H         1 UNK         0.0865 
     71 H71        20.9697  -29.6438  -46.4651 H         1 UNK         0.1346 
     72 H72        18.7422  -32.6884  -44.4168 H         1 UNK         0.1412 
     73 H73        16.7523  -29.1844  -45.8187 H         1 UNK         0.1426 
     74 H74        15.4620  -30.9710  -44.8922 H         1 UNK         0.0716 
     75 H75        16.1928  -32.5488  -44.7530 H         1 UNK         0.0716 
     76 H76        16.0102  -29.0936  -43.3393 H         1 UNK         0.0695 
     77 H77        15.3609  -29.3283  -41.7487 H         1 UNK         0.0695 
     78 H78        18.3604  -29.5363  -42.2958 H         1 UNK         0.0983 
     79 H79        16.8456  -27.0927  -42.3083 H         1 UNK         0.3095 
     80 H80        17.7535  -25.0767  -42.3547 H         1 UNK         0.0454 
     81 H81        20.7154  -24.8174  -41.5630 H         1 UNK         0.0851 
     82 H82        19.5455  -23.5064  -41.6679 H         1 UNK         0.0851 
     83 H83        19.3745  -24.7330  -40.4245 H         1 UNK         0.0851 
     84 H84        19.6982  -26.1359  -44.1513 H         1 UNK         0.2976 
     85 H85        19.5833  -28.6203  -40.4234 H         1 UNK         0.3116 
     86 H86        19.2632  -30.1140  -38.0516 H         1 UNK         0.0646 
     87 H87        18.9349  -28.1885  -36.4276 H         1 UNK         0.0847 
     88 H88        17.4974  -28.5026  -37.3763 H         1 UNK         0.0847 
     89 H89        18.5352  -27.1356  -37.7777 H         1 UNK         0.0847 
     90 H90        20.6131  -27.2359  -39.6956 H         1 UNK         0.3040 
     91 H91        23.2124  -27.5870  -38.2529 H         1 UNK         0.1015 
     92 H92        21.9717  -25.0876  -39.5193 H         1 UNK         0.0786 
     93 H93        23.5088  -25.1662  -38.6723 H         1 UNK         0.0786 
     94 H94        22.0160  -25.4481  -37.7945 H         1 UNK         0.0786 
     95 H95        21.7788  -27.9725  -41.3644 H         1 UNK         0.3172 
     96 H96        23.9894  -27.2483  -43.0151 H         1 UNK         0.0595 
     97 H97        22.6915  -28.5178  -44.7591 H         1 UNK         0.0839 
     98 H98        21.7232  -27.3287  -43.9077 H         1 UNK         0.0839 
     99 H99        21.5599  -29.0386  -43.5191 H         1 UNK         0.0839 
    100 H100       25.6362  -28.2494  -41.6270 H         1 UNK         0.2998 
    101 H101       27.3575  -29.6206  -41.3190 H         1 UNK         0.0822 
    102 H102       27.6524  -29.4389  -43.7707 H         1 UNK         0.0787 
    103 H103       28.1370  -31.0326  -43.2310 H         1 UNK         0.0787 
    104 H104       26.5893  -30.8094  -44.0491 H         1 UNK         0.0787 
    105 H105       26.5248  -32.4957  -42.8473 H         1 UNK         0.3055 
    106 H106       26.3025  -34.0111  -40.4559 H         1 UNK         0.1106 
    107 H107       25.8221  -35.8959  -42.0320 H         1 UNK         0.0828 
    108 H108       25.6022  -34.7554  -43.3511 H         1 UNK         0.0828 
    109 H109       27.1837  -34.9398  -42.5893 H         1 UNK         0.0828 
    110 H110       23.8244  -32.3184  -42.2668 H         1 UNK         0.2931 
    111 H111       21.6138  -33.8441  -41.0945 H         1 UNK         0.0412 
    112 H112       22.5143  -30.8166  -38.5930 H         1 UNK         0.3472 
    113 H113       23.6860  -31.4158  -39.7520 H         1 UNK         0.3472 
    114 H114       20.1387  -32.2328  -42.2468 H         1 UNK         0.0970 
    115 H115       21.5127  -31.2733  -42.7242 H         1 UNK         0.0970 
    116 H116       22.1523  -31.3614  -45.1318 H         1 UNK         0.0612 
    117 H117       21.5071  -32.5298  -46.2601 H         1 UNK         0.0612 
@<TRIPOS>BOND
     1    1    2 1    
     2    1   62 1    
     3    1   63 1    
     4    1   64 1    
     5    2    3 2    
     6    2    4 am   BACKBONE|DICT|INTERRES
     7    4    5 1    
     8    4   65 1    
     9    5    6 1    
    10    5   25 1    
    11    5   66 1    
    12    6    7 1    
    13    6   67 1    
    14    6   68 1    
    15    7    8 1    
    16    8    9 1    
    17    8   69 1    
    18    8   70 1    
    19    9   10 ar   
    20    9   14 ar   
    21   10   11 ar   
    22   10   71 1    
    23   11   12 ar   
    24   11   61 1    
    25   12   13 ar   
    26   12   72 1    
    27   13   14 ar   
    28   13   15 1    
    29   14   73 1    
    30   15   16 1    
    31   15   74 1    
    32   15   75 1    
    33   16   17 1    
    34   17   18 1    
    35   17   76 1    
    36   17   77 1    
    37   18   19 1    
    38   18   27 1    
    39   18   78 1    
    40   19   20 am   BACKBONE|DICT|INTERRES
    41   19   79 1    
    42   20   21 2    
    43   20   22 1    
    44   22   23 1    
    45   22   24 1    
    46   22   80 1    
    47   23   81 1    
    48   23   82 1    
    49   23   83 1    
    50   24   25 am   BACKBONE|DICT|INTERRES
    51   24   84 1    
    52   25   26 2    
    53   27   28 2    
    54   27   29 am   BACKBONE|DICT|INTERRES
    55   29   30 1    
    56   29   85 1    
    57   30   31 1    
    58   30   32 1    
    59   30   86 1    
    60   31   87 1    
    61   31   88 1    
    62   31   89 1    
    63   32   33 2    
    64   32   34 am   BACKBONE|DICT|INTERRES
    65   34   35 1    
    66   34   90 1    
    67   35   36 1    
    68   35   37 1    
    69   35   91 1    
    70   36   92 1    
    71   36   93 1    
    72   36   94 1    
    73   37   38 2    
    74   37   39 am   BACKBONE|DICT|INTERRES
    75   39   40 1    
    76   39   95 1    
    77   40   41 1    
    78   40   42 1    
    79   40   96 1    
    80   41   97 1    
    81   41   98 1    
    82   41   99 1    
    83   42   43 2    
    84   42   44 am   BACKBONE|DICT|INTERRES
    85   44   45 1    
    86   44  100 1    
    87   45   46 1    
    88   45   47 1    
    89   45  101 1    
    90   46  102 1    
    91   46  103 1    
    92   46  104 1    
    93   47   48 2    
    94   47   49 am   BACKBONE|DICT|INTERRES
    95   49   50 1    
    96   49  105 1    
    97   50   51 1    
    98   50   52 1    
    99   50  106 1    
   100   51  107 1    
   101   51  108 1    
   102   51  109 1    
   103   52   53 2    
   104   52   54 am   BACKBONE|DICT|INTERRES
   105   54   55 1    
   106   54  110 1    
   107   55   56 1    
   108   55   59 1    
   109   55  111 1    
   110   56   57 am   BACKBONE|DICT|INTERRES
   111   56   58 2    
   112   57  112 1    
   113   57  113 1    
   114   59   60 1    
   115   59  114 1    
   116   59  115 1    
   117   60   61 1    
   118   61  116 1    
   119   61  117 1    
@<TRIPOS>SUBSTRUCTURE
     1 UNK         1 GROUP             0       ****    0 ROOT    
