@<TRIPOS>MOLECULE
3R8
117   119    1
SMALL
USER_CHARGES


@<TRIPOS>ATOM
      1 CA         17.7758  -27.7897  -49.5846 C.3       0 UNK        -0.2013 
      2 C          18.4399  -26.5316  -49.0447 C.2       0 UNK         0.4866 
      3 O          18.3437  -25.4736  -49.6680 O.2       0 UNK        -0.5176 
      4 N          19.1169  -26.6450  -47.8956 N.am      1 UNK        -0.4884 
      5 CA         19.7523  -25.5380  -47.1733 C.3       1 UNK         0.0853 
      6 C6         21.1359  -25.9638  -46.5941 C.3       10 UNK        -0.0849 
      7 S7         21.1009  -26.9497  -45.0549 S.3       10 UNK        -0.2776 
      8 C8         20.9828  -28.6597  -45.6692 C.3       10 UNK         0.0316 
      9 C9         20.0298  -29.4369  -44.7791 C.ar      10 UNK        -0.0863 
     10 C10        20.5129  -30.3030  -43.7948 C.ar      10 UNK        -0.1009 
     11 C11        19.6322  -30.9297  -42.9071 C.ar      10 UNK        -0.0712 
     12 C12        18.2590  -30.6814  -43.0089 C.ar      10 UNK        -0.0894 
     13 C13        17.7659  -29.8229  -43.9968 C.ar      10 UNK        -0.0745 
     14 C14        18.6544  -29.2277  -44.8952 C.ar      10 UNK        -0.0972 
     15 C15        16.2834  -29.4856  -44.0655 C.3       10 UNK         0.0209 
     16 S16        15.9924  -27.6898  -43.9152 S.3       10 UNK        -0.2568 
     17 C17        16.5909  -27.3494  -42.2238 C.3       10 UNK        -0.0983 
     18 CA         18.0855  -26.9097  -42.1401 C.3       3 UNK         0.0876 
     19 N          18.4511  -25.8072  -43.0450 N.am      3 UNK        -0.4424 
     20 C          17.9458  -24.5641  -43.0476 C.2       2 UNK         0.4918 
     21 O          17.0842  -24.1724  -42.2602 O.2       2 UNK        -0.4875 
     22 CA         18.5179  -23.5643  -44.0760 C.3       2 UNK         0.0481 
     23 CB         19.4067  -22.5276  -43.3682 C.3       2 UNK        -0.1831 
     24 N          19.2862  -24.1817  -45.1641 N.am      2 UNK        -0.4498 
     25 C          18.7612  -24.9178  -46.1547 C.2       1 UNK         0.5027 
     26 O          17.5488  -25.1137  -46.2713 O.2       1 UNK        -0.4969 
     27 C          18.5326  -26.6641  -40.6788 C.2       3 UNK         0.5005 
     28 O          17.9662  -27.2602  -39.7604 O.2       3 UNK        -0.5279 
     29 N          19.5329  -25.7920  -40.4775 N.am      4 UNK        -0.4463 
     30 CA         20.0892  -25.4549  -39.1663 C.3       4 UNK         0.0283 
     31 CB         20.8466  -24.1171  -39.2475 C.3       4 UNK        -0.1875 
     32 C          20.9801  -26.5864  -38.6308 C.2       4 UNK         0.4949 
     33 O          20.6601  -27.1764  -37.5989 O.2       4 UNK        -0.5039 
     34 N          22.0657  -26.8718  -39.3585 N.am      5 UNK        -0.4663 
     35 CA         23.0352  -27.9285  -39.0840 C.3       5 UNK         0.0242 
     36 CB         23.8164  -27.6540  -37.7806 C.3       5 UNK        -0.1982 
     37 C          23.9847  -28.0006  -40.2830 C.2       5 UNK         0.5017 
     38 O          24.7883  -27.0833  -40.4644 O.2       5 UNK        -0.5012 
     39 N          23.8689  -29.0578  -41.0900 N.am      6 UNK        -0.4439 
     40 CA         24.7150  -29.3303  -42.2483 C.3       6 UNK         0.0297 
     41 CB         24.3146  -28.4267  -43.4290 C.3       6 UNK        -0.2006 
     42 C          24.5582  -30.8049  -42.6241 C.2       6 UNK         0.4892 
     43 O          23.4996  -31.3812  -42.3672 O.2       6 UNK        -0.5089 
     44 N          25.5987  -31.3817  -43.2416 N.am      7 UNK        -0.4243 
     45 CA         25.6546  -32.7552  -43.7589 C.3       7 UNK         0.0196 
     46 CB         24.8484  -32.8494  -45.0757 C.3       7 UNK        -0.2007 
     47 C          25.2420  -33.7953  -42.6962 C.2       7 UNK         0.5020 
     48 O          25.9562  -33.9596  -41.7062 O.2       7 UNK        -0.5147 
     49 N          24.0855  -34.4415  -42.8959 N.am      8 UNK        -0.4734 
     50 CA         23.4902  -35.4355  -41.9986 C.3       8 UNK         0.0238 
     51 CB         22.2796  -36.0744  -42.6993 C.3       8 UNK        -0.1912 
     52 C          23.0813  -34.8976  -40.6135 C.2       8 UNK         0.5038 
     53 O          22.9469  -35.7038  -39.6916 O.2       8 UNK        -0.5046 
     54 N          22.8932  -33.5776  -40.4840 N.am      9 UNK        -0.4200 
     55 CA         22.5898  -32.8873  -39.2211 C.3       9 UNK         0.0839 
     56 C          23.7206  -31.9232  -38.7627 C.2       9 UNK         0.5513 
     57 N          24.9132  -31.9736  -39.3459 N.am      9 UNK        -0.7519 
     58 O          23.5275  -31.1356  -37.8416 O.2       9 UNK        -0.4960 
     59 C59        21.1678  -32.2584  -39.2234 C.3       10 UNK        -0.0876 
     60 S60        20.8874  -30.9269  -40.4430 S.3       10 UNK        -0.2414 
     61 C61        20.1655  -31.8608  -41.8288 C.3       10 UNK         0.0169 
     62 H62        16.6991  -27.6408  -49.6613 H         1 UNK         0.0903 
     63 H63        18.1597  -28.0201  -50.5781 H         1 UNK         0.0903 
     64 H64        17.9532  -28.6536  -48.9442 H         1 UNK         0.0903 
     65 H65        19.1204  -27.5310  -47.4154 H         1 UNK         0.3096 
     66 H66        19.9559  -24.7380  -47.8891 H         1 UNK         0.1121 
     67 H67        21.7296  -25.0719  -46.3869 H         1 UNK         0.0849 
     68 H68        21.7087  -26.5039  -47.3501 H         1 UNK         0.0849 
     69 H69        20.6275  -28.6850  -46.6991 H         1 UNK         0.0865 
     70 H70        21.9742  -29.1152  -45.6770 H         1 UNK         0.0865 
     71 H71        21.5759  -30.4677  -43.6978 H         1 UNK         0.1346 
     72 H72        17.5775  -31.1426  -42.3072 H         1 UNK         0.1412 
     73 H73        18.2736  -28.5428  -45.6398 H         1 UNK         0.1426 
     74 H74        15.7231  -30.0070  -43.2879 H         1 UNK         0.0716 
     75 H75        15.8847  -29.8305  -45.0203 H         1 UNK         0.0716 
     76 H76        16.4223  -28.2438  -41.6212 H         1 UNK         0.0695 
     77 H77        15.9469  -26.5794  -41.7963 H         1 UNK         0.0695 
     78 H78        18.6932  -27.7546  -42.4626 H         1 UNK         0.0983 
     79 H79        19.1520  -26.0329  -43.7381 H         1 UNK         0.3095 
     80 H80        17.6703  -23.0366  -44.5181 H         1 UNK         0.0454 
     81 H81        20.2863  -22.9875  -42.9163 H         1 UNK         0.0851 
     82 H82        18.8598  -22.0210  -42.5716 H         1 UNK         0.0851 
     83 H83        19.7478  -21.7578  -44.0607 H         1 UNK         0.0851 
     84 H84        20.2895  -24.0720  -45.1247 H         1 UNK         0.2976 
     85 H85        19.9461  -25.3479  -41.2836 H         1 UNK         0.3116 
     86 H86        19.2626  -25.3224  -38.4644 H         1 UNK         0.0646 
     87 H87        21.6558  -24.1408  -39.9779 H         1 UNK         0.0847 
     88 H88        21.2866  -23.8611  -38.2826 H         1 UNK         0.0847 
     89 H89        20.1764  -23.3018  -39.5209 H         1 UNK         0.0847 
     90 H90        22.2486  -26.3357  -40.1960 H         1 UNK         0.3040 
     91 H91        22.5027  -28.8757  -38.9821 H         1 UNK         0.1015 
     92 H92        24.2857  -26.6696  -37.7887 H         1 UNK         0.0786 
     93 H93        24.6061  -28.3935  -37.6408 H         1 UNK         0.0786 
     94 H94        23.1720  -27.7115  -36.9038 H         1 UNK         0.0786 
     95 H95        23.1825  -29.7817  -40.9037 H         1 UNK         0.3172 
     96 H96        25.7575  -29.1480  -41.9794 H         1 UNK         0.0595 
     97 H97        24.8853  -28.6686  -44.3263 H         1 UNK         0.0839 
     98 H98        24.4921  -27.3741  -43.2087 H         1 UNK         0.0839 
     99 H99        23.2585  -28.5409  -43.6705 H         1 UNK         0.0839 
    100 H100       26.4372  -30.8334  -43.3741 H         1 UNK         0.2998 
    101 H101       26.6999  -32.9614  -43.9944 H         1 UNK         0.0822 
    102 H102       24.8970  -33.8533  -45.5002 H         1 UNK         0.0787 
    103 H103       23.7973  -32.5922  -44.9377 H         1 UNK         0.0787 
    104 H104       25.2520  -32.1697  -45.8262 H         1 UNK         0.0787 
    105 H105       23.5535  -34.2027  -43.7204 H         1 UNK         0.3055 
    106 H106       24.2382  -36.2127  -41.8268 H         1 UNK         0.1106 
    107 H107       21.8286  -36.8470  -42.0748 H         1 UNK         0.0828 
    108 H108       21.5043  -35.3382  -42.9162 H         1 UNK         0.0828 
    109 H109       22.5669  -36.5486  -43.6379 H         1 UNK         0.0828 
    110 H110       23.0538  -32.9673  -41.2811 H         1 UNK         0.2931 
    111 H111       22.5720  -33.6276  -38.4199 H         1 UNK         0.0412 
    112 H112       25.6440  -31.3617  -39.0205 H         1 UNK         0.3472 
    113 H113       25.1060  -32.6475  -40.0747 H         1 UNK         0.3472 
    114 H114       20.9440  -31.8510  -38.2359 H         1 UNK         0.0970 
    115 H115       20.4266  -33.0438  -39.3765 H         1 UNK         0.0970 
    116 H116       20.9217  -32.5200  -42.2566 H         1 UNK         0.0612 
    117 H117       19.3662  -32.5040  -41.4580 H         1 UNK         0.0612 
@<TRIPOS>BOND
     1    1    2 1    
     2    1   62 1    
     3    1   63 1    
     4    1   64 1    
     5    2    3 2    
     6    2    4 am   BACKBONE|DICT|INTERRES
     7    4    5 1    
     8    4   65 1    
     9    5    6 1    
    10    5   25 1    
    11    5   66 1    
    12    6    7 1    
    13    6   67 1    
    14    6   68 1    
    15    7    8 1    
    16    8    9 1    
    17    8   69 1    
    18    8   70 1    
    19    9   10 ar   
    20    9   14 ar   
    21   10   11 ar   
    22   10   71 1    
    23   11   12 ar   
    24   11   61 1    
    25   12   13 ar   
    26   12   72 1    
    27   13   14 ar   
    28   13   15 1    
    29   14   73 1    
    30   15   16 1    
    31   15   74 1    
    32   15   75 1    
    33   16   17 1    
    34   17   18 1    
    35   17   76 1    
    36   17   77 1    
    37   18   19 1    
    38   18   27 1    
    39   18   78 1    
    40   19   20 am   BACKBONE|DICT|INTERRES
    41   19   79 1    
    42   20   21 2    
    43   20   22 1    
    44   22   23 1    
    45   22   24 1    
    46   22   80 1    
    47   23   81 1    
    48   23   82 1    
    49   23   83 1    
    50   24   25 am   BACKBONE|DICT|INTERRES
    51   24   84 1    
    52   25   26 2    
    53   27   28 2    
    54   27   29 am   BACKBONE|DICT|INTERRES
    55   29   30 1    
    56   29   85 1    
    57   30   31 1    
    58   30   32 1    
    59   30   86 1    
    60   31   87 1    
    61   31   88 1    
    62   31   89 1    
    63   32   33 2    
    64   32   34 am   BACKBONE|DICT|INTERRES
    65   34   35 1    
    66   34   90 1    
    67   35   36 1    
    68   35   37 1    
    69   35   91 1    
    70   36   92 1    
    71   36   93 1    
    72   36   94 1    
    73   37   38 2    
    74   37   39 am   BACKBONE|DICT|INTERRES
    75   39   40 1    
    76   39   95 1    
    77   40   41 1    
    78   40   42 1    
    79   40   96 1    
    80   41   97 1    
    81   41   98 1    
    82   41   99 1    
    83   42   43 2    
    84   42   44 am   BACKBONE|DICT|INTERRES
    85   44   45 1    
    86   44  100 1    
    87   45   46 1    
    88   45   47 1    
    89   45  101 1    
    90   46  102 1    
    91   46  103 1    
    92   46  104 1    
    93   47   48 2    
    94   47   49 am   BACKBONE|DICT|INTERRES
    95   49   50 1    
    96   49  105 1    
    97   50   51 1    
    98   50   52 1    
    99   50  106 1    
   100   51  107 1    
   101   51  108 1    
   102   51  109 1    
   103   52   53 2    
   104   52   54 am   BACKBONE|DICT|INTERRES
   105   54   55 1    
   106   54  110 1    
   107   55   56 1    
   108   55   59 1    
   109   55  111 1    
   110   56   57 am   BACKBONE|DICT|INTERRES
   111   56   58 2    
   112   57  112 1    
   113   57  113 1    
   114   59   60 1    
   115   59  114 1    
   116   59  115 1    
   117   60   61 1    
   118   61  116 1    
   119   61  117 1    
@<TRIPOS>SUBSTRUCTURE
     1 UNK         1 GROUP             0       ****    0 ROOT    
