@<TRIPOS>MOLECULE
3R8
117   119    1
SMALL
USER_CHARGES


@<TRIPOS>ATOM
      1 CA         14.9753  -21.7695  -43.0534 C.3       0 UNK        -0.2013 
      2 C          15.5608  -22.5411  -44.2264 C.2       0 UNK         0.4866 
      3 O          15.9373  -21.9370  -45.2312 O.2       0 UNK        -0.5176 
      4 N          15.6319  -23.8725  -44.1113 N.am      1 UNK        -0.4884 
      5 CA         16.2306  -24.7774  -45.0954 C.3       1 UNK         0.0853 
      6 C6         15.7854  -26.2517  -44.8929 C.3       10 UNK        -0.0849 
      7 S7         15.7239  -26.8191  -43.1522 S.3       10 UNK        -0.2776 
      8 C8         15.2582  -28.5714  -43.3425 C.3       10 UNK         0.0316 
      9 C9         16.4745  -29.4563  -43.5770 C.ar      10 UNK        -0.0863 
     10 C10        17.0643  -30.1497  -42.5153 C.ar      10 UNK        -0.1009 
     11 C11        18.1779  -30.9672  -42.7331 C.ar      10 UNK        -0.0712 
     12 C12        18.7281  -31.0542  -44.0175 C.ar      10 UNK        -0.0894 
     13 C13        18.1473  -30.3662  -45.0892 C.ar      10 UNK        -0.0745 
     14 C14        17.0023  -29.5967  -44.8617 C.ar      10 UNK        -0.0972 
     15 C15        18.7196  -30.5044  -46.4977 C.3       10 UNK         0.0209 
     16 S16        18.7570  -28.9240  -47.4199 S.3       10 UNK        -0.2568 
     17 C17        20.5410  -28.5480  -47.5305 C.3       10 UNK        -0.0983 
     18 CA         21.0405  -27.4582  -46.5471 C.3       3 UNK         0.0876 
     19 N          20.2442  -26.2295  -46.6305 N.am      3 UNK        -0.4424 
     20 C          20.7035  -25.0037  -46.3497 C.2       2 UNK         0.4918 
     21 O          21.8631  -24.7700  -46.0092 O.2       2 UNK        -0.4875 
     22 CA         19.7111  -23.8340  -46.4741 C.3       2 UNK         0.0481 
     23 CB         19.8733  -23.1427  -47.8374 C.3       2 UNK        -0.1831 
     24 N          18.3022  -24.1992  -46.2839 N.am      2 UNK        -0.4498 
     25 C          17.7660  -24.6117  -45.1257 C.2       1 UNK         0.5027 
     26 O          18.4293  -24.8411  -44.1132 O.2       1 UNK        -0.4969 
     27 C          21.1958  -27.9973  -45.1086 C.2       3 UNK         0.5005 
     28 O          21.9865  -28.9222  -44.9097 O.2       3 UNK        -0.5279 
     29 N          20.4649  -27.4337  -44.1345 N.am      4 UNK        -0.4463 
     30 CA         20.5570  -27.8216  -42.7291 C.3       4 UNK         0.0283 
     31 CB         19.3452  -27.2813  -41.9582 C.3       4 UNK        -0.1875 
     32 C          21.8622  -27.3242  -42.0919 C.2       4 UNK         0.4949 
     33 O          22.2273  -26.1601  -42.2697 O.2       4 UNK        -0.5039 
     34 N          22.5133  -28.2049  -41.3298 N.am      5 UNK        -0.4663 
     35 CA         23.7260  -27.9499  -40.5584 C.3       5 UNK         0.0242 
     36 CB         24.9511  -27.8432  -41.4876 C.3       5 UNK        -0.1982 
     37 C          23.8991  -29.1103  -39.5769 C.2       5 UNK         0.5017 
     38 O          23.4710  -30.2246  -39.8856 O.2       5 UNK        -0.5012 
     39 N          24.5635  -28.8578  -38.4422 N.am      6 UNK        -0.4439 
     40 CA         24.8108  -29.8484  -37.3847 C.3       6 UNK         0.0297 
     41 CB         25.4631  -29.1537  -36.1784 C.3       6 UNK        -0.2006 
     42 C          25.6563  -31.0578  -37.8302 C.2       6 UNK         0.4892 
     43 O          25.4984  -32.1417  -37.2690 O.2       6 UNK        -0.5089 
     44 N          26.5250  -30.8529  -38.8294 N.am      7 UNK        -0.4243 
     45 CA         27.3335  -31.9004  -39.4558 C.3       7 UNK         0.0196 
     46 CB         28.6187  -31.2653  -40.0128 C.3       7 UNK        -0.2007 
     47 C          26.5864  -32.6548  -40.5719 C.2       7 UNK         0.5020 
     48 O          27.0211  -33.7460  -40.9415 O.2       7 UNK        -0.5147 
     49 N          25.5105  -32.0658  -41.1124 N.am      8 UNK        -0.4734 
     50 CA         24.7297  -32.6249  -42.2182 C.3       8 UNK         0.0238 
     51 CB         24.2821  -31.4909  -43.1581 C.3       8 UNK        -0.1912 
     52 C          23.5158  -33.4106  -41.7075 C.2       8 UNK         0.5038 
     53 O          23.2833  -34.5304  -42.1652 O.2       8 UNK        -0.5046 
     54 N          22.7593  -32.8027  -40.7876 N.am      9 UNK        -0.4200 
     55 CA         21.5420  -33.3650  -40.1936 C.3       9 UNK         0.0839 
     56 C          21.8447  -34.4816  -39.1594 C.2       9 UNK         0.5513 
     57 N          20.9207  -35.4146  -38.9731 N.am      9 UNK        -0.7519 
     58 O          22.8821  -34.4944  -38.5008 O.2       9 UNK        -0.4960 
     59 C59        20.6474  -32.2566  -39.5788 C.3       10 UNK        -0.0876 
     60 S60        20.1649  -30.9810  -40.7932 S.3       10 UNK        -0.2414 
     61 C61        18.7522  -31.7963  -41.5929 C.3       10 UNK         0.0169 
     62 H62        14.0994  -21.2062  -43.3742 H         1 UNK         0.0903 
     63 H63        14.6745  -22.4301  -42.2403 H         1 UNK         0.0903 
     64 H64        15.7099  -21.0652  -42.6639 H         1 UNK         0.0903 
     65 H65        15.3391  -24.3219  -43.2541 H         1 UNK         0.3096 
     66 H66        15.8532  -24.4725  -46.0745 H         1 UNK         0.1121 
     67 H67        14.7828  -26.3758  -45.3052 H         1 UNK         0.0849 
     68 H68        16.4240  -26.9160  -45.4740 H         1 UNK         0.0849 
     69 H69        14.7349  -28.8918  -42.4404 H         1 UNK         0.0865 
     70 H70        14.5433  -28.6829  -44.1593 H         1 UNK         0.0865 
     71 H71        16.6478  -30.0654  -41.5207 H         1 UNK         0.1346 
     72 H72        19.5961  -31.6776  -44.1837 H         1 UNK         0.1412 
     73 H73        16.5227  -29.1004  -45.6924 H         1 UNK         0.1426 
     74 H74        18.0967  -31.2087  -47.0503 H         1 UNK         0.0716 
     75 H75        19.7171  -30.9442  -46.4631 H         1 UNK         0.0716 
     76 H76        20.7233  -28.2041  -48.5498 H         1 UNK         0.0695 
     77 H77        21.1293  -29.4623  -47.4367 H         1 UNK         0.0695 
     78 H78        22.0567  -27.2086  -46.8614 H         1 UNK         0.0983 
     79 H79        19.2812  -26.3433  -46.9116 H         1 UNK         0.3095 
     80 H80        19.9688  -23.1099  -45.6982 H         1 UNK         0.0454 
     81 H81        20.9062  -22.8295  -47.9964 H         1 UNK         0.0851 
     82 H82        19.2536  -22.2485  -47.9065 H         1 UNK         0.0851 
     83 H83        19.6041  -23.8044  -48.6616 H         1 UNK         0.0851 
     84 H84        17.6878  -24.0228  -47.0664 H         1 UNK         0.2976 
     85 H85        19.8702  -26.6441  -44.3503 H         1 UNK         0.3116 
     86 H86        20.5284  -28.9108  -42.6902 H         1 UNK         0.0646 
     87 H87        19.3298  -26.1912  -41.9362 H         1 UNK         0.0847 
     88 H88        19.3524  -27.6322  -40.9257 H         1 UNK         0.0847 
     89 H89        18.4144  -27.6203  -42.4078 H         1 UNK         0.0847 
     90 H90        22.1344  -29.1373  -41.2024 H         1 UNK         0.3040 
     91 H91        23.5996  -27.0217  -39.9969 H         1 UNK         0.1015 
     92 H92        25.8654  -27.6775  -40.9167 H         1 UNK         0.0786 
     93 H93        24.8546  -27.0095  -42.1830 H         1 UNK         0.0786 
     94 H94        25.0922  -28.7503  -42.0760 H         1 UNK         0.0786 
     95 H95        24.8988  -27.9200  -38.2709 H         1 UNK         0.3172 
     96 H96        23.8397  -30.2358  -37.0686 H         1 UNK         0.0595 
     97 H97        26.4286  -28.7164  -36.4362 H         1 UNK         0.0839 
     98 H98        25.6338  -29.8617  -35.3660 H         1 UNK         0.0839 
     99 H99        24.8279  -28.3605  -35.7836 H         1 UNK         0.0839 
    100 H100       26.6046  -29.9222  -39.2119 H         1 UNK         0.2998 
    101 H101       27.6185  -32.6343  -38.6984 H         1 UNK         0.0822 
    102 H102       29.1929  -30.7759  -39.2259 H         1 UNK         0.0787 
    103 H103       29.2655  -32.0213  -40.4606 H         1 UNK         0.0787 
    104 H104       28.4028  -30.5239  -40.7834 H         1 UNK         0.0787 
    105 H105       25.1563  -31.2162  -40.6922 H         1 UNK         0.3055 
    106 H106       25.3494  -33.3124  -42.7990 H         1 UNK         0.1106 
    107 H107       25.1378  -30.9551  -43.5687 H         1 UNK         0.0828 
    108 H108       23.7142  -31.8854  -44.0018 H         1 UNK         0.0828 
    109 H109       23.6435  -30.7648  -42.6536 H         1 UNK         0.0828 
    110 H110       23.0301  -31.8823  -40.4503 H         1 UNK         0.2931 
    111 H111       20.9791  -33.8299  -41.0054 H         1 UNK         0.0412 
    112 H112       20.0627  -35.4144  -39.5028 H         1 UNK         0.3472 
    113 H113       21.0899  -36.1427  -38.2962 H         1 UNK         0.3472 
    114 H114       19.7430  -32.6835  -39.1412 H         1 UNK         0.0970 
    115 H115       21.1730  -31.7603  -38.7606 H         1 UNK         0.0970 
    116 H116       17.9822  -31.9930  -40.8453 H         1 UNK         0.0612 
    117 H117       19.0640  -32.7689  -41.9754 H         1 UNK         0.0612 
@<TRIPOS>BOND
     1    1    2 1    
     2    1   62 1    
     3    1   63 1    
     4    1   64 1    
     5    2    3 2    
     6    2    4 am   BACKBONE|DICT|INTERRES
     7    4    5 1    
     8    4   65 1    
     9    5    6 1    
    10    5   25 1    
    11    5   66 1    
    12    6    7 1    
    13    6   67 1    
    14    6   68 1    
    15    7    8 1    
    16    8    9 1    
    17    8   69 1    
    18    8   70 1    
    19    9   10 ar   
    20    9   14 ar   
    21   10   11 ar   
    22   10   71 1    
    23   11   12 ar   
    24   11   61 1    
    25   12   13 ar   
    26   12   72 1    
    27   13   14 ar   
    28   13   15 1    
    29   14   73 1    
    30   15   16 1    
    31   15   74 1    
    32   15   75 1    
    33   16   17 1    
    34   17   18 1    
    35   17   76 1    
    36   17   77 1    
    37   18   19 1    
    38   18   27 1    
    39   18   78 1    
    40   19   20 am   BACKBONE|DICT|INTERRES
    41   19   79 1    
    42   20   21 2    
    43   20   22 1    
    44   22   23 1    
    45   22   24 1    
    46   22   80 1    
    47   23   81 1    
    48   23   82 1    
    49   23   83 1    
    50   24   25 am   BACKBONE|DICT|INTERRES
    51   24   84 1    
    52   25   26 2    
    53   27   28 2    
    54   27   29 am   BACKBONE|DICT|INTERRES
    55   29   30 1    
    56   29   85 1    
    57   30   31 1    
    58   30   32 1    
    59   30   86 1    
    60   31   87 1    
    61   31   88 1    
    62   31   89 1    
    63   32   33 2    
    64   32   34 am   BACKBONE|DICT|INTERRES
    65   34   35 1    
    66   34   90 1    
    67   35   36 1    
    68   35   37 1    
    69   35   91 1    
    70   36   92 1    
    71   36   93 1    
    72   36   94 1    
    73   37   38 2    
    74   37   39 am   BACKBONE|DICT|INTERRES
    75   39   40 1    
    76   39   95 1    
    77   40   41 1    
    78   40   42 1    
    79   40   96 1    
    80   41   97 1    
    81   41   98 1    
    82   41   99 1    
    83   42   43 2    
    84   42   44 am   BACKBONE|DICT|INTERRES
    85   44   45 1    
    86   44  100 1    
    87   45   46 1    
    88   45   47 1    
    89   45  101 1    
    90   46  102 1    
    91   46  103 1    
    92   46  104 1    
    93   47   48 2    
    94   47   49 am   BACKBONE|DICT|INTERRES
    95   49   50 1    
    96   49  105 1    
    97   50   51 1    
    98   50   52 1    
    99   50  106 1    
   100   51  107 1    
   101   51  108 1    
   102   51  109 1    
   103   52   53 2    
   104   52   54 am   BACKBONE|DICT|INTERRES
   105   54   55 1    
   106   54  110 1    
   107   55   56 1    
   108   55   59 1    
   109   55  111 1    
   110   56   57 am   BACKBONE|DICT|INTERRES
   111   56   58 2    
   112   57  112 1    
   113   57  113 1    
   114   59   60 1    
   115   59  114 1    
   116   59  115 1    
   117   60   61 1    
   118   61  116 1    
   119   61  117 1    
@<TRIPOS>SUBSTRUCTURE
     1 UNK         1 GROUP             0       ****    0 ROOT    
