@<TRIPOS>MOLECULE
3R8
117   119    1
SMALL
USER_CHARGES


@<TRIPOS>ATOM
      1 CA         18.3513  -25.2282  -40.1504 C.3       0 UNK        -0.2013 
      2 C          17.8096  -25.1172  -41.5673 C.2       0 UNK         0.4866 
      3 O          17.7294  -24.0183  -42.1176 O.2       0 UNK        -0.5176 
      4 N          17.4308  -26.2528  -42.1633 N.am      1 UNK        -0.4884 
      5 CA         16.8304  -26.3719  -43.4956 C.3       1 UNK         0.0853 
      6 C6         15.9561  -27.6521  -43.5962 C.3       10 UNK        -0.0849 
      7 S7         16.8213  -29.2008  -43.1398 S.3       10 UNK        -0.2776 
      8 C8         16.7283  -30.1225  -44.7057 C.3       10 UNK         0.0316 
      9 C9         17.9137  -31.0575  -44.8707 C.ar      10 UNK        -0.0863 
     10 C10        17.8292  -32.3922  -44.4646 C.ar      10 UNK        -0.1009 
     11 C11        18.9024  -33.2621  -44.6746 C.ar      10 UNK        -0.0712 
     12 C12        20.0674  -32.7778  -45.2793 C.ar      10 UNK        -0.0894 
     13 C13        20.1813  -31.4376  -45.6667 C.ar      10 UNK        -0.0745 
     14 C14        19.0871  -30.5874  -45.4678 C.ar      10 UNK        -0.0972 
     15 C15        21.4880  -30.9747  -46.3217 C.3       10 UNK         0.0209 
     16 S16        21.7367  -29.1660  -46.4667 S.3       10 UNK        -0.2568 
     17 C17        22.0595  -28.7101  -44.7321 C.3       10 UNK        -0.0983 
     18 CA         22.1721  -27.1807  -44.4947 C.3       3 UNK         0.0876 
     19 N          20.9765  -26.4711  -44.9771 N.am      3 UNK        -0.4424 
     20 C          20.9113  -25.1910  -45.3613 C.2       2 UNK         0.4918 
     21 O          21.8907  -24.4468  -45.3877 O.2       2 UNK        -0.4875 
     22 CA         19.5224  -24.6080  -45.6803 C.3       2 UNK         0.0481 
     23 CB         19.1358  -24.8547  -47.1516 C.3       2 UNK        -0.1831 
     24 N          18.4656  -25.0297  -44.7452 N.am      2 UNK        -0.4498 
     25 C          17.8907  -26.2336  -44.6139 C.2       1 UNK         0.5027 
     26 O          18.2048  -27.2027  -45.3040 O.2       1 UNK        -0.4969 
     27 C          22.4689  -26.8611  -43.0041 C.2       3 UNK         0.5005 
     28 O          22.9961  -27.7178  -42.2857 O.2       3 UNK        -0.5279 
     29 N          22.0807  -25.6563  -42.5570 N.am      4 UNK        -0.4463 
     30 CA         22.0394  -25.1617  -41.1804 C.3       4 UNK         0.0283 
     31 CB         21.6154  -23.6830  -41.1970 C.3       4 UNK        -0.1875 
     32 C          23.3650  -25.3394  -40.4292 C.2       4 UNK         0.4949 
     33 O          24.3547  -24.6955  -40.7799 O.2       4 UNK        -0.5039 
     34 N          23.3485  -26.2385  -39.4345 N.am      5 UNK        -0.4663 
     35 CA         24.4705  -26.6655  -38.5847 C.3       5 UNK         0.0242 
     36 CB         24.9892  -25.4892  -37.7300 C.3       5 UNK        -0.1982 
     37 C          25.6142  -27.3810  -39.3357 C.2       5 UNK         0.5017 
     38 O          26.6468  -27.6564  -38.7225 O.2       5 UNK        -0.5012 
     39 N          25.4178  -27.6837  -40.6257 N.am      6 UNK        -0.4439 
     40 CA         26.3821  -28.3615  -41.4854 C.3       6 UNK         0.0297 
     41 CB         26.4698  -27.6371  -42.8403 C.3       6 UNK        -0.2006 
     42 C          25.9900  -29.8296  -41.6735 C.2       6 UNK         0.4892 
     43 O          26.8286  -30.7033  -41.4485 O.2       6 UNK        -0.5089 
     44 N          24.7376  -30.0798  -42.0842 N.am      7 UNK        -0.4243 
     45 CA         24.2585  -31.4167  -42.4468 C.3       7 UNK         0.0196 
     46 CB         24.8522  -31.8374  -43.8119 C.3       7 UNK        -0.2007 
     47 C          22.7253  -31.5355  -42.4301 C.2       7 UNK         0.5020 
     48 O          22.2013  -32.4136  -43.1072 O.2       7 UNK        -0.5147 
     49 N          22.0212  -30.6848  -41.6676 N.am      8 UNK        -0.4734 
     50 CA         20.5500  -30.5644  -41.6384 C.3       8 UNK         0.0238 
     51 CB         20.1723  -29.2632  -40.9031 C.3       8 UNK        -0.1912 
     52 C          19.7537  -31.7671  -41.0820 C.2       8 UNK         0.5038 
     53 O          18.5400  -31.6451  -40.9120 O.2       8 UNK        -0.5046 
     54 N          20.4210  -32.8929  -40.7997 N.am      9 UNK        -0.4200 
     55 CA         19.8257  -34.1686  -40.3638 C.3       9 UNK         0.0839 
     56 C          19.1313  -34.1277  -38.9672 C.2       9 UNK         0.5513 
     57 N          19.4356  -33.1611  -38.1093 N.am      9 UNK        -0.7519 
     58 O          18.3339  -35.0020  -38.6365 O.2       9 UNK        -0.4960 
     59 C59        18.9413  -34.8201  -41.4690 C.3       10 UNK        -0.0876 
     60 S60        19.9035  -35.2377  -42.9642 S.3       10 UNK        -0.2414 
     61 C61        18.7848  -34.7380  -44.3126 C.3       10 UNK         0.0169 
     62 H62        17.5422  -25.1009  -39.4319 H         1 UNK         0.0903 
     63 H63        18.8174  -26.1976  -39.9744 H         1 UNK         0.0903 
     64 H64        19.0931  -24.4544  -39.9594 H         1 UNK         0.0903 
     65 H65        17.5391  -27.1329  -41.6781 H         1 UNK         0.3096 
     66 H66        16.1498  -25.5275  -43.6302 H         1 UNK         0.1121 
     67 H67        15.5169  -27.7342  -44.5919 H         1 UNK         0.0849 
     68 H68        15.1045  -27.5523  -42.9215 H         1 UNK         0.0849 
     69 H69        15.7910  -30.6798  -44.7402 H         1 UNK         0.0865 
     70 H70        16.7030  -29.4343  -45.5517 H         1 UNK         0.0865 
     71 H71        16.9201  -32.7569  -44.0063 H         1 UNK         0.1346 
     72 H72        20.8989  -33.4513  -45.4368 H         1 UNK         0.1412 
     73 H73        19.1345  -29.5547  -45.7805 H         1 UNK         0.1426 
     74 H74        21.5305  -31.4001  -47.3250 H         1 UNK         0.0716 
     75 H75        22.3335  -31.3951  -45.7754 H         1 UNK         0.0716 
     76 H76        22.9787  -29.2132  -44.4294 H         1 UNK         0.0695 
     77 H77        21.2596  -29.1226  -44.1193 H         1 UNK         0.0695 
     78 H78        23.0339  -26.8212  -45.0609 H         1 UNK         0.0983 
     79 H79        20.1132  -27.0058  -45.0041 H         1 UNK         0.3095 
     80 H80        19.6021  -23.5279  -45.5475 H         1 UNK         0.0454 
     81 H81        19.0885  -25.9167  -47.3938 H         1 UNK         0.0851 
     82 H82        19.8692  -24.4068  -47.8232 H         1 UNK         0.0851 
     83 H83        18.1682  -24.4125  -47.3879 H         1 UNK         0.0851 
     84 H84        18.1972  -24.3345  -44.0537 H         1 UNK         0.2976 
     85 H85        21.7492  -25.0115  -43.2614 H         1 UNK         0.3116 
     86 H86        21.2644  -25.7296  -40.6634 H         1 UNK         0.0646 
     87 H87        20.6466  -23.5469  -41.6777 H         1 UNK         0.0847 
     88 H88        22.3387  -23.0625  -41.7281 H         1 UNK         0.0847 
     89 H89        21.5329  -23.2888  -40.1832 H         1 UNK         0.0847 
     90 H90        22.4790  -26.7243  -39.2612 H         1 UNK         0.3040 
     91 H91        24.0615  -27.4106  -37.9003 H         1 UNK         0.1015 
     92 H92        25.4824  -24.7310  -38.3389 H         1 UNK         0.0786 
     93 H93        25.7148  -25.8309  -36.9906 H         1 UNK         0.0786 
     94 H94        24.1783  -25.0067  -37.1844 H         1 UNK         0.0786 
     95 H95        24.5225  -27.4515  -41.0451 H         1 UNK         0.3172 
     96 H96        27.3760  -28.3337  -41.0336 H         1 UNK         0.0595 
     97 H97        25.5181  -27.6354  -43.3717 H         1 UNK         0.0839 
     98 H98        27.2033  -28.1167  -43.4899 H         1 UNK         0.0839 
     99 H99        26.7799  -26.5999  -42.7121 H         1 UNK         0.0839 
    100 H100       24.1002  -29.3024  -42.2404 H         1 UNK         0.2998 
    101 H101       24.6113  -32.1226  -41.6920 H         1 UNK         0.0822 
    102 H102       25.9417  -31.8516  -43.7921 H         1 UNK         0.0787 
    103 H103       24.5335  -32.8416  -44.0945 H         1 UNK         0.0787 
    104 H104       24.5432  -31.1595  -44.6077 H         1 UNK         0.0787 
    105 H105       22.5284  -30.0095  -41.1144 H         1 UNK         0.3055 
    106 H106       20.2091  -30.4747  -42.6712 H         1 UNK         0.1106 
    107 H107       20.5258  -29.2668  -39.8720 H         1 UNK         0.0828 
    108 H108       19.0914  -29.1202  -40.8762 H         1 UNK         0.0828 
    109 H109       20.5856  -28.3886  -41.4005 H         1 UNK         0.0828 
    110 H110       21.4039  -32.9189  -41.0273 H         1 UNK         0.2931 
    111 H111       20.6759  -34.8338  -40.2089 H         1 UNK         0.0412 
    112 H112       20.0921  -32.4413  -38.3658 H         1 UNK         0.3472 
    113 H113       18.9935  -33.1453  -37.2036 H         1 UNK         0.3472 
    114 H114       18.1078  -34.1659  -41.7289 H         1 UNK         0.0970 
    115 H115       18.4945  -35.7494  -41.1120 H         1 UNK         0.0970 
    116 H116       19.0293  -35.3300  -45.1956 H         1 UNK         0.0612 
    117 H117       17.7584  -34.9997  -44.0505 H         1 UNK         0.0612 
@<TRIPOS>BOND
     1    1    2 1    
     2    1   62 1    
     3    1   63 1    
     4    1   64 1    
     5    2    3 2    
     6    2    4 am   BACKBONE|DICT|INTERRES
     7    4    5 1    
     8    4   65 1    
     9    5    6 1    
    10    5   25 1    
    11    5   66 1    
    12    6    7 1    
    13    6   67 1    
    14    6   68 1    
    15    7    8 1    
    16    8    9 1    
    17    8   69 1    
    18    8   70 1    
    19    9   10 ar   
    20    9   14 ar   
    21   10   11 ar   
    22   10   71 1    
    23   11   12 ar   
    24   11   61 1    
    25   12   13 ar   
    26   12   72 1    
    27   13   14 ar   
    28   13   15 1    
    29   14   73 1    
    30   15   16 1    
    31   15   74 1    
    32   15   75 1    
    33   16   17 1    
    34   17   18 1    
    35   17   76 1    
    36   17   77 1    
    37   18   19 1    
    38   18   27 1    
    39   18   78 1    
    40   19   20 am   BACKBONE|DICT|INTERRES
    41   19   79 1    
    42   20   21 2    
    43   20   22 1    
    44   22   23 1    
    45   22   24 1    
    46   22   80 1    
    47   23   81 1    
    48   23   82 1    
    49   23   83 1    
    50   24   25 am   BACKBONE|DICT|INTERRES
    51   24   84 1    
    52   25   26 2    
    53   27   28 2    
    54   27   29 am   BACKBONE|DICT|INTERRES
    55   29   30 1    
    56   29   85 1    
    57   30   31 1    
    58   30   32 1    
    59   30   86 1    
    60   31   87 1    
    61   31   88 1    
    62   31   89 1    
    63   32   33 2    
    64   32   34 am   BACKBONE|DICT|INTERRES
    65   34   35 1    
    66   34   90 1    
    67   35   36 1    
    68   35   37 1    
    69   35   91 1    
    70   36   92 1    
    71   36   93 1    
    72   36   94 1    
    73   37   38 2    
    74   37   39 am   BACKBONE|DICT|INTERRES
    75   39   40 1    
    76   39   95 1    
    77   40   41 1    
    78   40   42 1    
    79   40   96 1    
    80   41   97 1    
    81   41   98 1    
    82   41   99 1    
    83   42   43 2    
    84   42   44 am   BACKBONE|DICT|INTERRES
    85   44   45 1    
    86   44  100 1    
    87   45   46 1    
    88   45   47 1    
    89   45  101 1    
    90   46  102 1    
    91   46  103 1    
    92   46  104 1    
    93   47   48 2    
    94   47   49 am   BACKBONE|DICT|INTERRES
    95   49   50 1    
    96   49  105 1    
    97   50   51 1    
    98   50   52 1    
    99   50  106 1    
   100   51  107 1    
   101   51  108 1    
   102   51  109 1    
   103   52   53 2    
   104   52   54 am   BACKBONE|DICT|INTERRES
   105   54   55 1    
   106   54  110 1    
   107   55   56 1    
   108   55   59 1    
   109   55  111 1    
   110   56   57 am   BACKBONE|DICT|INTERRES
   111   56   58 2    
   112   57  112 1    
   113   57  113 1    
   114   59   60 1    
   115   59  114 1    
   116   59  115 1    
   117   60   61 1    
   118   61  116 1    
   119   61  117 1    
@<TRIPOS>SUBSTRUCTURE
     1 UNK         1 GROUP             0       ****    0 ROOT    
