@<TRIPOS>MOLECULE
3R8
117   119    1
SMALL
USER_CHARGES


@<TRIPOS>ATOM
      1 CA         13.5667  -22.4163  -45.6572 C.3       0 UNK        -0.2013 
      2 C          14.6129  -23.5204  -45.6877 C.2       0 UNK         0.4866 
      3 O          15.0488  -23.9217  -46.7673 O.2       0 UNK        -0.5176 
      4 N          15.0150  -24.0210  -44.5125 N.am      1 UNK        -0.4884 
      5 CA         16.0583  -25.0359  -44.3515 C.3       1 UNK         0.0853 
      6 C6         15.9463  -25.7258  -42.9690 C.3       10 UNK        -0.0849 
      7 S7         17.1267  -27.0964  -42.7542 S.3       10 UNK        -0.2776 
      8 C8         16.1838  -28.5054  -43.4157 C.3       10 UNK         0.0316 
      9 C9         17.1208  -29.6845  -43.6018 C.ar      10 UNK        -0.0863 
     10 C10        17.2199  -30.6777  -42.6232 C.ar      10 UNK        -0.1009 
     11 C11        18.1719  -31.6937  -42.7462 C.ar      10 UNK        -0.0712 
     12 C12        19.0297  -31.7080  -43.8505 C.ar      10 UNK        -0.0894 
     13 C13        18.9416  -30.7158  -44.8312 C.ar      10 UNK        -0.0745 
     14 C14        17.9565  -29.7300  -44.7205 C.ar      10 UNK        -0.0972 
     15 C15        19.9602  -30.6719  -45.9648 C.3       10 UNK         0.0209 
     16 S16        20.7510  -29.0343  -46.1765 S.3       10 UNK        -0.2568 
     17 C17        21.2026  -28.5503  -44.4686 C.3       10 UNK        -0.0983 
     18 CA         21.5198  -27.0368  -44.3375 C.3       3 UNK         0.0876 
     19 N          20.4478  -26.1919  -44.8849 N.am      3 UNK        -0.4424 
     20 C          20.6192  -24.9696  -45.4069 C.2       2 UNK         0.4918 
     21 O          21.6925  -24.3659  -45.3698 O.2       2 UNK        -0.4875 
     22 CA         19.4176  -24.3050  -46.0997 C.3       2 UNK         0.0481 
     23 CB         19.5381  -24.4672  -47.6236 C.3       2 UNK        -0.1831 
     24 N          18.1220  -24.8348  -45.6680 N.am      2 UNK        -0.4498 
     25 C          17.4430  -24.3977  -44.5986 C.2       1 UNK         0.5027 
     26 O          17.8506  -23.5187  -43.8353 O.2       1 UNK        -0.4969 
     27 C          21.8742  -26.6308  -42.8878 C.2       3 UNK         0.5005 
     28 O          21.8643  -27.4688  -41.9830 O.2       3 UNK        -0.5279 
     29 N          22.1942  -25.3432  -42.6920 N.am      4 UNK        -0.4463 
     30 CA         22.4746  -24.6918  -41.4053 C.3       4 UNK         0.0283 
     31 CB         22.6840  -23.1879  -41.6449 C.3       4 UNK        -0.1875 
     32 C          23.6586  -25.2802  -40.6135 C.2       4 UNK         0.4949 
     33 O          23.7449  -25.0537  -39.4066 O.2       4 UNK        -0.5039 
     34 N          24.5335  -26.0367  -41.2903 N.am      5 UNK        -0.4663 
     35 CA         25.6226  -26.8083  -40.6881 C.3       5 UNK         0.0242 
     36 CB         26.5559  -27.3079  -41.8034 C.3       5 UNK        -0.1982 
     37 C          25.1429  -27.9927  -39.8264 C.2       5 UNK         0.5017 
     38 O          25.9248  -28.4774  -39.0088 O.2       5 UNK        -0.5012 
     39 N          23.9004  -28.4608  -40.0369 N.am      6 UNK        -0.4439 
     40 CA         23.1829  -29.5367  -39.3301 C.3       6 UNK         0.0297 
     41 CB         22.9984  -29.1928  -37.8398 C.3       6 UNK        -0.2006 
     42 C          23.7558  -30.9593  -39.4960 C.2       6 UNK         0.4892 
     43 O          22.9949  -31.9208  -39.3890 O.2       6 UNK        -0.5089 
     44 N          25.0581  -31.0878  -39.7846 N.am      7 UNK        -0.4243 
     45 CA         25.7790  -32.3470  -40.0100 C.3       7 UNK         0.0196 
     46 CB         27.2651  -32.0368  -40.2488 C.3       7 UNK        -0.2007 
     47 C          25.2168  -33.2003  -41.1620 C.2       7 UNK         0.5020 
     48 O          25.3567  -34.4233  -41.1336 O.2       7 UNK        -0.5147 
     49 N          24.5513  -32.5501  -42.1276 N.am      8 UNK        -0.4734 
     50 CA         23.8226  -33.1793  -43.2330 C.3       8 UNK         0.0238 
     51 CB         23.3049  -32.0833  -44.1786 C.3       8 UNK        -0.1912 
     52 C          22.6577  -34.0830  -42.7842 C.2       8 UNK         0.5038 
     53 O          22.2677  -34.9681  -43.5467 O.2       8 UNK        -0.5046 
     54 N          22.1301  -33.8566  -41.5728 N.am      9 UNK        -0.4200 
     55 CA         21.0874  -34.6849  -40.9496 C.3       9 UNK         0.0839 
     56 C          21.6190  -36.0122  -40.3336 C.2       9 UNK         0.5513 
     57 N          22.9246  -36.2537  -40.2761 N.am      9 UNK        -0.7519 
     58 O          20.8260  -36.8467  -39.9053 O.2       9 UNK        -0.4960 
     59 C59        20.2352  -33.8917  -39.9190 C.3       10 UNK        -0.0876 
     60 S60        19.6619  -32.2682  -40.5249 S.3       10 UNK        -0.2414 
     61 C61        18.3248  -32.7440  -41.6602 C.3       10 UNK         0.0169 
     62 H62        13.2634  -22.1688  -44.6401 H         1 UNK         0.0903 
     63 H63        13.9610  -21.5134  -46.1227 H         1 UNK         0.0903 
     64 H64        12.6795  -22.7249  -46.2096 H         1 UNK         0.0903 
     65 H65        14.6463  -23.6309  -43.6563 H         1 UNK         0.3096 
     66 H66        15.8901  -25.8021  -45.1119 H         1 UNK         0.1121 
     67 H67        16.1138  -25.0044  -42.1668 H         1 UNK         0.0849 
     68 H68        14.9353  -26.1088  -42.8197 H         1 UNK         0.0849 
     69 H69        15.3683  -28.7570  -42.7356 H         1 UNK         0.0865 
     70 H70        15.7274  -28.2401  -44.3705 H         1 UNK         0.0865 
     71 H71        16.5866  -30.6378  -41.7474 H         1 UNK         0.1346 
     72 H72        19.7927  -32.4717  -43.9201 H         1 UNK         0.1412 
     73 H73        17.8953  -28.9497  -45.4666 H         1 UNK         0.1426 
     74 H74        20.7455  -31.4110  -45.8028 H         1 UNK         0.0716 
     75 H75        19.4656  -30.9481  -46.8966 H         1 UNK         0.0716 
     76 H76        20.3968  -28.8124  -43.7825 H         1 UNK         0.0695 
     77 H77        22.0657  -29.1452  -44.1667 H         1 UNK         0.0695 
     78 H78        22.4211  -26.8577  -44.9286 H         1 UNK         0.0983 
     79 H79        19.5300  -26.6090  -44.9174 H         1 UNK         0.3095 
     80 H80        19.4585  -23.2370  -45.8747 H         1 UNK         0.0454 
     81 H81        19.5129  -25.5157  -47.9234 H         1 UNK         0.0851 
     82 H82        18.7318  -23.9489  -48.1430 H         1 UNK         0.0851 
     83 H83        20.4770  -24.0476  -47.9881 H         1 UNK         0.0851 
     84 H84        17.6990  -25.5326  -46.2636 H         1 UNK         0.2976 
     85 H85        22.1765  -24.7422  -43.5114 H         1 UNK         0.3116 
     86 H86        21.5861  -24.8171  -40.7832 H         1 UNK         0.0646 
     87 H87        22.8599  -22.6617  -40.7054 H         1 UNK         0.0847 
     88 H88        21.8082  -22.7330  -42.1083 H         1 UNK         0.0847 
     89 H89        23.5428  -22.9984  -42.2901 H         1 UNK         0.0847 
     90 H90        24.3884  -26.1496  -42.2828 H         1 UNK         0.3040 
     91 H91        26.1894  -26.1419  -40.0339 H         1 UNK         0.1015 
     92 H92        26.9683  -26.4779  -42.3776 H         1 UNK         0.0786 
     93 H93        26.0393  -27.9734  -42.4963 H         1 UNK         0.0786 
     94 H94        27.3999  -27.8613  -41.3886 H         1 UNK         0.0786 
     95 H95        23.3468  -28.0030  -40.7577 H         1 UNK         0.3172 
     96 H96        22.1902  -29.5602  -39.7833 H         1 UNK         0.0595 
     97 H97        22.3683  -29.9336  -37.3455 H         1 UNK         0.0839 
     98 H98        22.5173  -28.2228  -37.7138 H         1 UNK         0.0839 
     99 H99        23.9485  -29.1689  -37.3054 H         1 UNK         0.0839 
    100 H100       25.6126  -30.2382  -39.7616 H         1 UNK         0.2998 
    101 H101       25.6914  -32.9399  -39.0973 H         1 UNK         0.0822 
    102 H102       27.7030  -31.5133  -39.3985 H         1 UNK         0.0787 
    103 H103       27.8380  -32.9541  -40.3930 H         1 UNK         0.0787 
    104 H104       27.4103  -31.4177  -41.1351 H         1 UNK         0.0787 
    105 H105       24.4904  -31.5450  -42.0574 H         1 UNK         0.3055 
    106 H106       24.5285  -33.8082  -43.7800 H         1 UNK         0.1106 
    107 H107       24.1140  -31.4488  -44.5406 H         1 UNK         0.0828 
    108 H108       22.8253  -32.5227  -45.0542 H         1 UNK         0.0828 
    109 H109       22.5673  -31.4469  -43.6882 H         1 UNK         0.0828 
    110 H110       22.5060  -33.1153  -40.9913 H         1 UNK         0.2931 
    111 H111       20.4091  -34.9957  -41.7454 H         1 UNK         0.0412 
    112 H112       23.2467  -37.1214  -39.8771 H         1 UNK         0.3472 
    113 H113       23.5961  -35.5816  -40.6257 H         1 UNK         0.3472 
    114 H114       20.8183  -33.7110  -39.0138 H         1 UNK         0.0970 
    115 H115       19.3670  -34.4753  -39.6072 H         1 UNK         0.0970 
    116 H116       17.3973  -32.8640  -41.0984 H         1 UNK         0.0612 
    117 H117       18.5367  -33.7093  -42.1200 H         1 UNK         0.0612 
@<TRIPOS>BOND
     1    1    2 1    
     2    1   62 1    
     3    1   63 1    
     4    1   64 1    
     5    2    3 2    
     6    2    4 am   BACKBONE|DICT|INTERRES
     7    4    5 1    
     8    4   65 1    
     9    5    6 1    
    10    5   25 1    
    11    5   66 1    
    12    6    7 1    
    13    6   67 1    
    14    6   68 1    
    15    7    8 1    
    16    8    9 1    
    17    8   69 1    
    18    8   70 1    
    19    9   10 ar   
    20    9   14 ar   
    21   10   11 ar   
    22   10   71 1    
    23   11   12 ar   
    24   11   61 1    
    25   12   13 ar   
    26   12   72 1    
    27   13   14 ar   
    28   13   15 1    
    29   14   73 1    
    30   15   16 1    
    31   15   74 1    
    32   15   75 1    
    33   16   17 1    
    34   17   18 1    
    35   17   76 1    
    36   17   77 1    
    37   18   19 1    
    38   18   27 1    
    39   18   78 1    
    40   19   20 am   BACKBONE|DICT|INTERRES
    41   19   79 1    
    42   20   21 2    
    43   20   22 1    
    44   22   23 1    
    45   22   24 1    
    46   22   80 1    
    47   23   81 1    
    48   23   82 1    
    49   23   83 1    
    50   24   25 am   BACKBONE|DICT|INTERRES
    51   24   84 1    
    52   25   26 2    
    53   27   28 2    
    54   27   29 am   BACKBONE|DICT|INTERRES
    55   29   30 1    
    56   29   85 1    
    57   30   31 1    
    58   30   32 1    
    59   30   86 1    
    60   31   87 1    
    61   31   88 1    
    62   31   89 1    
    63   32   33 2    
    64   32   34 am   BACKBONE|DICT|INTERRES
    65   34   35 1    
    66   34   90 1    
    67   35   36 1    
    68   35   37 1    
    69   35   91 1    
    70   36   92 1    
    71   36   93 1    
    72   36   94 1    
    73   37   38 2    
    74   37   39 am   BACKBONE|DICT|INTERRES
    75   39   40 1    
    76   39   95 1    
    77   40   41 1    
    78   40   42 1    
    79   40   96 1    
    80   41   97 1    
    81   41   98 1    
    82   41   99 1    
    83   42   43 2    
    84   42   44 am   BACKBONE|DICT|INTERRES
    85   44   45 1    
    86   44  100 1    
    87   45   46 1    
    88   45   47 1    
    89   45  101 1    
    90   46  102 1    
    91   46  103 1    
    92   46  104 1    
    93   47   48 2    
    94   47   49 am   BACKBONE|DICT|INTERRES
    95   49   50 1    
    96   49  105 1    
    97   50   51 1    
    98   50   52 1    
    99   50  106 1    
   100   51  107 1    
   101   51  108 1    
   102   51  109 1    
   103   52   53 2    
   104   52   54 am   BACKBONE|DICT|INTERRES
   105   54   55 1    
   106   54  110 1    
   107   55   56 1    
   108   55   59 1    
   109   55  111 1    
   110   56   57 am   BACKBONE|DICT|INTERRES
   111   56   58 2    
   112   57  112 1    
   113   57  113 1    
   114   59   60 1    
   115   59  114 1    
   116   59  115 1    
   117   60   61 1    
   118   61  116 1    
   119   61  117 1    
@<TRIPOS>SUBSTRUCTURE
     1 UNK         1 GROUP             0       ****    0 ROOT    
