@<TRIPOS>MOLECULE
3R8
117   119    1
SMALL
USER_CHARGES


@<TRIPOS>ATOM
      1 CA         12.6028  -25.2903  -41.7377 C.3       0 UNK        -0.2013 
      2 C          14.0798  -25.1713  -42.0827 C.2       0 UNK         0.4866 
      3 O          14.8546  -24.6413  -41.2853 O.2       0 UNK        -0.5176 
      4 N          14.4720  -25.6481  -43.2700 N.am      1 UNK        -0.4884 
      5 CA         15.8579  -25.6874  -43.7473 C.3       1 UNK         0.0853 
      6 C6         15.9520  -25.8366  -45.2958 C.3       10 UNK        -0.0849 
      7 S7         14.7233  -26.9178  -46.1167 S.3       10 UNK        -0.2776 
      8 C8         15.0194  -28.5782  -45.4129 C.3       10 UNK         0.0316 
      9 C9         16.4182  -29.1581  -45.6275 C.ar      10 UNK        -0.0863 
     10 C10        16.9369  -30.0333  -44.6670 C.ar      10 UNK        -0.1009 
     11 C11        18.1698  -30.6617  -44.8602 C.ar      10 UNK        -0.0712 
     12 C12        18.8918  -30.4065  -46.0267 C.ar      10 UNK        -0.0894 
     13 C13        18.4042  -29.5134  -46.9860 C.ar      10 UNK        -0.0745 
     14 C14        17.1634  -28.8994  -46.7848 C.ar      10 UNK        -0.0972 
     15 C15        19.1857  -29.2562  -48.2678 C.3       10 UNK         0.0209 
     16 S16        20.9496  -28.9098  -47.9694 S.3       10 UNK        -0.2568 
     17 C17        20.9075  -27.2228  -47.2687 C.3       10 UNK        -0.0983 
     18 CA         21.3482  -27.0912  -45.7861 C.3       3 UNK         0.0876 
     19 N          20.3107  -27.5158  -44.8351 N.am      3 UNK        -0.4424 
     20 C          20.3239  -27.2017  -43.5297 C.2       2 UNK         0.4918 
     21 O          21.2372  -26.5813  -42.9840 O.2       2 UNK        -0.4875 
     22 CA         19.0612  -27.5411  -42.7319 C.3       2 UNK         0.0481 
     23 CB         19.2767  -27.4739  -41.2067 C.3       2 UNK        -0.1831 
     24 N          18.0369  -26.5964  -43.1598 N.am      2 UNK        -0.4498 
     25 C          16.7160  -26.7409  -43.0129 C.2       1 UNK         0.5027 
     26 O          16.1871  -27.6574  -42.3783 O.2       1 UNK        -0.4969 
     27 C          22.7360  -27.7059  -45.4979 C.2       3 UNK         0.5005 
     28 O          23.7506  -27.0445  -45.7298 O.2       3 UNK        -0.5279 
     29 N          22.7635  -28.9258  -44.9403 N.am      4 UNK        -0.4463 
     30 CA         23.9640  -29.5691  -44.4077 C.3       4 UNK         0.0283 
     31 CB         23.8025  -31.0987  -44.4668 C.3       4 UNK        -0.1875 
     32 C          24.2256  -29.0529  -42.9835 C.2       4 UNK         0.4949 
     33 O          24.0724  -29.7951  -42.0125 O.2       4 UNK        -0.5039 
     34 N          24.5931  -27.7695  -42.8817 N.am      5 UNK        -0.4663 
     35 CA         24.7969  -27.0426  -41.6237 C.3       5 UNK         0.0242 
     36 CB         25.0331  -25.5562  -41.9331 C.3       5 UNK        -0.1982 
     37 C          25.9326  -27.6031  -40.7497 C.2       5 UNK         0.5017 
     38 O          25.8671  -27.4779  -39.5272 O.2       5 UNK        -0.5012 
     39 N          26.9307  -28.2336  -41.3858 N.am      6 UNK        -0.4439 
     40 CA         28.0241  -28.9490  -40.7229 C.3       6 UNK         0.0297 
     41 CB         29.1297  -29.2533  -41.7465 C.3       6 UNK        -0.2006 
     42 C          27.5612  -30.2437  -40.0288 C.2       6 UNK         0.4892 
     43 O          28.1296  -30.6075  -38.9988 O.2       6 UNK        -0.5089 
     44 N          26.5434  -30.9075  -40.5959 N.am      7 UNK        -0.4243 
     45 CA         25.8966  -32.0851  -40.0130 C.3       7 UNK         0.0196 
     46 CB         25.3172  -32.9578  -41.1392 C.3       7 UNK        -0.2007 
     47 C          24.7901  -31.6953  -39.0192 C.2       7 UNK         0.5020 
     48 O          24.5310  -32.4562  -38.0871 O.2       7 UNK        -0.5147 
     49 N          24.1618  -30.5310  -39.2481 N.am      8 UNK        -0.4734 
     50 CA         23.0097  -29.9699  -38.5339 C.3       8 UNK         0.0238 
     51 CB         23.3566  -29.6590  -37.0623 C.3       8 UNK        -0.1912 
     52 C          21.7737  -30.8707  -38.6997 C.2       8 UNK         0.5038 
     53 O          21.1966  -31.3276  -37.7114 O.2       8 UNK        -0.5046 
     54 N          21.4256  -31.1363  -39.9658 N.am      9 UNK        -0.4200 
     55 CA         20.3686  -32.0696  -40.3861 C.3       9 UNK         0.0839 
     56 C          18.9025  -31.6817  -40.0224 C.2       9 UNK         0.5513 
     57 N          18.6353  -30.5020  -39.4770 N.am      9 UNK        -0.7519 
     58 O          17.9909  -32.4781  -40.2308 O.2       9 UNK        -0.4960 
     59 C59        20.5308  -32.4526  -41.8808 C.3       10 UNK        -0.0876 
     60 S60        20.2294  -31.0702  -43.0391 S.3       10 UNK        -0.2414 
     61 C61        18.7002  -31.6530  -43.8358 C.3       10 UNK         0.0169 
     62 H62        12.1781  -24.3030  -41.5582 H         1 UNK         0.0903 
     63 H63        12.0338  -25.7638  -42.5377 H         1 UNK         0.0903 
     64 H64        12.4762  -25.8856  -40.8338 H         1 UNK         0.0903 
     65 H65        13.7992  -26.0838  -43.8854 H         1 UNK         0.3096 
     66 H66        16.3017  -24.7216  -43.4925 H         1 UNK         0.1121 
     67 H67        15.8112  -24.8478  -45.7353 H         1 UNK         0.0849 
     68 H68        16.9503  -26.1368  -45.6198 H         1 UNK         0.0849 
     69 H69        14.7672  -28.5591  -44.3528 H         1 UNK         0.0865 
     70 H70        14.3051  -29.2644  -45.8694 H         1 UNK         0.0865 
     71 H71        16.3669  -30.2430  -43.7717 H         1 UNK         0.1346 
     72 H72        19.8361  -30.9091  -46.1875 H         1 UNK         0.1412 
     73 H73        16.7661  -28.2400  -47.5442 H         1 UNK         0.1426 
     74 H74        18.7514  -28.4325  -48.8368 H         1 UNK         0.0716 
     75 H75        19.1083  -30.1410  -48.9008 H         1 UNK         0.0716 
     76 H76        21.5621  -26.6086  -47.8896 H         1 UNK         0.0695 
     77 H77        19.9113  -26.7967  -47.3982 H         1 UNK         0.0695 
     78 H78        21.4754  -26.0198  -45.6119 H         1 UNK         0.0983 
     79 H79        19.5306  -28.0349  -45.2160 H         1 UNK         0.3095 
     80 H80        18.7486  -28.5506  -42.9967 H         1 UNK         0.0454 
     81 H81        19.5374  -26.4674  -40.8779 H         1 UNK         0.0851 
     82 H82        18.3823  -27.7812  -40.6654 H         1 UNK         0.0851 
     83 H83        20.0850  -28.1397  -40.9023 H         1 UNK         0.0851 
     84 H84        18.3860  -25.8073  -43.6874 H         1 UNK         0.2976 
     85 H85        21.8822  -29.3802  -44.7462 H         1 UNK         0.3116 
     86 H86        24.8252  -29.3051  -45.0253 H         1 UNK         0.0646 
     87 H87        23.6015  -31.4378  -45.4831 H         1 UNK         0.0847 
     88 H88        22.9925  -31.4518  -43.8302 H         1 UNK         0.0847 
     89 H89        24.7139  -31.5966  -44.1341 H         1 UNK         0.0847 
     90 H90        24.6399  -27.2289  -43.7382 H         1 UNK         0.3040 
     91 H91        23.8738  -27.1280  -41.0455 H         1 UNK         0.1015 
     92 H92        24.1850  -25.1250  -42.4660 H         1 UNK         0.0786 
     93 H93        25.9255  -25.4065  -42.5420 H         1 UNK         0.0786 
     94 H94        25.1628  -24.9813  -41.0149 H         1 UNK         0.0786 
     95 H95        26.9027  -28.2633  -42.3948 H         1 UNK         0.3172 
     96 H96        28.4417  -28.2930  -39.9560 H         1 UNK         0.0595 
     97 H97        29.9690  -29.7640  -41.2720 H         1 UNK         0.0839 
     98 H98        29.5210  -28.3390  -42.1930 H         1 UNK         0.0839 
     99 H99        28.7722  -29.8959  -42.5523 H         1 UNK         0.0839 
    100 H100       26.1057  -30.5166  -41.4192 H         1 UNK         0.2998 
    101 H101       26.6405  -32.6759  -39.4736 H         1 UNK         0.0822 
    102 H102       26.0893  -33.2563  -41.8484 H         1 UNK         0.0787 
    103 H103       24.8779  -33.8708  -40.7349 H         1 UNK         0.0787 
    104 H104       24.5333  -32.4401  -41.6927 H         1 UNK         0.0787 
    105 H105       24.4025  -30.0520  -40.1105 H         1 UNK         0.3055 
    106 H106       22.7724  -29.0224  -39.0208 H         1 UNK         0.1106 
    107 H107       23.5666  -30.5627  -36.4896 H         1 UNK         0.0828 
    108 H108       24.2277  -29.0073  -36.9924 H         1 UNK         0.0828 
    109 H109       22.5288  -29.1492  -36.5682 H         1 UNK         0.0828 
    110 H110       21.9602  -30.7160  -40.7136 H         1 UNK         0.2931 
    111 H111       20.5541  -32.9849  -39.8205 H         1 UNK         0.0412 
    112 H112       19.3794  -29.8592  -39.2652 H         1 UNK         0.3472 
    113 H113       17.6825  -30.2714  -39.2444 H         1 UNK         0.3472 
    114 H114       21.5421  -32.8226  -42.0564 H         1 UNK         0.0970 
    115 H115       19.8767  -33.2917  -42.1247 H         1 UNK         0.0970 
    116 H116       18.8929  -32.6063  -44.3301 H         1 UNK         0.0612 
    117 H117       17.9507  -31.8464  -43.0668 H         1 UNK         0.0612 
@<TRIPOS>BOND
     1    1    2 1    
     2    1   62 1    
     3    1   63 1    
     4    1   64 1    
     5    2    3 2    
     6    2    4 am   BACKBONE|DICT|INTERRES
     7    4    5 1    
     8    4   65 1    
     9    5    6 1    
    10    5   25 1    
    11    5   66 1    
    12    6    7 1    
    13    6   67 1    
    14    6   68 1    
    15    7    8 1    
    16    8    9 1    
    17    8   69 1    
    18    8   70 1    
    19    9   10 ar   
    20    9   14 ar   
    21   10   11 ar   
    22   10   71 1    
    23   11   12 ar   
    24   11   61 1    
    25   12   13 ar   
    26   12   72 1    
    27   13   14 ar   
    28   13   15 1    
    29   14   73 1    
    30   15   16 1    
    31   15   74 1    
    32   15   75 1    
    33   16   17 1    
    34   17   18 1    
    35   17   76 1    
    36   17   77 1    
    37   18   19 1    
    38   18   27 1    
    39   18   78 1    
    40   19   20 am   BACKBONE|DICT|INTERRES
    41   19   79 1    
    42   20   21 2    
    43   20   22 1    
    44   22   23 1    
    45   22   24 1    
    46   22   80 1    
    47   23   81 1    
    48   23   82 1    
    49   23   83 1    
    50   24   25 am   BACKBONE|DICT|INTERRES
    51   24   84 1    
    52   25   26 2    
    53   27   28 2    
    54   27   29 am   BACKBONE|DICT|INTERRES
    55   29   30 1    
    56   29   85 1    
    57   30   31 1    
    58   30   32 1    
    59   30   86 1    
    60   31   87 1    
    61   31   88 1    
    62   31   89 1    
    63   32   33 2    
    64   32   34 am   BACKBONE|DICT|INTERRES
    65   34   35 1    
    66   34   90 1    
    67   35   36 1    
    68   35   37 1    
    69   35   91 1    
    70   36   92 1    
    71   36   93 1    
    72   36   94 1    
    73   37   38 2    
    74   37   39 am   BACKBONE|DICT|INTERRES
    75   39   40 1    
    76   39   95 1    
    77   40   41 1    
    78   40   42 1    
    79   40   96 1    
    80   41   97 1    
    81   41   98 1    
    82   41   99 1    
    83   42   43 2    
    84   42   44 am   BACKBONE|DICT|INTERRES
    85   44   45 1    
    86   44  100 1    
    87   45   46 1    
    88   45   47 1    
    89   45  101 1    
    90   46  102 1    
    91   46  103 1    
    92   46  104 1    
    93   47   48 2    
    94   47   49 am   BACKBONE|DICT|INTERRES
    95   49   50 1    
    96   49  105 1    
    97   50   51 1    
    98   50   52 1    
    99   50  106 1    
   100   51  107 1    
   101   51  108 1    
   102   51  109 1    
   103   52   53 2    
   104   52   54 am   BACKBONE|DICT|INTERRES
   105   54   55 1    
   106   54  110 1    
   107   55   56 1    
   108   55   59 1    
   109   55  111 1    
   110   56   57 am   BACKBONE|DICT|INTERRES
   111   56   58 2    
   112   57  112 1    
   113   57  113 1    
   114   59   60 1    
   115   59  114 1    
   116   59  115 1    
   117   60   61 1    
   118   61  116 1    
   119   61  117 1    
@<TRIPOS>SUBSTRUCTURE
     1 UNK         1 GROUP             0       ****    0 ROOT    
