@<TRIPOS>MOLECULE
3R8
117   119    1
SMALL
USER_CHARGES


@<TRIPOS>ATOM
      1 CA         13.6229  -24.0844  -47.3779 C.3       0 UNK        -0.2013 
      2 C          14.7037  -25.1198  -47.1046 C.2       0 UNK         0.4866 
      3 O          14.7631  -26.1404  -47.7912 O.2       0 UNK        -0.5176 
      4 N          15.5599  -24.8646  -46.1118 N.am      1 UNK        -0.4884 
      5 CA         16.6623  -25.7308  -45.6965 C.3       1 UNK         0.0853 
      6 C6         16.1955  -26.9381  -44.8337 C.3       10 UNK        -0.0849 
      7 S7         15.2027  -26.4784  -43.3686 S.3       10 UNK        -0.2776 
      8 C8         14.8419  -28.1116  -42.6456 C.3       10 UNK         0.0316 
      9 C9         16.0772  -28.7602  -42.0347 C.ar      10 UNK        -0.0863 
     10 C10        16.5528  -29.9815  -42.5217 C.ar      10 UNK        -0.1009 
     11 C11        17.6784  -30.5828  -41.9493 C.ar      10 UNK        -0.0712 
     12 C12        18.3322  -29.9560  -40.8843 C.ar      10 UNK        -0.0894 
     13 C13        17.8819  -28.7209  -40.4097 C.ar      10 UNK        -0.0745 
     14 C14        16.7426  -28.1402  -40.9734 C.ar      10 UNK        -0.0972 
     15 C15        18.6377  -27.9896  -39.3118 C.3       10 UNK         0.0209 
     16 S16        19.5256  -26.5455  -39.9805 S.3       10 UNK        -0.2568 
     17 C17        21.0044  -27.3137  -40.7242 C.3       10 UNK        -0.0983 
     18 CA         20.8237  -27.7697  -42.2013 C.3       3 UNK         0.0876 
     19 N          20.2935  -26.7248  -43.0878 N.am      3 UNK        -0.4424 
     20 C          20.9001  -25.5816  -43.4389 C.2       2 UNK         0.4918 
     21 O          22.0216  -25.2553  -43.0493 O.2       2 UNK        -0.4875 
     22 CA         20.1365  -24.6541  -44.4044 C.3       2 UNK         0.0481 
     23 CB         21.0561  -24.1205  -45.5186 C.3       2 UNK        -0.1831 
     24 N          18.9796  -25.3209  -45.0186 N.am      2 UNK        -0.4498 
     25 C          17.7210  -24.8633  -44.9907 C.2       1 UNK         0.5027 
     26 O          17.3807  -23.8074  -44.4478 O.2       1 UNK        -0.4969 
     27 C          22.0867  -28.4630  -42.7650 C.2       3 UNK         0.5005 
     28 O          22.9298  -28.9204  -41.9910 O.2       3 UNK        -0.5279 
     29 N          22.2013  -28.5302  -44.1022 N.am      4 UNK        -0.4463 
     30 CA         23.2974  -29.1302  -44.8731 C.3       4 UNK         0.0283 
     31 CB         23.2418  -30.6707  -44.7734 C.3       4 UNK        -0.1875 
     32 C          24.6665  -28.5290  -44.4978 C.2       4 UNK         0.4949 
     33 O          24.9530  -27.3972  -44.8867 O.2       4 UNK        -0.5039 
     34 N          25.4684  -29.2758  -43.7283 N.am      5 UNK        -0.4663 
     35 CA         26.7754  -28.8698  -43.2012 C.3       5 UNK         0.0242 
     36 CB         27.6648  -30.1229  -43.0976 C.3       5 UNK        -0.1982 
     37 C          26.6796  -28.1298  -41.8484 C.2       5 UNK         0.5017 
     38 O          27.6804  -28.0601  -41.1340 O.2       5 UNK        -0.5012 
     39 N          25.4865  -27.6158  -41.5142 N.am      6 UNK        -0.4439 
     40 CA         25.0752  -27.0305  -40.2329 C.3       6 UNK         0.0297 
     41 CB         25.9391  -25.8116  -39.8424 C.3       6 UNK        -0.2006 
     42 C          24.9877  -28.1092  -39.1380 C.2       6 UNK         0.4892 
     43 O          25.5171  -27.9259  -38.0399 O.2       6 UNK        -0.5089 
     44 N          24.3334  -29.2269  -39.4758 N.am      7 UNK        -0.4243 
     45 CA         24.1809  -30.4146  -38.6403 C.3       7 UNK         0.0196 
     46 CB         25.5077  -31.2100  -38.5987 C.3       7 UNK        -0.2007 
     47 C          22.9768  -31.2233  -39.1521 C.2       7 UNK         0.5020 
     48 O          21.9311  -30.6391  -39.4395 O.2       7 UNK        -0.5147 
     49 N          23.1286  -32.5486  -39.2535 N.am      8 UNK        -0.4734 
     50 CA         22.1577  -33.4447  -39.8809 C.3       8 UNK         0.0238 
     51 CB         22.3334  -34.8575  -39.2996 C.3       8 UNK        -0.1912 
     52 C          22.3543  -33.4612  -41.4054 C.2       8 UNK         0.5038 
     53 O          23.4783  -33.2756  -41.8798 O.2       8 UNK        -0.5046 
     54 N          21.2654  -33.7220  -42.1359 N.am      9 UNK        -0.4200 
     55 CA         21.2500  -33.8147  -43.6060 C.3       9 UNK         0.0839 
     56 C          21.6611  -35.2091  -44.1626 C.2       9 UNK         0.5513 
     57 N          21.9003  -36.2178  -43.3328 N.am      9 UNK        -0.7519 
     58 O          21.7743  -35.3768  -45.3740 O.2       9 UNK        -0.4960 
     59 C59        19.8946  -33.3460  -44.1979 C.3       10 UNK        -0.0876 
     60 S60        19.4849  -31.6251  -43.7456 S.3       10 UNK        -0.2414 
     61 C61        18.1985  -31.9023  -42.4913 C.3       10 UNK         0.0169 
     62 H62        13.7125  -23.7076  -48.3964 H         1 UNK         0.0903 
     63 H63        12.6366  -24.5338  -47.2657 H         1 UNK         0.0903 
     64 H64        13.6886  -23.2371  -46.6954 H         1 UNK         0.0903 
     65 H65        15.5047  -24.0030  -45.5813 H         1 UNK         0.3096 
     66 H66        17.1322  -26.1208  -46.6027 H         1 UNK         0.1121 
     67 H67        15.5924  -27.6071  -45.4495 H         1 UNK         0.0849 
     68 H68        17.0512  -27.5329  -44.5095 H         1 UNK         0.0849 
     69 H69        14.0870  -27.9922  -41.8673 H         1 UNK         0.0865 
     70 H70        14.3952  -28.7525  -43.4075 H         1 UNK         0.0865 
     71 H71        16.0502  -30.4658  -43.3480 H         1 UNK         0.1346 
     72 H72        19.2158  -30.4094  -40.4537 H         1 UNK         0.1412 
     73 H73        16.3901  -27.1861  -40.6047 H         1 UNK         0.1426 
     74 H74        19.3364  -28.6543  -38.8008 H         1 UNK         0.0716 
     75 H75        17.9293  -27.6488  -38.5554 H         1 UNK         0.0716 
     76 H76        21.3083  -28.1502  -40.0939 H         1 UNK         0.0695 
     77 H77        21.8083  -26.5814  -40.6581 H         1 UNK         0.0695 
     78 H78        20.0723  -28.5550  -42.2140 H         1 UNK         0.0983 
     79 H79        19.3494  -26.8732  -43.4109 H         1 UNK         0.3095 
     80 H80        19.8082  -23.8042  -43.8031 H         1 UNK         0.0454 
     81 H81        21.4655  -24.9284  -46.1259 H         1 UNK         0.0851 
     82 H82        21.8984  -23.5655  -45.1035 H         1 UNK         0.0851 
     83 H83        20.5210  -23.4403  -46.1813 H         1 UNK         0.0851 
     84 H84        19.1752  -26.1757  -45.5217 H         1 UNK         0.2976 
     85 H85        21.4742  -28.0957  -44.6512 H         1 UNK         0.3116 
     86 H86        23.1260  -28.8648  -45.9174 H         1 UNK         0.0646 
     87 H87        22.3109  -31.0484  -45.1960 H         1 UNK         0.0847 
     88 H88        24.0555  -31.1349  -45.3323 H         1 UNK         0.0847 
     89 H89        23.2994  -31.0243  -43.7431 H         1 UNK         0.0847 
     90 H90        25.1180  -30.1701  -43.4141 H         1 UNK         0.3040 
     91 H91        27.2461  -28.1792  -43.9046 H         1 UNK         0.1015 
     92 H92        27.2763  -30.8326  -42.3659 H         1 UNK         0.0786 
     93 H93        28.6798  -29.8632  -42.7937 H         1 UNK         0.0786 
     94 H94        27.7410  -30.6362  -44.0564 H         1 UNK         0.0786 
     95 H95        24.7205  -27.8138  -42.1481 H         1 UNK         0.3172 
     96 H96        24.0605  -26.6653  -40.3844 H         1 UNK         0.0595 
     97 H97        26.9603  -26.0953  -39.5875 H         1 UNK         0.0839 
     98 H98        25.5209  -25.3064  -38.9711 H         1 UNK         0.0839 
     99 H99        25.9837  -25.0813  -40.6502 H         1 UNK         0.0839 
    100 H100       23.8490  -29.2588  -40.3730 H         1 UNK         0.2998 
    101 H101       23.9323  -30.0948  -37.6263 H         1 UNK         0.0822 
    102 H102       25.4424  -32.0631  -37.9224 H         1 UNK         0.0787 
    103 H103       25.7871  -31.5799  -39.5864 H         1 UNK         0.0787 
    104 H104       26.3299  -30.5922  -38.2374 H         1 UNK         0.0787 
    105 H105       24.0346  -32.9428  -39.0454 H         1 UNK         0.3055 
    106 H106       21.1472  -33.0943  -39.6561 H         1 UNK         0.1106 
    107 H107       22.2045  -34.8593  -38.2171 H         1 UNK         0.0828 
    108 H108       21.5951  -35.5467  -39.7114 H         1 UNK         0.0828 
    109 H109       23.3204  -35.2668  -39.5201 H         1 UNK         0.0828 
    110 H110       20.3880  -33.9006  -41.6719 H         1 UNK         0.2931 
    111 H111       22.0086  -33.1306  -43.9870 H         1 UNK         0.0412 
    112 H112       21.8216  -36.0933  -42.3369 H         1 UNK         0.3472 
    113 H113       22.1700  -37.1131  -43.7100 H         1 UNK         0.3472 
    114 H114       19.9224  -33.3905  -45.2884 H         1 UNK         0.0970 
    115 H115       19.0887  -34.0163  -43.8938 H         1 UNK         0.0970 
    116 H116       17.3812  -32.4779  -42.9289 H         1 UNK         0.0612 
    117 H117       18.6032  -32.5042  -41.6768 H         1 UNK         0.0612 
@<TRIPOS>BOND
     1    1    2 1    
     2    1   62 1    
     3    1   63 1    
     4    1   64 1    
     5    2    3 2    
     6    2    4 am   BACKBONE|DICT|INTERRES
     7    4    5 1    
     8    4   65 1    
     9    5    6 1    
    10    5   25 1    
    11    5   66 1    
    12    6    7 1    
    13    6   67 1    
    14    6   68 1    
    15    7    8 1    
    16    8    9 1    
    17    8   69 1    
    18    8   70 1    
    19    9   10 ar   
    20    9   14 ar   
    21   10   11 ar   
    22   10   71 1    
    23   11   12 ar   
    24   11   61 1    
    25   12   13 ar   
    26   12   72 1    
    27   13   14 ar   
    28   13   15 1    
    29   14   73 1    
    30   15   16 1    
    31   15   74 1    
    32   15   75 1    
    33   16   17 1    
    34   17   18 1    
    35   17   76 1    
    36   17   77 1    
    37   18   19 1    
    38   18   27 1    
    39   18   78 1    
    40   19   20 am   BACKBONE|DICT|INTERRES
    41   19   79 1    
    42   20   21 2    
    43   20   22 1    
    44   22   23 1    
    45   22   24 1    
    46   22   80 1    
    47   23   81 1    
    48   23   82 1    
    49   23   83 1    
    50   24   25 am   BACKBONE|DICT|INTERRES
    51   24   84 1    
    52   25   26 2    
    53   27   28 2    
    54   27   29 am   BACKBONE|DICT|INTERRES
    55   29   30 1    
    56   29   85 1    
    57   30   31 1    
    58   30   32 1    
    59   30   86 1    
    60   31   87 1    
    61   31   88 1    
    62   31   89 1    
    63   32   33 2    
    64   32   34 am   BACKBONE|DICT|INTERRES
    65   34   35 1    
    66   34   90 1    
    67   35   36 1    
    68   35   37 1    
    69   35   91 1    
    70   36   92 1    
    71   36   93 1    
    72   36   94 1    
    73   37   38 2    
    74   37   39 am   BACKBONE|DICT|INTERRES
    75   39   40 1    
    76   39   95 1    
    77   40   41 1    
    78   40   42 1    
    79   40   96 1    
    80   41   97 1    
    81   41   98 1    
    82   41   99 1    
    83   42   43 2    
    84   42   44 am   BACKBONE|DICT|INTERRES
    85   44   45 1    
    86   44  100 1    
    87   45   46 1    
    88   45   47 1    
    89   45  101 1    
    90   46  102 1    
    91   46  103 1    
    92   46  104 1    
    93   47   48 2    
    94   47   49 am   BACKBONE|DICT|INTERRES
    95   49   50 1    
    96   49  105 1    
    97   50   51 1    
    98   50   52 1    
    99   50  106 1    
   100   51  107 1    
   101   51  108 1    
   102   51  109 1    
   103   52   53 2    
   104   52   54 am   BACKBONE|DICT|INTERRES
   105   54   55 1    
   106   54  110 1    
   107   55   56 1    
   108   55   59 1    
   109   55  111 1    
   110   56   57 am   BACKBONE|DICT|INTERRES
   111   56   58 2    
   112   57  112 1    
   113   57  113 1    
   114   59   60 1    
   115   59  114 1    
   116   59  115 1    
   117   60   61 1    
   118   61  116 1    
   119   61  117 1    
@<TRIPOS>SUBSTRUCTURE
     1 UNK         1 GROUP             0       ****    0 ROOT    
