@<TRIPOS>MOLECULE
3R8
117   119    1
SMALL
USER_CHARGES


@<TRIPOS>ATOM
      1 CA         14.7508  -26.0973  -41.1436 C.3       0 UNK        -0.2013 
      2 C          15.7299  -27.2526  -40.9536 C.2       0 UNK         0.4866 
      3 O          15.9142  -27.7097  -39.8280 O.2       0 UNK        -0.5176 
      4 N          16.3791  -27.7619  -42.0098 N.am      1 UNK        -0.4884 
      5 CA         16.2881  -27.3233  -43.4119 C.3       1 UNK         0.0853 
      6 C6         16.7587  -28.4321  -44.3834 C.3       10 UNK        -0.0849 
      7 S7         15.8718  -30.0180  -44.1616 S.3       10 UNK        -0.2776 
      8 C8         16.3214  -30.9304  -45.6796 C.3       10 UNK         0.0316 
      9 C9         17.8186  -30.8700  -45.9374 C.ar      10 UNK        -0.0863 
     10 C10        18.7019  -31.6082  -45.1449 C.ar      10 UNK        -0.1009 
     11 C11        20.0827  -31.4233  -45.2660 C.ar      10 UNK        -0.0712 
     12 C12        20.5768  -30.5491  -46.2371 C.ar      10 UNK        -0.0894 
     13 C13        19.7000  -29.8052  -47.0318 C.ar      10 UNK        -0.0745 
     14 C14        18.3231  -29.9869  -46.8953 C.ar      10 UNK        -0.0972 
     15 C15        20.2310  -28.7244  -47.9594 C.3       10 UNK         0.0209 
     16 S16        20.1582  -27.0896  -47.1511 S.3       10 UNK        -0.2568 
     17 C17        21.3766  -27.3245  -45.8178 C.3       10 UNK        -0.0983 
     18 CA         21.5656  -26.0744  -44.9302 C.3       3 UNK         0.0876 
     19 N          20.3832  -25.7860  -44.1124 N.am      3 UNK        -0.4424 
     20 C          19.9970  -24.5578  -43.7465 C.2       2 UNK         0.4918 
     21 O          20.5421  -23.5263  -44.1428 O.2       2 UNK        -0.4875 
     22 CA         18.8350  -24.4634  -42.7366 C.3       2 UNK         0.0481 
     23 CB         18.0388  -23.1458  -42.8516 C.3       2 UNK        -0.1831 
     24 N          17.9500  -25.6346  -42.7382 N.am      2 UNK        -0.4498 
     25 C          17.0730  -26.0175  -43.6798 C.2       1 UNK         0.5027 
     26 O          16.8607  -25.3926  -44.7187 O.2       1 UNK        -0.4969 
     27 C          22.7967  -26.2809  -44.0299 C.2       3 UNK         0.5005 
     28 O          23.8768  -25.7913  -44.3614 O.2       3 UNK        -0.5279 
     29 N          22.6142  -27.0351  -42.9322 N.am      4 UNK        -0.4463 
     30 CA         23.6383  -27.4781  -41.9740 C.3       4 UNK         0.0283 
     31 CB         24.2299  -26.2823  -41.2001 C.3       4 UNK        -0.1875 
     32 C          24.7243  -28.3910  -42.5787 C.2       4 UNK         0.4949 
     33 O          25.8005  -28.5186  -41.9949 O.2       4 UNK        -0.5039 
     34 N          24.4187  -29.0551  -43.7039 N.am      5 UNK        -0.4663 
     35 CA         25.3259  -29.9646  -44.4160 C.3       5 UNK         0.0242 
     36 CB         24.6997  -30.3583  -45.7627 C.3       5 UNK        -0.1982 
     37 C          25.6925  -31.2198  -43.6044 C.2       5 UNK         0.5017 
     38 O          26.8242  -31.6946  -43.6992 O.2       5 UNK        -0.5012 
     39 N          24.7362  -31.7021  -42.8014 N.am      6 UNK        -0.4439 
     40 CA         24.8975  -32.7870  -41.8312 C.3       6 UNK         0.0297 
     41 CB         23.8224  -33.8574  -42.0977 C.3       6 UNK        -0.2006 
     42 C          24.8243  -32.2543  -40.3865 C.2       6 UNK         0.4892 
     43 O          24.5119  -33.0243  -39.4769 O.2       6 UNK        -0.5089 
     44 N          25.0774  -30.9477  -40.2000 N.am      7 UNK        -0.4243 
     45 CA         25.0203  -30.1521  -38.9639 C.3       7 UNK         0.0196 
     46 CB         26.0257  -30.6610  -37.9126 C.3       7 UNK        -0.2007 
     47 C          23.6107  -30.0060  -38.3630 C.2       7 UNK         0.5020 
     48 O          23.1827  -28.8841  -38.0940 O.2       7 UNK        -0.5147 
     49 N          22.9084  -31.1293  -38.1726 N.am      8 UNK        -0.4734 
     50 CA         21.5614  -31.2073  -37.5972 C.3       8 UNK         0.0238 
     51 CB         21.2208  -32.6788  -37.3125 C.3       8 UNK        -0.1912 
     52 C          20.4747  -30.5642  -38.4760 C.2       8 UNK         0.5038 
     53 O          19.4779  -30.0795  -37.9407 O.2       8 UNK        -0.5046 
     54 N          20.6954  -30.5595  -39.7959 N.am      9 UNK        -0.4200 
     55 CA         19.8447  -29.9165  -40.8066 C.3       9 UNK         0.0839 
     56 C          20.1239  -28.3979  -41.0095 C.2       9 UNK         0.5513 
     57 N          20.7522  -27.7044  -40.0698 N.am      9 UNK        -0.7519 
     58 O          19.7907  -27.8341  -42.0498 O.2       9 UNK        -0.4960 
     59 C59        19.8307  -30.7238  -42.1295 C.3       10 UNK        -0.0876 
     60 S60        21.4644  -30.9357  -42.9227 S.3       10 UNK        -0.2414 
     61 C61        21.0352  -32.0818  -44.2789 C.3       10 UNK         0.0169 
     62 H62        13.9532  -26.3695  -41.8340 H         1 UNK         0.0903 
     63 H63        14.2856  -25.8341  -40.1938 H         1 UNK         0.0903 
     64 H64        15.2569  -25.2085  -41.5182 H         1 UNK         0.0903 
     65 H65        16.9944  -28.5474  -41.8573 H         1 UNK         0.3096 
     66 H66        15.2422  -27.1144  -43.6438 H         1 UNK         0.1121 
     67 H67        16.6216  -28.1069  -45.4168 H         1 UNK         0.0849 
     68 H68        17.8284  -28.6150  -44.2590 H         1 UNK         0.0849 
     69 H69        16.0045  -31.9698  -45.5832 H         1 UNK         0.0865 
     70 H70        15.7667  -30.5175  -46.5237 H         1 UNK         0.0865 
     71 H71        18.3110  -32.2614  -44.3767 H         1 UNK         0.1346 
     72 H72        21.6411  -30.3839  -46.3180 H         1 UNK         0.1412 
     73 H73        17.6456  -29.3840  -47.4848 H         1 UNK         0.1426 
     74 H74        19.6383  -28.6976  -48.8750 H         1 UNK         0.0716 
     75 H75        21.2568  -28.9413  -48.2616 H         1 UNK         0.0716 
     76 H76        21.0641  -28.1637  -45.1956 H         1 UNK         0.0695 
     77 H77        22.3183  -27.6152  -46.2889 H         1 UNK         0.0695 
     78 H78        21.7773  -25.2241  -45.5828 H         1 UNK         0.0983 
     79 H79        19.9032  -26.5767  -43.6988 H         1 UNK         0.3095 
     80 H80        19.3075  -24.4648  -41.7534 H         1 UNK         0.0454 
     81 H81        18.6809  -22.2844  -42.6640 H         1 UNK         0.0851 
     82 H82        17.2276  -23.1060  -42.1249 H         1 UNK         0.0851 
     83 H83        17.6089  -23.0149  -43.8447 H         1 UNK         0.0851 
     84 H84        18.0849  -26.2739  -41.9647 H         1 UNK         0.2976 
     85 H85        21.6758  -27.3708  -42.7425 H         1 UNK         0.3116 
     86 H86        23.1246  -28.1075  -41.2481 H         1 UNK         0.0646 
     87 H87        23.4451  -25.6680  -40.7593 H         1 UNK         0.0847 
     88 H88        24.8678  -26.6212  -40.3829 H         1 UNK         0.0847 
     89 H89        24.8370  -25.6437  -41.8422 H         1 UNK         0.0847 
     90 H90        23.5046  -28.9124  -44.1061 H         1 UNK         0.3040 
     91 H91        26.2522  -29.4200  -44.6132 H         1 UNK         0.1015 
     92 H92        25.3904  -30.9673  -46.3477 H         1 UNK         0.0786 
     93 H93        24.4552  -29.4815  -46.3627 H         1 UNK         0.0786 
     94 H94        23.7902  -30.9427  -45.6274 H         1 UNK         0.0786 
     95 H95        23.8333  -31.2443  -42.8138 H         1 UNK         0.3172 
     96 H96        25.8768  -33.2558  -41.9447 H         1 UNK         0.0595 
     97 H97        22.8177  -33.4816  -41.9018 H         1 UNK         0.0839 
     98 H98        23.9719  -34.7303  -41.4610 H         1 UNK         0.0839 
     99 H99        23.8550  -34.2044  -43.1305 H         1 UNK         0.0839 
    100 H100       25.3450  -30.4131  -41.0184 H         1 UNK         0.2998 
    101 H101       25.3370  -29.1480  -39.2515 H         1 UNK         0.0822 
    102 H102       26.0384  -30.0068  -37.0398 H         1 UNK         0.0787 
    103 H103       27.0388  -30.6845  -38.3141 H         1 UNK         0.0787 
    104 H104       25.7819  -31.6636  -37.5604 H         1 UNK         0.0787 
    105 H105       23.3525  -32.0023  -38.4518 H         1 UNK         0.3055 
    106 H106       21.5715  -30.6653  -36.6488 H         1 UNK         0.1106 
    107 H107       21.2255  -33.2781  -38.2240 H         1 UNK         0.0828 
    108 H108       21.9322  -33.1229  -36.6159 H         1 UNK         0.0828 
    109 H109       20.2302  -32.7719  -36.8648 H         1 UNK         0.0828 
    110 H110       21.5533  -30.9653  -40.1374 H         1 UNK         0.2931 
    111 H111       18.8186  -29.9470  -40.4357 H         1 UNK         0.0412 
    112 H112       20.9188  -26.7211  -40.2040 H         1 UNK         0.3472 
    113 H113       21.0655  -28.1530  -39.2220 H         1 UNK         0.3472 
    114 H114       19.4138  -31.7141  -41.9403 H         1 UNK         0.0970 
    115 H115       19.1512  -30.2516  -42.8399 H         1 UNK         0.0970 
    116 H116       21.9479  -32.3897  -44.7907 H         1 UNK         0.0612 
    117 H117       20.5948  -32.9896  -43.8637 H         1 UNK         0.0612 
@<TRIPOS>BOND
     1    1    2 1    
     2    1   62 1    
     3    1   63 1    
     4    1   64 1    
     5    2    3 2    
     6    2    4 am   BACKBONE|DICT|INTERRES
     7    4    5 1    
     8    4   65 1    
     9    5    6 1    
    10    5   25 1    
    11    5   66 1    
    12    6    7 1    
    13    6   67 1    
    14    6   68 1    
    15    7    8 1    
    16    8    9 1    
    17    8   69 1    
    18    8   70 1    
    19    9   10 ar   
    20    9   14 ar   
    21   10   11 ar   
    22   10   71 1    
    23   11   12 ar   
    24   11   61 1    
    25   12   13 ar   
    26   12   72 1    
    27   13   14 ar   
    28   13   15 1    
    29   14   73 1    
    30   15   16 1    
    31   15   74 1    
    32   15   75 1    
    33   16   17 1    
    34   17   18 1    
    35   17   76 1    
    36   17   77 1    
    37   18   19 1    
    38   18   27 1    
    39   18   78 1    
    40   19   20 am   BACKBONE|DICT|INTERRES
    41   19   79 1    
    42   20   21 2    
    43   20   22 1    
    44   22   23 1    
    45   22   24 1    
    46   22   80 1    
    47   23   81 1    
    48   23   82 1    
    49   23   83 1    
    50   24   25 am   BACKBONE|DICT|INTERRES
    51   24   84 1    
    52   25   26 2    
    53   27   28 2    
    54   27   29 am   BACKBONE|DICT|INTERRES
    55   29   30 1    
    56   29   85 1    
    57   30   31 1    
    58   30   32 1    
    59   30   86 1    
    60   31   87 1    
    61   31   88 1    
    62   31   89 1    
    63   32   33 2    
    64   32   34 am   BACKBONE|DICT|INTERRES
    65   34   35 1    
    66   34   90 1    
    67   35   36 1    
    68   35   37 1    
    69   35   91 1    
    70   36   92 1    
    71   36   93 1    
    72   36   94 1    
    73   37   38 2    
    74   37   39 am   BACKBONE|DICT|INTERRES
    75   39   40 1    
    76   39   95 1    
    77   40   41 1    
    78   40   42 1    
    79   40   96 1    
    80   41   97 1    
    81   41   98 1    
    82   41   99 1    
    83   42   43 2    
    84   42   44 am   BACKBONE|DICT|INTERRES
    85   44   45 1    
    86   44  100 1    
    87   45   46 1    
    88   45   47 1    
    89   45  101 1    
    90   46  102 1    
    91   46  103 1    
    92   46  104 1    
    93   47   48 2    
    94   47   49 am   BACKBONE|DICT|INTERRES
    95   49   50 1    
    96   49  105 1    
    97   50   51 1    
    98   50   52 1    
    99   50  106 1    
   100   51  107 1    
   101   51  108 1    
   102   51  109 1    
   103   52   53 2    
   104   52   54 am   BACKBONE|DICT|INTERRES
   105   54   55 1    
   106   54  110 1    
   107   55   56 1    
   108   55   59 1    
   109   55  111 1    
   110   56   57 am   BACKBONE|DICT|INTERRES
   111   56   58 2    
   112   57  112 1    
   113   57  113 1    
   114   59   60 1    
   115   59  114 1    
   116   59  115 1    
   117   60   61 1    
   118   61  116 1    
   119   61  117 1    
@<TRIPOS>SUBSTRUCTURE
     1 UNK         1 GROUP             0       ****    0 ROOT    
