@<TRIPOS>MOLECULE
3R8
117   119    1
SMALL
USER_CHARGES


@<TRIPOS>ATOM
      1 CA         15.6053  -22.4917  -47.3578 C.3       0 UNK        -0.2013 
      2 C          16.4541  -23.6466  -47.8683 C.2       0 UNK         0.4866 
      3 O          16.4840  -23.9002  -49.0731 O.2       0 UNK        -0.5176 
      4 N          17.1468  -24.3442  -46.9644 N.am      1 UNK        -0.4884 
      5 CA         18.0288  -25.4748  -47.2515 C.3       1 UNK         0.0853 
      6 C6         17.2461  -26.7871  -47.5446 C.3       10 UNK        -0.0849 
      7 S7         16.1977  -27.3724  -46.1632 S.3       10 UNK        -0.2776 
      8 C8         17.1382  -28.8405  -45.6177 C.3       10 UNK         0.0316 
      9 C9         17.0151  -29.1873  -44.1340 C.ar      10 UNK        -0.0863 
     10 C10        17.3867  -30.4715  -43.7223 C.ar      10 UNK        -0.1009 
     11 C11        17.3882  -30.8184  -42.3688 C.ar      10 UNK        -0.0712 
     12 C12        16.9808  -29.8807  -41.4183 C.ar      10 UNK        -0.0894 
     13 C13        16.6448  -28.5812  -41.8073 C.ar      10 UNK        -0.0745 
     14 C14        16.6476  -28.2436  -43.1644 C.ar      10 UNK        -0.0972 
     15 C15        16.3913  -27.5175  -40.7508 C.3       10 UNK         0.0209 
     16 S16        17.8937  -27.2026  -39.7614 S.3       10 UNK        -0.2568 
     17 C17        19.0502  -26.4862  -40.9865 C.3       10 UNK        -0.0983 
     18 CA         19.8838  -27.5163  -41.8047 C.3       3 UNK         0.0876 
     19 N          20.4103  -26.8858  -43.0159 N.am      3 UNK        -0.4424 
     20 C          20.6382  -27.5120  -44.1744 C.2       2 UNK         0.4918 
     21 O          20.4238  -28.7078  -44.3738 O.2       2 UNK        -0.4875 
     22 CA         21.1664  -26.6373  -45.3245 C.3       2 UNK         0.0481 
     23 CB         22.3701  -27.2954  -46.0203 C.3       2 UNK        -0.1831 
     24 N          20.1164  -26.3732  -46.3124 N.am      2 UNK        -0.4498 
     25 C          19.0418  -25.6008  -46.0956 C.2       1 UNK         0.5027 
     26 O          18.8419  -24.9889  -45.0407 O.2       1 UNK        -0.4969 
     27 C          21.0034  -28.2084  -40.9968 C.2       3 UNK         0.5005 
     28 O          22.1784  -28.1578  -41.3729 O.2       3 UNK        -0.5279 
     29 N          20.6177  -28.8386  -39.8792 N.am      4 UNK        -0.4463 
     30 CA         21.4653  -29.6275  -38.9778 C.3       4 UNK         0.0283 
     31 CB         20.5995  -30.2023  -37.8464 C.3       4 UNK        -0.1875 
     32 C          22.6749  -28.8729  -38.3998 C.2       4 UNK         0.4949 
     33 O          23.6741  -29.5110  -38.0725 O.2       4 UNK        -0.5039 
     34 N          22.5996  -27.5358  -38.3432 N.am      5 UNK        -0.4663 
     35 CA         23.7120  -26.6429  -38.0027 C.3       5 UNK         0.0242 
     36 CB         23.1862  -25.2021  -37.9023 C.3       5 UNK        -0.1982 
     37 C          24.8937  -26.7174  -38.9915 C.2       5 UNK         0.5017 
     38 O          26.0270  -26.4587  -38.5859 O.2       5 UNK        -0.5012 
     39 N          24.6197  -27.0881  -40.2516 N.am      6 UNK        -0.4439 
     40 CA         25.6243  -27.3454  -41.2869 C.3       6 UNK         0.0297 
     41 CB         25.0611  -26.8950  -42.6472 C.3       6 UNK        -0.2006 
     42 C          26.0458  -28.8275  -41.3433 C.2       6 UNK         0.4892 
     43 O          26.9283  -29.1593  -42.1353 O.2       6 UNK        -0.5089 
     44 N          25.4033  -29.6896  -40.5357 N.am      7 UNK        -0.4243 
     45 CA         25.5631  -31.1495  -40.4644 C.3       7 UNK         0.0196 
     46 CB         26.9605  -31.5209  -39.9243 C.3       7 UNK        -0.2007 
     47 C          25.2186  -31.8764  -41.7817 C.2       7 UNK         0.5020 
     48 O          25.7597  -32.9496  -42.0509 O.2       7 UNK        -0.5147 
     49 N          24.3279  -31.2801  -42.5856 N.am      8 UNK        -0.4734 
     50 CA         23.9551  -31.7695  -43.9158 C.3       8 UNK         0.0238 
     51 CB         23.4872  -30.5745  -44.7602 C.3       8 UNK        -0.1912 
     52 C          22.8818  -32.8727  -43.8974 C.2       8 UNK         0.5038 
     53 O          22.7258  -33.5652  -44.9044 O.2       8 UNK        -0.5046 
     54 N          22.1501  -33.0022  -42.7835 N.am      9 UNK        -0.4200 
     55 CA         21.0636  -33.9752  -42.5904 C.3       9 UNK         0.0839 
     56 C          21.5664  -35.4439  -42.5843 C.2       9 UNK         0.5513 
     57 N          20.7972  -36.3654  -43.1476 N.am      9 UNK        -0.7519 
     58 O          22.6189  -35.7595  -42.0330 O.2       9 UNK        -0.4960 
     59 C59        20.2425  -33.6772  -41.3084 C.3       10 UNK        -0.0876 
     60 S60        19.6107  -31.9687  -41.2722 S.3       10 UNK        -0.2414 
     61 C61        17.9238  -32.1689  -41.9233 C.3       10 UNK         0.0169 
     62 H62        15.6720  -22.3847  -46.2752 H         1 UNK         0.0903 
     63 H63        15.9313  -21.5564  -47.8120 H         1 UNK         0.0903 
     64 H64        14.5594  -22.6514  -47.6184 H         1 UNK         0.0903 
     65 H65        17.1394  -24.0849  -45.9846 H         1 UNK         0.3096 
     66 H66        18.6107  -25.2189  -48.1402 H         1 UNK         0.1121 
     67 H67        17.9313  -27.5772  -47.8554 H         1 UNK         0.0849 
     68 H68        16.5937  -26.6326  -48.4053 H         1 UNK         0.0849 
     69 H69        16.8210  -29.6906  -46.2238 H         1 UNK         0.0865 
     70 H70        18.1972  -28.6926  -45.8279 H         1 UNK         0.0865 
     71 H71        17.7262  -31.1903  -44.4559 H         1 UNK         0.1346 
     72 H72        17.0100  -30.1366  -40.3677 H         1 UNK         0.1412 
     73 H73        16.4179  -27.2276  -43.4525 H         1 UNK         0.1426 
     74 H74        15.5919  -27.8526  -40.0885 H         1 UNK         0.0716 
     75 H75        16.0504  -26.5840  -41.2013 H         1 UNK         0.0716 
     76 H76        18.4534  -25.8741  -41.6655 H         1 UNK         0.0695 
     77 H77        19.7102  -25.7873  -40.4694 H         1 UNK         0.0695 
     78 H78        19.2289  -28.3237  -42.1271 H         1 UNK         0.0983 
     79 H79        20.6163  -25.9000  -42.9515 H         1 UNK         0.3095 
     80 H80        21.5025  -25.6812  -44.9171 H         1 UNK         0.0454 
     81 H81        23.1713  -27.4896  -45.3067 H         1 UNK         0.0851 
     82 H82        22.7810  -26.6517  -46.7981 H         1 UNK         0.0851 
     83 H83        22.1046  -28.2489  -46.4786 H         1 UNK         0.0851 
     84 H84        20.2044  -26.8546  -47.1957 H         1 UNK         0.2976 
     85 H85        19.6357  -28.7877  -39.6387 H         1 UNK         0.3116 
     86 H86        21.8604  -30.4616  -39.5610 H         1 UNK         0.0646 
     87 H87        20.1397  -29.4138  -37.2493 H         1 UNK         0.0847 
     88 H88        19.8034  -30.8359  -38.2382 H         1 UNK         0.0847 
     89 H89        21.1960  -30.8175  -37.1712 H         1 UNK         0.0847 
     90 H90        21.7353  -27.0992  -38.6290 H         1 UNK         0.3040 
     91 H91        24.0911  -26.9422  -37.0228 H         1 UNK         0.1015 
     92 H92        23.9854  -24.5136  -37.6236 H         1 UNK         0.0786 
     93 H93        22.4077  -25.1148  -37.1441 H         1 UNK         0.0786 
     94 H94        22.7737  -24.8554  -38.8508 H         1 UNK         0.0786 
     95 H95        23.6594  -27.3128  -40.5051 H         1 UNK         0.3172 
     96 H96        26.5218  -26.7578  -41.0831 H         1 UNK         0.0595 
     97 H97        24.1956  -27.4878  -42.9444 H         1 UNK         0.0839 
     98 H98        25.8093  -26.9991  -43.4341 H         1 UNK         0.0839 
     99 H99        24.7592  -25.8479  -42.6260 H         1 UNK         0.0839 
    100 H100       24.7269  -29.3081  -39.8850 H         1 UNK         0.2998 
    101 H101       24.8295  -31.4960  -39.7349 H         1 UNK         0.0822 
    102 H102       27.0339  -32.5914  -39.7288 H         1 UNK         0.0787 
    103 H103       27.1713  -31.0074  -38.9861 H         1 UNK         0.0787 
    104 H104       27.7495  -31.2654  -40.6322 H         1 UNK         0.0787 
    105 H105       23.9280  -30.3993  -42.2925 H         1 UNK         0.3055 
    106 H106       24.8401  -32.1950  -44.3951 H         1 UNK         0.1106 
    107 H107       22.6236  -30.0853  -44.3110 H         1 UNK         0.0828 
    108 H108       24.2773  -29.8310  -44.8672 H         1 UNK         0.0828 
    109 H109       23.1995  -30.8882  -45.7646 H         1 UNK         0.0828 
    110 H110       22.3489  -32.3941  -42.0048 H         1 UNK         0.2931 
    111 H111       20.3911  -33.8592  -43.4432 H         1 UNK         0.0412 
    112 H112       21.0982  -37.3279  -43.1384 H         1 UNK         0.3472 
    113 H113       19.9274  -36.1179  -43.5942 H         1 UNK         0.3472 
    114 H114       19.4041  -34.3703  -41.2149 H         1 UNK         0.0970 
    115 H115       20.8576  -33.8267  -40.4189 H         1 UNK         0.0970 
    116 H116       17.2802  -32.5979  -41.1540 H         1 UNK         0.0612 
    117 H117       17.9328  -32.8706  -42.7589 H         1 UNK         0.0612 
@<TRIPOS>BOND
     1    1    2 1    
     2    1   62 1    
     3    1   63 1    
     4    1   64 1    
     5    2    3 2    
     6    2    4 am   BACKBONE|DICT|INTERRES
     7    4    5 1    
     8    4   65 1    
     9    5    6 1    
    10    5   25 1    
    11    5   66 1    
    12    6    7 1    
    13    6   67 1    
    14    6   68 1    
    15    7    8 1    
    16    8    9 1    
    17    8   69 1    
    18    8   70 1    
    19    9   10 ar   
    20    9   14 ar   
    21   10   11 ar   
    22   10   71 1    
    23   11   12 ar   
    24   11   61 1    
    25   12   13 ar   
    26   12   72 1    
    27   13   14 ar   
    28   13   15 1    
    29   14   73 1    
    30   15   16 1    
    31   15   74 1    
    32   15   75 1    
    33   16   17 1    
    34   17   18 1    
    35   17   76 1    
    36   17   77 1    
    37   18   19 1    
    38   18   27 1    
    39   18   78 1    
    40   19   20 am   BACKBONE|DICT|INTERRES
    41   19   79 1    
    42   20   21 2    
    43   20   22 1    
    44   22   23 1    
    45   22   24 1    
    46   22   80 1    
    47   23   81 1    
    48   23   82 1    
    49   23   83 1    
    50   24   25 am   BACKBONE|DICT|INTERRES
    51   24   84 1    
    52   25   26 2    
    53   27   28 2    
    54   27   29 am   BACKBONE|DICT|INTERRES
    55   29   30 1    
    56   29   85 1    
    57   30   31 1    
    58   30   32 1    
    59   30   86 1    
    60   31   87 1    
    61   31   88 1    
    62   31   89 1    
    63   32   33 2    
    64   32   34 am   BACKBONE|DICT|INTERRES
    65   34   35 1    
    66   34   90 1    
    67   35   36 1    
    68   35   37 1    
    69   35   91 1    
    70   36   92 1    
    71   36   93 1    
    72   36   94 1    
    73   37   38 2    
    74   37   39 am   BACKBONE|DICT|INTERRES
    75   39   40 1    
    76   39   95 1    
    77   40   41 1    
    78   40   42 1    
    79   40   96 1    
    80   41   97 1    
    81   41   98 1    
    82   41   99 1    
    83   42   43 2    
    84   42   44 am   BACKBONE|DICT|INTERRES
    85   44   45 1    
    86   44  100 1    
    87   45   46 1    
    88   45   47 1    
    89   45  101 1    
    90   46  102 1    
    91   46  103 1    
    92   46  104 1    
    93   47   48 2    
    94   47   49 am   BACKBONE|DICT|INTERRES
    95   49   50 1    
    96   49  105 1    
    97   50   51 1    
    98   50   52 1    
    99   50  106 1    
   100   51  107 1    
   101   51  108 1    
   102   51  109 1    
   103   52   53 2    
   104   52   54 am   BACKBONE|DICT|INTERRES
   105   54   55 1    
   106   54  110 1    
   107   55   56 1    
   108   55   59 1    
   109   55  111 1    
   110   56   57 am   BACKBONE|DICT|INTERRES
   111   56   58 2    
   112   57  112 1    
   113   57  113 1    
   114   59   60 1    
   115   59  114 1    
   116   59  115 1    
   117   60   61 1    
   118   61  116 1    
   119   61  117 1    
@<TRIPOS>SUBSTRUCTURE
     1 UNK         1 GROUP             0       ****    0 ROOT    
