@<TRIPOS>MOLECULE
3R8
117   119    1
SMALL
USER_CHARGES


@<TRIPOS>ATOM
      1 CA         14.1339  -21.9068  -47.2306 C.3       0 UNK        -0.2013 
      2 C          14.5637  -23.3624  -47.3354 C.2       0 UNK         0.4866 
      3 O          14.5892  -23.9155  -48.4354 O.2       0 UNK        -0.5176 
      4 N          14.8937  -23.9898  -46.1997 N.am      1 UNK        -0.4884 
      5 CA         15.3974  -25.3647  -46.1244 C.3       1 UNK         0.0853 
      6 C6         15.2734  -25.9234  -44.6836 C.3       10 UNK        -0.0849 
      7 S7         15.2182  -27.7464  -44.6438 S.3       10 UNK        -0.2776 
      8 C8         15.1391  -28.0651  -42.8528 C.3       10 UNK         0.0316 
      9 C9         16.5237  -28.1452  -42.2244 C.ar      10 UNK        -0.0863 
     10 C10        17.1818  -29.3758  -42.1371 C.ar      10 UNK        -0.1009 
     11 C11        18.4389  -29.4695  -41.5324 C.ar      10 UNK        -0.0712 
     12 C12        19.0392  -28.3209  -41.0113 C.ar      10 UNK        -0.0894 
     13 C13        18.4043  -27.0791  -41.1191 C.ar      10 UNK        -0.0745 
     14 C14        17.1413  -26.9995  -41.7144 C.ar      10 UNK        -0.0972 
     15 C15        19.0915  -25.8191  -40.6133 C.3       10 UNK         0.0209 
     16 S16        20.6490  -25.4895  -41.5006 S.3       10 UNK        -0.2568 
     17 C17        20.0809  -25.2977  -43.2279 C.3       10 UNK        -0.0983 
     18 CA         20.2395  -26.5782  -44.0902 C.3       3 UNK         0.0876 
     19 N          19.6174  -26.3998  -45.3991 N.am      3 UNK        -0.4424 
     20 C          19.3980  -27.3642  -46.2999 C.2       2 UNK         0.4918 
     21 O          19.7301  -28.5403  -46.1468 O.2       2 UNK        -0.4875 
     22 CA         18.6126  -26.9365  -47.5549 C.3       2 UNK         0.0481 
     23 CB         18.5875  -28.0292  -48.6391 C.3       2 UNK        -0.1831 
     24 N          17.2359  -26.5888  -47.1949 N.am      2 UNK        -0.4498 
     25 C          16.8561  -25.4398  -46.6209 C.2       1 UNK         0.5027 
     26 O          17.6239  -24.4934  -46.4199 O.2       1 UNK        -0.4969 
     27 C          21.7127  -27.0167  -44.2181 C.2       3 UNK         0.5005 
     28 O          22.4822  -26.3880  -44.9497 O.2       3 UNK        -0.5279 
     29 N          22.0739  -28.0583  -43.4634 N.am      4 UNK        -0.4463 
     30 CA         23.4331  -28.5567  -43.2800 C.3       4 UNK         0.0283 
     31 CB         23.7519  -29.6332  -44.3336 C.3       4 UNK        -0.1875 
     32 C          23.5743  -29.0504  -41.8336 C.2       4 UNK         0.4949 
     33 O          24.0548  -30.1604  -41.5964 O.2       4 UNK        -0.5039 
     34 N          23.1271  -28.2139  -40.8829 N.am      5 UNK        -0.4663 
     35 CA         23.0720  -28.4974  -39.4426 C.3       5 UNK         0.0242 
     36 CB         22.4343  -27.3082  -38.7076 C.3       5 UNK        -0.1982 
     37 C          24.4257  -28.8498  -38.8045 C.2       5 UNK         0.5017 
     38 O          24.4494  -29.6244  -37.8492 O.2       5 UNK        -0.5012 
     39 N          25.5247  -28.3344  -39.3737 N.am      6 UNK        -0.4439 
     40 CA         26.9049  -28.6606  -38.9964 C.3       6 UNK         0.0297 
     41 CB         27.8700  -27.7612  -39.7850 C.3       6 UNK        -0.2006 
     42 C          27.2732  -30.1451  -39.1954 C.2       6 UNK         0.4892 
     43 O          28.1497  -30.6439  -38.4892 O.2       6 UNK        -0.5089 
     44 N          26.5902  -30.8196  -40.1297 N.am      7 UNK        -0.4243 
     45 CA         26.6925  -32.2567  -40.3888 C.3       7 UNK         0.0196 
     46 CB         26.9657  -32.4557  -41.8910 C.3       7 UNK        -0.2007 
     47 C          25.4101  -32.9995  -39.9670 C.2       7 UNK         0.5020 
     48 O          25.2690  -34.1782  -40.2943 O.2       7 UNK        -0.5147 
     49 N          24.4727  -32.2990  -39.3054 N.am      8 UNK        -0.4734 
     50 CA         23.1135  -32.7313  -38.9437 C.3       8 UNK         0.0238 
     51 CB         23.1698  -33.7854  -37.8184 C.3       8 UNK        -0.1912 
     52 C          22.2702  -33.1991  -40.1510 C.2       8 UNK         0.5038 
     53 O          21.3867  -34.0420  -39.9857 O.2       8 UNK        -0.5046 
     54 N          22.5805  -32.6677  -41.3427 N.am      9 UNK        -0.4200 
     55 CA         22.0859  -33.1173  -42.6542 C.3       9 UNK         0.0839 
     56 C          22.4628  -34.5872  -43.0233 C.2       9 UNK         0.5513 
     57 N          23.4688  -35.1944  -42.4040 N.am      9 UNK        -0.7519 
     58 O          21.8588  -35.1825  -43.9120 O.2       9 UNK        -0.4960 
     59 C59        20.5819  -32.7953  -42.8809 C.3       10 UNK        -0.0876 
     60 S60        20.2501  -31.0018  -42.9028 S.3       10 UNK        -0.2414 
     61 C61        19.1558  -30.8077  -41.4671 C.3       10 UNK         0.0169 
     62 H62        13.1260  -21.7834  -47.6260 H         1 UNK         0.0903 
     63 H63        14.1390  -21.5528  -46.2001 H         1 UNK         0.0903 
     64 H64        14.8070  -21.2751  -47.8093 H         1 UNK         0.0903 
     65 H65        14.8898  -23.4742  -45.3312 H         1 UNK         0.3096 
     66 H66        14.7767  -25.9700  -46.7897 H         1 UNK         0.1121 
     67 H67        16.0813  -25.5597  -44.0460 H         1 UNK         0.0849 
     68 H68        14.3471  -25.5705  -44.2268 H         1 UNK         0.0849 
     69 H69        14.5388  -27.2984  -42.3606 H         1 UNK         0.0865 
     70 H70        14.6100  -29.0054  -42.6911 H         1 UNK         0.0865 
     71 H71        16.7161  -30.2632  -42.5441 H         1 UNK         0.1346 
     72 H72        20.0149  -28.3884  -40.5515 H         1 UNK         0.1412 
     73 H73        16.6399  -26.0442  -41.7847 H         1 UNK         0.1426 
     74 H74        19.3026  -25.9288  -39.5490 H         1 UNK         0.0716 
     75 H75        18.4388  -24.9499  -40.7084 H         1 UNK         0.0716 
     76 H76        19.0359  -24.9832  -43.2163 H         1 UNK         0.0695 
     77 H77        20.6340  -24.4696  -43.6750 H         1 UNK         0.0695 
     78 H78        19.6844  -27.3840  -43.6068 H         1 UNK         0.0983 
     79 H79        19.2740  -25.4715  -45.6161 H         1 UNK         0.3095 
     80 H80        19.1076  -26.0597  -47.9774 H         1 UNK         0.0454 
     81 H81        18.0898  -28.9353  -48.2918 H         1 UNK         0.0851 
     82 H82        18.0717  -27.6861  -49.5358 H         1 UNK         0.0851 
     83 H83        19.5999  -28.3069  -48.9352 H         1 UNK         0.0851 
     84 H84        16.5583  -27.3352  -47.2637 H         1 UNK         0.2976 
     85 H85        21.3662  -28.5327  -42.9169 H         1 UNK         0.3116 
     86 H86        24.1445  -27.7368  -43.3978 H         1 UNK         0.0646 
     87 H87        24.7460  -30.0554  -44.1810 H         1 UNK         0.0847 
     88 H88        23.7280  -29.2166  -45.3404 H         1 UNK         0.0847 
     89 H89        23.0348  -30.4519  -44.2981 H         1 UNK         0.0847 
     90 H90        22.7578  -27.3192  -41.1758 H         1 UNK         0.3040 
     91 H91        22.4240  -29.3661  -39.3099 H         1 UNK         0.1015 
     92 H92        21.4066  -27.1467  -39.0277 H         1 UNK         0.0786 
     93 H93        22.9881  -26.3839  -38.8757 H         1 UNK         0.0786 
     94 H94        22.4067  -27.4807  -37.6307 H         1 UNK         0.0786 
     95 H95        25.3997  -27.7064  -40.1544 H         1 UNK         0.3172 
     96 H96        27.0179  -28.4359  -37.9338 H         1 UNK         0.0595 
     97 H97        27.6827  -26.7057  -39.5872 H         1 UNK         0.0839 
     98 H98        27.7869  -27.9233  -40.8604 H         1 UNK         0.0839 
     99 H99        28.9054  -27.9613  -39.5056 H         1 UNK         0.0839 
    100 H100       25.8690  -30.3350  -40.6544 H         1 UNK         0.2998 
    101 H101       27.5185  -32.6942  -39.8244 H         1 UNK         0.0822 
    102 H102       27.8737  -31.9379  -42.2001 H         1 UNK         0.0787 
    103 H103       27.0995  -33.5111  -42.1320 H         1 UNK         0.0787 
    104 H104       26.1421  -32.0823  -42.5018 H         1 UNK         0.0787 
    105 H105       24.6988  -31.3467  -39.0436 H         1 UNK         0.3055 
    106 H106       22.6048  -31.8515  -38.5470 H         1 UNK         0.1106 
    107 H107       23.6132  -34.7202  -38.1629 H         1 UNK         0.0828 
    108 H108       23.7544  -33.4288  -36.9705 H         1 UNK         0.0828 
    109 H109       22.1714  -34.0169  -37.4456 H         1 UNK         0.0828 
    110 H110       23.2875  -31.9397  -41.3742 H         1 UNK         0.2931 
    111 H111       22.6484  -32.5278  -43.3769 H         1 UNK         0.0412 
    112 H112       23.7046  -36.1385  -42.6646 H         1 UNK         0.3472 
    113 H113       23.9955  -34.7317  -41.6695 H         1 UNK         0.3472 
    114 H114       19.9635  -33.2942  -42.1340 H         1 UNK         0.0970 
    115 H115       20.2468  -33.1788  -43.8459 H         1 UNK         0.0970 
    116 H116       18.4255  -31.6179  -41.4455 H         1 UNK         0.0612 
    117 H117       19.7415  -30.8875  -40.5501 H         1 UNK         0.0612 
@<TRIPOS>BOND
     1    1    2 1    
     2    1   62 1    
     3    1   63 1    
     4    1   64 1    
     5    2    3 2    
     6    2    4 am   BACKBONE|DICT|INTERRES
     7    4    5 1    
     8    4   65 1    
     9    5    6 1    
    10    5   25 1    
    11    5   66 1    
    12    6    7 1    
    13    6   67 1    
    14    6   68 1    
    15    7    8 1    
    16    8    9 1    
    17    8   69 1    
    18    8   70 1    
    19    9   10 ar   
    20    9   14 ar   
    21   10   11 ar   
    22   10   71 1    
    23   11   12 ar   
    24   11   61 1    
    25   12   13 ar   
    26   12   72 1    
    27   13   14 ar   
    28   13   15 1    
    29   14   73 1    
    30   15   16 1    
    31   15   74 1    
    32   15   75 1    
    33   16   17 1    
    34   17   18 1    
    35   17   76 1    
    36   17   77 1    
    37   18   19 1    
    38   18   27 1    
    39   18   78 1    
    40   19   20 am   BACKBONE|DICT|INTERRES
    41   19   79 1    
    42   20   21 2    
    43   20   22 1    
    44   22   23 1    
    45   22   24 1    
    46   22   80 1    
    47   23   81 1    
    48   23   82 1    
    49   23   83 1    
    50   24   25 am   BACKBONE|DICT|INTERRES
    51   24   84 1    
    52   25   26 2    
    53   27   28 2    
    54   27   29 am   BACKBONE|DICT|INTERRES
    55   29   30 1    
    56   29   85 1    
    57   30   31 1    
    58   30   32 1    
    59   30   86 1    
    60   31   87 1    
    61   31   88 1    
    62   31   89 1    
    63   32   33 2    
    64   32   34 am   BACKBONE|DICT|INTERRES
    65   34   35 1    
    66   34   90 1    
    67   35   36 1    
    68   35   37 1    
    69   35   91 1    
    70   36   92 1    
    71   36   93 1    
    72   36   94 1    
    73   37   38 2    
    74   37   39 am   BACKBONE|DICT|INTERRES
    75   39   40 1    
    76   39   95 1    
    77   40   41 1    
    78   40   42 1    
    79   40   96 1    
    80   41   97 1    
    81   41   98 1    
    82   41   99 1    
    83   42   43 2    
    84   42   44 am   BACKBONE|DICT|INTERRES
    85   44   45 1    
    86   44  100 1    
    87   45   46 1    
    88   45   47 1    
    89   45  101 1    
    90   46  102 1    
    91   46  103 1    
    92   46  104 1    
    93   47   48 2    
    94   47   49 am   BACKBONE|DICT|INTERRES
    95   49   50 1    
    96   49  105 1    
    97   50   51 1    
    98   50   52 1    
    99   50  106 1    
   100   51  107 1    
   101   51  108 1    
   102   51  109 1    
   103   52   53 2    
   104   52   54 am   BACKBONE|DICT|INTERRES
   105   54   55 1    
   106   54  110 1    
   107   55   56 1    
   108   55   59 1    
   109   55  111 1    
   110   56   57 am   BACKBONE|DICT|INTERRES
   111   56   58 2    
   112   57  112 1    
   113   57  113 1    
   114   59   60 1    
   115   59  114 1    
   116   59  115 1    
   117   60   61 1    
   118   61  116 1    
   119   61  117 1    
@<TRIPOS>SUBSTRUCTURE
     1 UNK         1 GROUP             0       ****    0 ROOT    
