@<TRIPOS>MOLECULE
3R8
117   119    1
SMALL
USER_CHARGES


@<TRIPOS>ATOM
      1 CA         17.7452  -27.6039  -42.0190 C.3       0 UNK        -0.2013 
      2 C          16.9345  -26.7888  -43.0129 C.2       0 UNK         0.4866 
      3 O          16.5023  -25.6839  -42.6851 O.2       0 UNK        -0.5176 
      4 N          16.7268  -27.3204  -44.2261 N.am      1 UNK        -0.4884 
      5 CA         15.9847  -26.6573  -45.3106 C.3       1 UNK         0.0853 
      6 C6         15.6632  -27.6172  -46.4818 C.3       10 UNK        -0.0849 
      7 S7         14.6770  -29.0563  -45.9496 S.3       10 UNK        -0.2776 
      8 C8         15.7911  -30.4444  -46.3413 C.3       10 UNK         0.0316 
      9 C9         17.0075  -30.4980  -45.4257 C.ar      10 UNK        -0.0863 
     10 C10        16.8520  -30.8297  -44.0761 C.ar      10 UNK        -0.1009 
     11 C11        17.9657  -30.9353  -43.2389 C.ar      10 UNK        -0.0712 
     12 C12        19.2425  -30.7104  -43.7606 C.ar      10 UNK        -0.0894 
     13 C13        19.4127  -30.3692  -45.1047 C.ar      10 UNK        -0.0745 
     14 C14        18.2904  -30.2614  -45.9328 C.ar      10 UNK        -0.0972 
     15 C15        20.8114  -30.1628  -45.6717 C.3       10 UNK         0.0209 
     16 S16        21.2233  -28.4057  -45.9030 S.3       10 UNK        -0.2568 
     17 C17        21.4405  -27.8205  -44.1868 C.3       10 UNK        -0.0983 
     18 CA         21.5860  -26.2776  -44.0884 C.3       3 UNK         0.0876 
     19 N          20.4306  -25.5884  -44.6576 N.am      3 UNK        -0.4424 
     20 C          20.3991  -24.9356  -45.8256 C.2       2 UNK         0.4918 
     21 O          21.3900  -24.7365  -46.5301 O.2       2 UNK        -0.4875 
     22 CA         19.0070  -24.4915  -46.3052 C.3       2 UNK         0.0481 
     23 CB         18.9603  -24.1659  -47.8120 C.3       2 UNK        -0.1831 
     24 N          18.0499  -25.5467  -45.9774 N.am      2 UNK        -0.4498 
     25 C          16.7282  -25.4100  -45.8292 C.2       1 UNK         0.5027 
     26 O          16.1092  -24.3685  -46.0517 O.2       1 UNK        -0.4969 
     27 C          21.7054  -25.8332  -42.6220 C.2       3 UNK         0.5005 
     28 O          20.6800  -25.5915  -41.9786 O.2       3 UNK        -0.5279 
     29 N          22.9379  -25.7445  -42.1124 N.am      4 UNK        -0.4463 
     30 CA         23.2628  -25.3250  -40.7506 C.3       4 UNK         0.0283 
     31 CB         23.1329  -23.7939  -40.6214 C.3       4 UNK        -0.1875 
     32 C          24.6866  -25.7831  -40.4147 C.2       4 UNK         0.4949 
     33 O          25.4304  -26.1734  -41.3192 O.2       4 UNK        -0.5039 
     34 N          25.0347  -25.7241  -39.1212 N.am      5 UNK        -0.4663 
     35 CA         26.3285  -26.0399  -38.4883 C.3       5 UNK         0.0242 
     36 CB         27.4556  -25.1374  -39.0284 C.3       5 UNK        -0.1982 
     37 C          26.7340  -27.5245  -38.5449 C.2       5 UNK         0.5017 
     38 O          27.1187  -28.0851  -37.5184 O.2       5 UNK        -0.5012 
     39 N          26.6232  -28.1323  -39.7273 N.am      6 UNK        -0.4439 
     40 CA         26.8635  -29.5444  -40.0062 C.3       6 UNK         0.0297 
     41 CB         28.2975  -29.7342  -40.5368 C.3       6 UNK        -0.2006 
     42 C          25.7812  -30.0310  -40.9799 C.2       6 UNK         0.4892 
     43 O          26.0953  -30.5482  -42.0536 O.2       6 UNK        -0.5089 
     44 N          24.5158  -29.8063  -40.5998 N.am      7 UNK        -0.4243 
     45 CA         23.3326  -30.1871  -41.3699 C.3       7 UNK         0.0196 
     46 CB         22.0973  -29.4960  -40.7678 C.3       7 UNK        -0.2007 
     47 C          23.1420  -31.7119  -41.4037 C.2       7 UNK         0.5020 
     48 O          23.4252  -32.3898  -40.4132 O.2       7 UNK        -0.5147 
     49 N          22.6228  -32.2119  -42.5329 N.am      8 UNK        -0.4734 
     50 CA         22.4178  -33.6369  -42.8296 C.3       8 UNK         0.0238 
     51 CB         21.8638  -33.7731  -44.2581 C.3       8 UNK        -0.1912 
     52 C          21.5149  -34.3943  -41.8378 C.2       8 UNK         0.5038 
     53 O          21.6606  -35.6103  -41.7056 O.2       8 UNK        -0.5046 
     54 N          20.6129  -33.6709  -41.1641 N.am      9 UNK        -0.4200 
     55 CA         19.7257  -34.1998  -40.1171 C.3       9 UNK         0.0839 
     56 C          20.4274  -34.4304  -38.7462 C.2       9 UNK         0.5513 
     57 N          21.6649  -33.9918  -38.5407 N.am      9 UNK        -0.7519 
     58 O          19.8349  -35.0262  -37.8503 O.2       9 UNK        -0.4960 
     59 C59        18.4414  -33.3437  -39.9500 C.3       10 UNK        -0.0876 
     60 S60        17.5671  -33.0706  -41.5317 S.3       10 UNK        -0.2414 
     61 C61        17.7931  -31.2809  -41.7688 C.3       10 UNK         0.0169 
     62 H62        17.0847  -28.2112  -41.4015 H         1 UNK         0.0903 
     63 H63        18.4520  -28.2579  -42.5246 H         1 UNK         0.0903 
     64 H64        18.3154  -26.9458  -41.3635 H         1 UNK         0.0903 
     65 H65        17.0526  -28.2574  -44.4273 H         1 UNK         0.3096 
     66 H66        15.0372  -26.3089  -44.8925 H         1 UNK         0.1121 
     67 H67        15.0902  -27.0959  -47.2514 H         1 UNK         0.0849 
     68 H68        16.5796  -27.9558  -46.9686 H         1 UNK         0.0849 
     69 H69        15.2344  -31.3773  -46.2409 H         1 UNK         0.0865 
     70 H70        16.0900  -30.3850  -47.3891 H         1 UNK         0.0865 
     71 H71        15.8630  -31.0157  -43.6790 H         1 UNK         0.1346 
     72 H72        20.1054  -30.8036  -43.1192 H         1 UNK         0.1412 
     73 H73        18.4224  -30.0129  -46.9773 H         1 UNK         0.1426 
     74 H74        20.8825  -30.6663  -46.6369 H         1 UNK         0.0716 
     75 H75        21.5645  -30.6275  -45.0351 H         1 UNK         0.0716 
     76 H76        22.3242  -28.3091  -43.7756 H         1 UNK         0.0695 
     77 H77        20.5915  -28.1617  -43.5937 H         1 UNK         0.0695 
     78 H78        22.4955  -25.9720  -44.6107 H         1 UNK         0.0983 
     79 H79        19.6084  -25.5942  -44.0699 H         1 UNK         0.3095 
     80 H80        18.7478  -23.5925  -45.7426 H         1 UNK         0.0454 
     81 H81        19.6593  -23.3669  -48.0621 H         1 UNK         0.0851 
     82 H82        17.9697  -23.8316  -48.1196 H         1 UNK         0.0851 
     83 H83        19.2242  -25.0339  -48.4170 H         1 UNK         0.0851 
     84 H84        18.4586  -26.4503  -45.7780 H         1 UNK         0.2976 
     85 H85        23.7485  -26.0057  -42.6626 H         1 UNK         0.3116 
     86 H86        22.5762  -25.8126  -40.0551 H         1 UNK         0.0646 
     87 H87        23.3800  -23.4568  -39.6141 H         1 UNK         0.0847 
     88 H88        22.1159  -23.4596  -40.8269 H         1 UNK         0.0847 
     89 H89        23.8001  -23.2754  -41.3112 H         1 UNK         0.0847 
     90 H90        24.3222  -25.4186  -38.4714 H         1 UNK         0.3040 
     91 H91        26.2034  -25.7992  -37.4308 H         1 UNK         0.1015 
     92 H92        28.3865  -25.3128  -38.4873 H         1 UNK         0.0786 
     93 H93        27.2079  -24.0823  -38.9119 H         1 UNK         0.0786 
     94 H94        27.6580  -25.3191  -40.0844 H         1 UNK         0.0786 
     95 H95        26.2684  -27.5704  -40.5012 H         1 UNK         0.3172 
     96 H96        26.7516  -30.1305  -39.0916 H         1 UNK         0.0595 
     97 H97        28.4629  -29.1749  -41.4585 H         1 UNK         0.0839 
     98 H98        28.5001  -30.7847  -40.7491 H         1 UNK         0.0839 
     99 H99        29.0364  -29.4030  -39.8070 H         1 UNK         0.0839 
    100 H100       24.3546  -29.4057  -39.6875 H         1 UNK         0.2998 
    101 H101       23.4745  -29.8293  -42.3913 H         1 UNK         0.0822 
    102 H102       22.2149  -28.4125  -40.7549 H         1 UNK         0.0787 
    103 H103       21.9114  -29.8242  -39.7440 H         1 UNK         0.0787 
    104 H104       21.1993  -29.7125  -41.3457 H         1 UNK         0.0787 
    105 H105       22.4431  -31.5756  -43.2942 H         1 UNK         0.3055 
    106 H106       23.3975  -34.1184  -42.7930 H         1 UNK         0.1106 
    107 H107       20.8905  -33.2914  -44.3625 H         1 UNK         0.0828 
    108 H108       22.5389  -33.3345  -44.9931 H         1 UNK         0.0828 
    109 H109       21.7356  -34.8224  -44.5284 H         1 UNK         0.0828 
    110 H110       20.5692  -32.6790  -41.3317 H         1 UNK         0.2931 
    111 H111       19.3989  -35.1881  -40.4471 H         1 UNK         0.0412 
    112 H112       22.1768  -33.4994  -39.2650 H         1 UNK         0.3472 
    113 H113       22.1006  -34.1555  -37.6470 H         1 UNK         0.3472 
    114 H114       17.7449  -33.8447  -39.2749 H         1 UNK         0.0970 
    115 H115       18.6739  -32.3893  -39.4749 H         1 UNK         0.0970 
    116 H116       18.6592  -30.9268  -41.2083 H         1 UNK         0.0612 
    117 H117       16.9284  -30.7570  -41.3593 H         1 UNK         0.0612 
@<TRIPOS>BOND
     1    1    2 1    
     2    1   62 1    
     3    1   63 1    
     4    1   64 1    
     5    2    3 2    
     6    2    4 am   BACKBONE|DICT|INTERRES
     7    4    5 1    
     8    4   65 1    
     9    5    6 1    
    10    5   25 1    
    11    5   66 1    
    12    6    7 1    
    13    6   67 1    
    14    6   68 1    
    15    7    8 1    
    16    8    9 1    
    17    8   69 1    
    18    8   70 1    
    19    9   10 ar   
    20    9   14 ar   
    21   10   11 ar   
    22   10   71 1    
    23   11   12 ar   
    24   11   61 1    
    25   12   13 ar   
    26   12   72 1    
    27   13   14 ar   
    28   13   15 1    
    29   14   73 1    
    30   15   16 1    
    31   15   74 1    
    32   15   75 1    
    33   16   17 1    
    34   17   18 1    
    35   17   76 1    
    36   17   77 1    
    37   18   19 1    
    38   18   27 1    
    39   18   78 1    
    40   19   20 am   BACKBONE|DICT|INTERRES
    41   19   79 1    
    42   20   21 2    
    43   20   22 1    
    44   22   23 1    
    45   22   24 1    
    46   22   80 1    
    47   23   81 1    
    48   23   82 1    
    49   23   83 1    
    50   24   25 am   BACKBONE|DICT|INTERRES
    51   24   84 1    
    52   25   26 2    
    53   27   28 2    
    54   27   29 am   BACKBONE|DICT|INTERRES
    55   29   30 1    
    56   29   85 1    
    57   30   31 1    
    58   30   32 1    
    59   30   86 1    
    60   31   87 1    
    61   31   88 1    
    62   31   89 1    
    63   32   33 2    
    64   32   34 am   BACKBONE|DICT|INTERRES
    65   34   35 1    
    66   34   90 1    
    67   35   36 1    
    68   35   37 1    
    69   35   91 1    
    70   36   92 1    
    71   36   93 1    
    72   36   94 1    
    73   37   38 2    
    74   37   39 am   BACKBONE|DICT|INTERRES
    75   39   40 1    
    76   39   95 1    
    77   40   41 1    
    78   40   42 1    
    79   40   96 1    
    80   41   97 1    
    81   41   98 1    
    82   41   99 1    
    83   42   43 2    
    84   42   44 am   BACKBONE|DICT|INTERRES
    85   44   45 1    
    86   44  100 1    
    87   45   46 1    
    88   45   47 1    
    89   45  101 1    
    90   46  102 1    
    91   46  103 1    
    92   46  104 1    
    93   47   48 2    
    94   47   49 am   BACKBONE|DICT|INTERRES
    95   49   50 1    
    96   49  105 1    
    97   50   51 1    
    98   50   52 1    
    99   50  106 1    
   100   51  107 1    
   101   51  108 1    
   102   51  109 1    
   103   52   53 2    
   104   52   54 am   BACKBONE|DICT|INTERRES
   105   54   55 1    
   106   54  110 1    
   107   55   56 1    
   108   55   59 1    
   109   55  111 1    
   110   56   57 am   BACKBONE|DICT|INTERRES
   111   56   58 2    
   112   57  112 1    
   113   57  113 1    
   114   59   60 1    
   115   59  114 1    
   116   59  115 1    
   117   60   61 1    
   118   61  116 1    
   119   61  117 1    
@<TRIPOS>SUBSTRUCTURE
     1 UNK         1 GROUP             0       ****    0 ROOT    
