@<TRIPOS>MOLECULE
3R8
117   119    1
SMALL
USER_CHARGES


@<TRIPOS>ATOM
      1 CA         15.7291  -22.1194  -44.3704 C.3       0 UNK        -0.2013 
      2 C          16.6611  -23.3111  -44.2121 C.2       0 UNK         0.4866 
      3 O          17.5157  -23.3014  -43.3251 O.2       0 UNK        -0.5176 
      4 N          16.5071  -24.3283  -45.0721 N.am      1 UNK        -0.4884 
      5 CA         17.2535  -25.5965  -45.1330 C.3       1 UNK         0.0853 
      6 C6         17.1724  -26.4475  -43.8385 C.3       10 UNK        -0.0849 
      7 S7         15.4901  -27.0495  -43.4558 S.3       10 UNK        -0.2776 
      8 C8         15.4338  -28.6974  -44.2475 C.3       10 UNK         0.0316 
      9 C9         16.6329  -29.5667  -43.8908 C.ar      10 UNK        -0.0863 
     10 C10        16.7849  -30.0808  -42.6008 C.ar      10 UNK        -0.1009 
     11 C11        17.9268  -30.8082  -42.2456 C.ar      10 UNK        -0.0712 
     12 C12        18.9224  -31.0195  -43.2127 C.ar      10 UNK        -0.0894 
     13 C13        18.7638  -30.5440  -44.5184 C.ar      10 UNK        -0.0745 
     14 C14        17.6116  -29.8277  -44.8510 C.ar      10 UNK        -0.0972 
     15 C15        19.8139  -30.8324  -45.5838 C.3       10 UNK         0.0209 
     16 S16        20.3697  -29.3206  -46.4394 S.3       10 UNK        -0.2568 
     17 C17        22.0659  -29.0742  -45.8136 C.3       10 UNK        -0.0983 
     18 CA         22.2111  -28.0029  -44.7055 C.3       3 UNK         0.0876 
     19 N          21.5433  -26.7397  -45.0491 N.am      3 UNK        -0.4424 
     20 C          21.7817  -25.5562  -44.4701 C.2       2 UNK         0.4918 
     21 O          22.5981  -25.4072  -43.5615 O.2       2 UNK        -0.4875 
     22 CA         20.9341  -24.3546  -44.9267 C.3       2 UNK         0.0481 
     23 CB         21.3680  -23.8505  -46.3165 C.3       2 UNK        -0.1831 
     24 N          19.4858  -24.5956  -44.8480 N.am      2 UNK        -0.4498 
     25 C          18.7251  -25.4318  -45.5678 C.2       1 UNK         0.5027 
     26 O          19.1493  -26.0952  -46.5134 O.2       1 UNK        -0.4969 
     27 C          21.8591  -28.5394  -43.2983 C.2       3 UNK         0.5005 
     28 O          22.5823  -29.3947  -42.7816 O.2       3 UNK        -0.5279 
     29 N          20.8096  -27.9856  -42.6722 N.am      4 UNK        -0.4463 
     30 CA         20.4783  -28.1803  -41.2593 C.3       4 UNK         0.0283 
     31 CB         19.0985  -27.5750  -40.9597 C.3       4 UNK        -0.1875 
     32 C          21.5296  -27.5678  -40.3185 C.2       4 UNK         0.4949 
     33 O          21.8285  -28.1637  -39.2854 O.2       4 UNK        -0.5039 
     34 N          22.0965  -26.4110  -40.6984 N.am      5 UNK        -0.4663 
     35 CA         23.1604  -25.7320  -39.9487 C.3       5 UNK         0.0242 
     36 CB         23.2565  -24.2641  -40.3943 C.3       5 UNK        -0.1982 
     37 C          24.5172  -26.4391  -40.0983 C.2       5 UNK         0.5017 
     38 O          25.3204  -26.4134  -39.1660 O.2       5 UNK        -0.5012 
     39 N          24.7254  -27.0940  -41.2498 N.am      6 UNK        -0.4439 
     40 CA         25.8469  -28.0026  -41.5068 C.3       6 UNK         0.0297 
     41 CB         25.9978  -28.2007  -43.0244 C.3       6 UNK        -0.2006 
     42 C          25.6904  -29.3660  -40.8019 C.2       6 UNK         0.4892 
     43 O          26.6665  -30.1131  -40.7309 O.2       6 UNK        -0.5089 
     44 N          24.4760  -29.6625  -40.3114 N.am      7 UNK        -0.4243 
     45 CA         24.0431  -30.8928  -39.6438 C.3       7 UNK         0.0196 
     46 CB         24.7695  -31.0755  -38.2944 C.3       7 UNK        -0.2007 
     47 C          24.1326  -32.1318  -40.5524 C.2       7 UNK         0.5020 
     48 O          24.4352  -33.2252  -40.0714 O.2       7 UNK        -0.5147 
     49 N          23.8388  -31.9578  -41.8503 N.am      8 UNK        -0.4734 
     50 CA         23.8669  -33.0333  -42.8524 C.3       8 UNK         0.0238 
     51 CB         23.7276  -32.4228  -44.2527 C.3       8 UNK        -0.1912 
     52 C          22.7882  -34.1090  -42.6246 C.2       8 UNK         0.5038 
     53 O          22.9729  -35.2547  -43.0359 O.2       8 UNK        -0.5046 
     54 N          21.7005  -33.7165  -41.9534 N.am      9 UNK        -0.4200 
     55 CA         20.6448  -34.5872  -41.4217 C.3       9 UNK         0.0839 
     56 C          21.0508  -35.4050  -40.1583 C.2       9 UNK         0.5513 
     57 N          22.2198  -35.1994  -39.5613 N.am      9 UNK        -0.7519 
     58 O          20.2888  -36.2619  -39.7178 O.2       9 UNK        -0.4960 
     59 C59        19.3204  -33.8016  -41.2095 C.3       10 UNK        -0.0876 
     60 S60        19.5469  -32.2075  -40.3372 S.3       10 UNK        -0.2414 
     61 C61        18.0216  -31.3180  -40.8032 C.3       10 UNK         0.0169 
     62 H62        15.1578  -21.9675  -43.4550 H         1 UNK         0.0903 
     63 H63        16.3060  -21.2159  -44.5658 H         1 UNK         0.0903 
     64 H64        15.0246  -22.2566  -45.1905 H         1 UNK         0.0903 
     65 H65        15.7928  -24.2399  -45.7824 H         1 UNK         0.3096 
     66 H66        16.7791  -26.1752  -45.9279 H         1 UNK         0.1121 
     67 H67        17.5126  -25.8696  -42.9790 H         1 UNK         0.0849 
     68 H68        17.8578  -27.2921  -43.8914 H         1 UNK         0.0849 
     69 H69        14.5173  -29.2053  -43.9439 H         1 UNK         0.0865 
     70 H70        15.3617  -28.5654  -45.3283 H         1 UNK         0.0865 
     71 H71        16.0214  -29.8851  -41.8598 H         1 UNK         0.1346 
     72 H72        19.8228  -31.5608  -42.9657 H         1 UNK         0.1412 
     73 H73        17.4930  -29.4485  -45.8571 H         1 UNK         0.1426 
     74 H74        19.3755  -31.5037  -46.3233 H         1 UNK         0.0716 
     75 H75        20.6637  -31.3658  -45.1602 H         1 UNK         0.0716 
     76 H76        22.6619  -28.7605  -46.6720 H         1 UNK         0.0695 
     77 H77        22.5030  -30.0238  -45.5094 H         1 UNK         0.0695 
     78 H78        23.2766  -27.7712  -44.6492 H         1 UNK         0.0983 
     79 H79        20.8246  -26.7881  -45.7669 H         1 UNK         0.3095 
     80 H80        21.1294  -23.5481  -44.2180 H         1 UNK         0.0454 
     81 H81        20.8019  -22.9670  -46.6108 H         1 UNK         0.0851 
     82 H82        21.2367  -24.6053  -47.0921 H         1 UNK         0.0851 
     83 H83        22.4228  -23.5728  -46.3147 H         1 UNK         0.0851 
     84 H84        18.9968  -24.0843  -44.1143 H         1 UNK         0.2976 
     85 H85        20.2625  -27.3112  -43.1837 H         1 UNK         0.3116 
     86 H86        20.4358  -29.2543  -41.0669 H         1 UNK         0.0646 
     87 H87        18.3247  -28.0133  -41.5864 H         1 UNK         0.0847 
     88 H88        19.0845  -26.4954  -41.1131 H         1 UNK         0.0847 
     89 H89        18.8118  -27.7594  -39.9236 H         1 UNK         0.0847 
     90 H90        21.8372  -25.9983  -41.5857 H         1 UNK         0.3040 
     91 H91        22.8970  -25.7477  -38.8884 H         1 UNK         0.1015 
     92 H92        23.9911  -23.7250  -39.7944 H         1 UNK         0.0786 
     93 H93        22.3028  -23.7493  -40.2767 H         1 UNK         0.0786 
     94 H94        23.5620  -24.1729  -41.4368 H         1 UNK         0.0786 
     95 H95        24.0159  -27.0244  -41.9654 H         1 UNK         0.3172 
     96 H96        26.7604  -27.5376  -41.1303 H         1 UNK         0.0595 
     97 H97        25.1528  -28.7433  -43.4482 H         1 UNK         0.0839 
     98 H98        26.8946  -28.7790  -43.2507 H         1 UNK         0.0839 
     99 H99        26.0878  -27.2482  -43.5470 H         1 UNK         0.0839 
    100 H100       23.7448  -28.9778  -40.4472 H         1 UNK         0.2998 
    101 H101       22.9818  -30.7595  -39.4280 H         1 UNK         0.0822 
    102 H102       24.6749  -30.1862  -37.6711 H         1 UNK         0.0787 
    103 H103       24.3471  -31.9098  -37.7330 H         1 UNK         0.0787 
    104 H104       25.8318  -31.2803  -38.4300 H         1 UNK         0.0787 
    105 H105       23.5564  -31.0336  -42.1687 H         1 UNK         0.3055 
    106 H106       24.8388  -33.5277  -42.7860 H         1 UNK         0.1106 
    107 H107       22.7527  -31.9557  -44.3760 H         1 UNK         0.0828 
    108 H108       23.8246  -33.1869  -45.0251 H         1 UNK         0.0828 
    109 H109       24.4924  -31.6689  -44.4403 H         1 UNK         0.0828 
    110 H110       21.6595  -32.7569  -41.6431 H         1 UNK         0.2931 
    111 H111       20.4418  -35.3388  -42.1870 H         1 UNK         0.0412 
    112 H112       22.4551  -35.7493  -38.7504 H         1 UNK         0.3472 
    113 H113       22.8783  -34.5086  -39.9026 H         1 UNK         0.3472 
    114 H114       18.8668  -33.6102  -42.1821 H         1 UNK         0.0970 
    115 H115       18.5838  -34.3995  -40.6693 H         1 UNK         0.0970 
    116 H116       17.1675  -31.9649  -40.5979 H         1 UNK         0.0612 
    117 H117       17.9263  -30.4623  -40.1333 H         1 UNK         0.0612 
@<TRIPOS>BOND
     1    1    2 1    
     2    1   62 1    
     3    1   63 1    
     4    1   64 1    
     5    2    3 2    
     6    2    4 am   BACKBONE|DICT|INTERRES
     7    4    5 1    
     8    4   65 1    
     9    5    6 1    
    10    5   25 1    
    11    5   66 1    
    12    6    7 1    
    13    6   67 1    
    14    6   68 1    
    15    7    8 1    
    16    8    9 1    
    17    8   69 1    
    18    8   70 1    
    19    9   10 ar   
    20    9   14 ar   
    21   10   11 ar   
    22   10   71 1    
    23   11   12 ar   
    24   11   61 1    
    25   12   13 ar   
    26   12   72 1    
    27   13   14 ar   
    28   13   15 1    
    29   14   73 1    
    30   15   16 1    
    31   15   74 1    
    32   15   75 1    
    33   16   17 1    
    34   17   18 1    
    35   17   76 1    
    36   17   77 1    
    37   18   19 1    
    38   18   27 1    
    39   18   78 1    
    40   19   20 am   BACKBONE|DICT|INTERRES
    41   19   79 1    
    42   20   21 2    
    43   20   22 1    
    44   22   23 1    
    45   22   24 1    
    46   22   80 1    
    47   23   81 1    
    48   23   82 1    
    49   23   83 1    
    50   24   25 am   BACKBONE|DICT|INTERRES
    51   24   84 1    
    52   25   26 2    
    53   27   28 2    
    54   27   29 am   BACKBONE|DICT|INTERRES
    55   29   30 1    
    56   29   85 1    
    57   30   31 1    
    58   30   32 1    
    59   30   86 1    
    60   31   87 1    
    61   31   88 1    
    62   31   89 1    
    63   32   33 2    
    64   32   34 am   BACKBONE|DICT|INTERRES
    65   34   35 1    
    66   34   90 1    
    67   35   36 1    
    68   35   37 1    
    69   35   91 1    
    70   36   92 1    
    71   36   93 1    
    72   36   94 1    
    73   37   38 2    
    74   37   39 am   BACKBONE|DICT|INTERRES
    75   39   40 1    
    76   39   95 1    
    77   40   41 1    
    78   40   42 1    
    79   40   96 1    
    80   41   97 1    
    81   41   98 1    
    82   41   99 1    
    83   42   43 2    
    84   42   44 am   BACKBONE|DICT|INTERRES
    85   44   45 1    
    86   44  100 1    
    87   45   46 1    
    88   45   47 1    
    89   45  101 1    
    90   46  102 1    
    91   46  103 1    
    92   46  104 1    
    93   47   48 2    
    94   47   49 am   BACKBONE|DICT|INTERRES
    95   49   50 1    
    96   49  105 1    
    97   50   51 1    
    98   50   52 1    
    99   50  106 1    
   100   51  107 1    
   101   51  108 1    
   102   51  109 1    
   103   52   53 2    
   104   52   54 am   BACKBONE|DICT|INTERRES
   105   54   55 1    
   106   54  110 1    
   107   55   56 1    
   108   55   59 1    
   109   55  111 1    
   110   56   57 am   BACKBONE|DICT|INTERRES
   111   56   58 2    
   112   57  112 1    
   113   57  113 1    
   114   59   60 1    
   115   59  114 1    
   116   59  115 1    
   117   60   61 1    
   118   61  116 1    
   119   61  117 1    
@<TRIPOS>SUBSTRUCTURE
     1 UNK         1 GROUP             0       ****    0 ROOT    
