@<TRIPOS>MOLECULE
3R8
117   119    1
SMALL
USER_CHARGES


@<TRIPOS>ATOM
      1 CA         15.7309  -28.0585  -40.5208 C.3       0 UNK        -0.2013 
      2 C          16.0459  -26.9132  -41.4707 C.2       0 UNK         0.4866 
      3 O          16.1153  -25.7626  -41.0385 O.2       0 UNK        -0.5176 
      4 N          16.2279  -27.2148  -42.7635 N.am      1 UNK        -0.4884 
      5 CA         16.4855  -26.2271  -43.8221 C.3       1 UNK         0.0853 
      6 C6         16.1525  -26.7548  -45.2452 C.3       10 UNK        -0.0849 
      7 S7         14.5695  -27.6688  -45.3333 S.3       10 UNK        -0.2776 
      8 C8         15.0373  -29.2266  -46.1702 C.3       10 UNK         0.0316 
      9 C9         16.2839  -29.8903  -45.5909 C.ar      10 UNK        -0.0863 
     10 C10        16.3682  -30.1909  -44.2268 C.ar      10 UNK        -0.1009 
     11 C11        17.5309  -30.7603  -43.6997 C.ar      10 UNK        -0.0712 
     12 C12        18.5897  -31.0810  -44.5525 C.ar      10 UNK        -0.0894 
     13 C13        18.5116  -30.8056  -45.9193 C.ar      10 UNK        -0.0745 
     14 C14        17.3603  -30.2000  -46.4311 C.ar      10 UNK        -0.0972 
     15 C15        19.6572  -31.2013  -46.8402 C.3       10 UNK         0.0209 
     16 S16        21.1985  -30.3133  -46.4558 S.3       10 UNK        -0.2568 
     17 C17        20.9329  -28.7042  -47.2792 C.3       10 UNK        -0.0983 
     18 CA         21.5195  -27.4940  -46.5083 C.3       3 UNK         0.0876 
     19 N          20.8625  -27.3050  -45.2073 N.am      3 UNK        -0.4424 
     20 C          20.9536  -26.1926  -44.4636 C.2       2 UNK         0.4918 
     21 O          21.5193  -25.1634  -44.8366 O.2       2 UNK        -0.4875 
     22 CA         20.2893  -26.2623  -43.0767 C.3       2 UNK         0.0481 
     23 CB         20.6045  -25.0395  -42.1904 C.3       2 UNK        -0.1831 
     24 N          18.8444  -26.4828  -43.1784 N.am      2 UNK        -0.4498 
     25 C          17.9353  -25.7021  -43.7878 C.2       1 UNK         0.5027 
     26 O          18.1926  -24.6243  -44.3253 O.2       1 UNK        -0.4969 
     27 C          23.0638  -27.5638  -46.3956 C.2       3 UNK         0.5005 
     28 O          23.7621  -27.2721  -47.3684 O.2       3 UNK        -0.5279 
     29 N          23.5551  -27.9246  -45.2045 N.am      4 UNK        -0.4463 
     30 CA         24.9452  -27.8642  -44.7667 C.3       4 UNK         0.0283 
     31 CB         25.4970  -29.2962  -44.6426 C.3       4 UNK        -0.1875 
     32 C          24.9801  -27.1258  -43.4183 C.2       4 UNK         0.4949 
     33 O          23.9376  -26.6688  -42.9392 O.2       4 UNK        -0.5039 
     34 N          26.1702  -27.0299  -42.8123 N.am      5 UNK        -0.4663 
     35 CA         26.4279  -26.3727  -41.5246 C.3       5 UNK         0.0242 
     36 CB         27.9468  -26.1672  -41.3721 C.3       5 UNK        -0.1982 
     37 C          25.8143  -27.1251  -40.3234 C.2       5 UNK         0.5017 
     38 O          26.5455  -27.6740  -39.4975 O.2       5 UNK        -0.5012 
     39 N          24.4760  -27.1606  -40.2720 N.am      6 UNK        -0.4439 
     40 CA         23.5757  -27.7366  -39.2613 C.3       6 UNK         0.0297 
     41 CB         23.7877  -27.0779  -37.8853 C.3       6 UNK        -0.2006 
     42 C          23.6041  -29.2715  -39.1408 C.2       6 UNK         0.4892 
     43 O          22.5543  -29.8636  -38.8904 O.2       6 UNK        -0.5089 
     44 N          24.7774  -29.8894  -39.3324 N.am      7 UNK        -0.4243 
     45 CA         25.0500  -31.3242  -39.1854 C.3       7 UNK         0.0196 
     46 CB         26.5306  -31.5868  -39.5034 C.3       7 UNK        -0.2007 
     47 C          24.1513  -32.2468  -40.0270 C.2       7 UNK         0.5020 
     48 O          23.8494  -33.3563  -39.5872 O.2       7 UNK        -0.5147 
     49 N          23.7036  -31.7641  -41.1948 N.am      8 UNK        -0.4734 
     50 CA         22.7550  -32.4547  -42.0763 C.3       8 UNK         0.0238 
     51 CB         22.6693  -31.7090  -43.4177 C.3       8 UNK        -0.1912 
     52 C          21.3480  -32.6331  -41.4737 C.2       8 UNK         0.5038 
     53 O          20.6114  -33.5020  -41.9421 O.2       8 UNK        -0.5046 
     54 N          21.0056  -31.8246  -40.4627 N.am      9 UNK        -0.4200 
     55 CA         19.7390  -31.8771  -39.7197 C.3       9 UNK         0.0839 
     56 C          19.9177  -32.4029  -38.2663 C.2       9 UNK         0.5513 
     57 N          21.0730  -32.9375  -37.8852 N.am      9 UNK        -0.7519 
     58 O          18.9828  -32.3482  -37.4713 O.2       9 UNK        -0.4960 
     59 C59        18.9820  -30.5185  -39.7647 C.3       10 UNK        -0.0876 
     60 S60        18.7869  -29.8226  -41.4434 S.3       10 UNK        -0.2414 
     61 C61        17.6640  -31.0322  -42.2122 C.3       10 UNK         0.0169 
     62 H62        15.5273  -28.9855  -41.0549 H         1 UNK         0.0903 
     63 H63        16.5692  -28.2277  -39.8457 H         1 UNK         0.0903 
     64 H64        14.8536  -27.8183  -39.9208 H         1 UNK         0.0903 
     65 H65        16.1526  -28.1714  -43.0780 H         1 UNK         0.3096 
     66 H66        15.8364  -25.3687  -43.6325 H         1 UNK         0.1121 
     67 H67        16.0909  -25.9171  -45.9425 H         1 UNK         0.0849 
     68 H68        16.9624  -27.3801  -45.6228 H         1 UNK         0.0849 
     69 H69        15.1736  -29.0144  -47.2318 H         1 UNK         0.0865 
     70 H70        14.2026  -29.9258  -46.1057 H         1 UNK         0.0865 
     71 H71        15.5322  -29.9692  -43.5779 H         1 UNK         0.1346 
     72 H72        19.4814  -31.5402  -44.1472 H         1 UNK         0.1412 
     73 H73        17.2983  -29.9810  -47.4886 H         1 UNK         0.1426 
     74 H74        19.3976  -31.0429  -47.8882 H         1 UNK         0.0716 
     75 H75        19.8378  -32.2714  -46.7301 H         1 UNK         0.0716 
     76 H76        19.8626  -28.5511  -47.4266 H         1 UNK         0.0695 
     77 H77        21.3628  -28.7589  -48.2810 H         1 UNK         0.0695 
     78 H78        21.3041  -26.6029  -47.1024 H         1 UNK         0.0983 
     79 H79        20.3558  -28.1017  -44.8482 H         1 UNK         0.3095 
     80 H80        20.7018  -27.1399  -42.5761 H         1 UNK         0.0454 
     81 H81        21.6812  -24.9303  -42.0532 H         1 UNK         0.0851 
     82 H82        20.1597  -25.1425  -41.2009 H         1 UNK         0.0851 
     83 H83        20.2381  -24.1107  -42.6283 H         1 UNK         0.0851 
     84 H84        18.5040  -27.3432  -42.7703 H         1 UNK         0.2976 
     85 H85        22.8908  -28.0539  -44.4545 H         1 UNK         0.3116 
     86 H86        25.5443  -27.2975  -45.4824 H         1 UNK         0.0646 
     87 H87        25.3136  -29.8727  -45.5497 H         1 UNK         0.0847 
     88 H88        25.0440  -29.8315  -43.8084 H         1 UNK         0.0847 
     89 H89        26.5750  -29.2929  -44.4795 H         1 UNK         0.0847 
     90 H90        26.9713  -27.4498  -43.2617 H         1 UNK         0.3040 
     91 H91        25.9637  -25.3839  -41.5489 H         1 UNK         0.1015 
     92 H92        28.1803  -25.6573  -40.4363 H         1 UNK         0.0786 
     93 H93        28.3481  -25.5546  -42.1798 H         1 UNK         0.0786 
     94 H94        28.4858  -27.1156  -41.3697 H         1 UNK         0.0786 
     95 H95        24.0091  -26.7818  -41.0947 H         1 UNK         0.3172 
     96 H96        22.5693  -27.4771  -39.5944 H         1 UNK         0.0595 
     97 H97        23.0532  -27.4393  -37.1642 H         1 UNK         0.0839 
     98 H98        23.6784  -25.9949  -37.9427 H         1 UNK         0.0839 
     99 H99        24.7750  -27.2947  -37.4763 H         1 UNK         0.0839 
    100 H100       25.5811  -29.2858  -39.4856 H         1 UNK         0.2998 
    101 H101       24.8744  -31.5759  -38.1375 H         1 UNK         0.0822 
    102 H102       27.1854  -31.0207  -38.8405 H         1 UNK         0.0787 
    103 H103       26.7775  -32.6420  -39.3771 H         1 UNK         0.0787 
    104 H104       26.7764  -31.3138  -40.5305 H         1 UNK         0.0787 
    105 H105       23.9946  -30.8369  -41.4667 H         1 UNK         0.3055 
    106 H106       23.1449  -33.4573  -42.2665 H         1 UNK         0.1106 
    107 H107       23.6290  -31.7071  -43.9330 H         1 UNK         0.0828 
    108 H108       21.9559  -32.1927  -44.0865 H         1 UNK         0.0828 
    109 H109       22.3449  -30.6755  -43.2906 H         1 UNK         0.0828 
    110 H110       21.6806  -31.1545  -40.1076 H         1 UNK         0.2931 
    111 H111       19.0877  -32.6205  -40.1788 H         1 UNK         0.0412 
    112 H112       21.8472  -33.0118  -38.5306 H         1 UNK         0.3472 
    113 H113       21.1695  -33.2795  -36.9422 H         1 UNK         0.3472 
    114 H114       17.9912  -30.6172  -39.3174 H         1 UNK         0.0970 
    115 H115       19.5129  -29.7785  -39.1629 H         1 UNK         0.0970 
    116 H116       16.6933  -31.0022  -41.7163 H         1 UNK         0.0612 
    117 H117       18.0514  -32.0421  -42.0798 H         1 UNK         0.0612 
@<TRIPOS>BOND
     1    1    2 1    
     2    1   62 1    
     3    1   63 1    
     4    1   64 1    
     5    2    3 2    
     6    2    4 am   BACKBONE|DICT|INTERRES
     7    4    5 1    
     8    4   65 1    
     9    5    6 1    
    10    5   25 1    
    11    5   66 1    
    12    6    7 1    
    13    6   67 1    
    14    6   68 1    
    15    7    8 1    
    16    8    9 1    
    17    8   69 1    
    18    8   70 1    
    19    9   10 ar   
    20    9   14 ar   
    21   10   11 ar   
    22   10   71 1    
    23   11   12 ar   
    24   11   61 1    
    25   12   13 ar   
    26   12   72 1    
    27   13   14 ar   
    28   13   15 1    
    29   14   73 1    
    30   15   16 1    
    31   15   74 1    
    32   15   75 1    
    33   16   17 1    
    34   17   18 1    
    35   17   76 1    
    36   17   77 1    
    37   18   19 1    
    38   18   27 1    
    39   18   78 1    
    40   19   20 am   BACKBONE|DICT|INTERRES
    41   19   79 1    
    42   20   21 2    
    43   20   22 1    
    44   22   23 1    
    45   22   24 1    
    46   22   80 1    
    47   23   81 1    
    48   23   82 1    
    49   23   83 1    
    50   24   25 am   BACKBONE|DICT|INTERRES
    51   24   84 1    
    52   25   26 2    
    53   27   28 2    
    54   27   29 am   BACKBONE|DICT|INTERRES
    55   29   30 1    
    56   29   85 1    
    57   30   31 1    
    58   30   32 1    
    59   30   86 1    
    60   31   87 1    
    61   31   88 1    
    62   31   89 1    
    63   32   33 2    
    64   32   34 am   BACKBONE|DICT|INTERRES
    65   34   35 1    
    66   34   90 1    
    67   35   36 1    
    68   35   37 1    
    69   35   91 1    
    70   36   92 1    
    71   36   93 1    
    72   36   94 1    
    73   37   38 2    
    74   37   39 am   BACKBONE|DICT|INTERRES
    75   39   40 1    
    76   39   95 1    
    77   40   41 1    
    78   40   42 1    
    79   40   96 1    
    80   41   97 1    
    81   41   98 1    
    82   41   99 1    
    83   42   43 2    
    84   42   44 am   BACKBONE|DICT|INTERRES
    85   44   45 1    
    86   44  100 1    
    87   45   46 1    
    88   45   47 1    
    89   45  101 1    
    90   46  102 1    
    91   46  103 1    
    92   46  104 1    
    93   47   48 2    
    94   47   49 am   BACKBONE|DICT|INTERRES
    95   49   50 1    
    96   49  105 1    
    97   50   51 1    
    98   50   52 1    
    99   50  106 1    
   100   51  107 1    
   101   51  108 1    
   102   51  109 1    
   103   52   53 2    
   104   52   54 am   BACKBONE|DICT|INTERRES
   105   54   55 1    
   106   54  110 1    
   107   55   56 1    
   108   55   59 1    
   109   55  111 1    
   110   56   57 am   BACKBONE|DICT|INTERRES
   111   56   58 2    
   112   57  112 1    
   113   57  113 1    
   114   59   60 1    
   115   59  114 1    
   116   59  115 1    
   117   60   61 1    
   118   61  116 1    
   119   61  117 1    
@<TRIPOS>SUBSTRUCTURE
     1 UNK         1 GROUP             0       ****    0 ROOT    
