@<TRIPOS>MOLECULE
3R8
117   119    1
SMALL
USER_CHARGES


@<TRIPOS>ATOM
      1 CA         16.1594  -23.7752  -45.1082 C.3       0 UNK        -0.2013 
      2 C          17.3305  -24.7237  -45.3119 C.2       0 UNK         0.4866 
      3 O          17.7669  -25.3637  -44.3536 O.2       0 UNK        -0.5176 
      4 N          17.8412  -24.8124  -46.5504 N.am      1 UNK        -0.4884 
      5 CA         18.9503  -25.6761  -46.9856 C.3       1 UNK         0.0853 
      6 C6         18.5639  -27.1853  -47.0061 C.3       10 UNK        -0.0849 
      7 S7         17.1113  -27.5948  -48.0211 S.3       10 UNK        -0.2776 
      8 C8         17.1705  -29.4213  -47.9491 C.3       10 UNK         0.0316 
      9 C9         17.3109  -29.9684  -46.5290 C.ar      10 UNK        -0.0863 
     10 C10        18.3857  -30.8014  -46.1941 C.ar      10 UNK        -0.1009 
     11 C11        18.5087  -31.3239  -44.9014 C.ar      10 UNK        -0.0712 
     12 C12        17.5439  -31.0050  -43.9425 C.ar      10 UNK        -0.0894 
     13 C13        16.4949  -30.1330  -44.2463 C.ar      10 UNK        -0.0745 
     14 C14        16.3718  -29.6363  -45.5471 C.ar      10 UNK        -0.0972 
     15 C15        15.4933  -29.7207  -43.1734 C.3       10 UNK         0.0209 
     16 S16        16.2856  -29.1363  -41.6336 S.3       10 UNK        -0.2568 
     17 C17        17.3430  -27.7626  -42.2148 C.3       10 UNK        -0.0983 
     18 CA         18.8621  -28.0358  -42.0428 C.3       3 UNK         0.0876 
     19 N          19.6667  -27.1712  -42.9173 N.am      3 UNK        -0.4424 
     20 C          20.9979  -27.2447  -43.1127 C.2       2 UNK         0.4918 
     21 O          21.7520  -27.9766  -42.4675 O.2       2 UNK        -0.4875 
     22 CA         21.5636  -26.3784  -44.2571 C.3       2 UNK         0.0481 
     23 CB         22.9262  -26.8588  -44.7823 C.3       2 UNK        -0.1831 
     24 N          20.6103  -26.4161  -45.3546 N.am      2 UNK        -0.4498 
     25 C          20.2095  -25.4028  -46.1273 C.2       1 UNK         0.5027 
     26 O          20.7397  -24.2902  -46.1450 O.2       1 UNK        -0.4969 
     27 C          19.2847  -27.9805  -40.5596 C.2       3 UNK         0.5005 
     28 O          19.2225  -29.0024  -39.8739 O.2       3 UNK        -0.5279 
     29 N          19.7583  -26.8148  -40.0942 N.am      4 UNK        -0.4463 
     30 CA         20.2453  -26.5638  -38.7309 C.3       4 UNK         0.0283 
     31 CB         20.2294  -25.0457  -38.4711 C.3       4 UNK        -0.1875 
     32 C          21.6267  -27.1976  -38.4471 C.2       4 UNK         0.4949 
     33 O          22.5186  -26.5253  -37.9294 O.2       4 UNK        -0.5039 
     34 N          21.7812  -28.4758  -38.8192 N.am      5 UNK        -0.4663 
     35 CA         22.9505  -29.3552  -38.6790 C.3       5 UNK         0.0242 
     36 CB         23.2575  -29.6143  -37.1904 C.3       5 UNK        -0.1982 
     37 C          24.2133  -28.9205  -39.4507 C.2       5 UNK         0.5017 
     38 O          25.2387  -29.5931  -39.3363 O.2       5 UNK        -0.5012 
     39 N          24.1302  -27.8441  -40.2434 N.am      6 UNK        -0.4439 
     40 CA         25.2547  -27.2276  -40.9535 C.3       6 UNK         0.0297 
     41 CB         24.8320  -25.8446  -41.4755 C.3       6 UNK        -0.2006 
     42 C          25.8641  -28.1030  -42.0647 C.2       6 UNK         0.4892 
     43 O          27.0551  -27.9630  -42.3442 O.2       6 UNK        -0.5089 
     44 N          25.0620  -29.0078  -42.6417 N.am      7 UNK        -0.4243 
     45 CA         25.5067  -30.0501  -43.5748 C.3       7 UNK         0.0196 
     46 CB         24.7818  -29.8795  -44.9214 C.3       7 UNK        -0.2007 
     47 C          25.2998  -31.4539  -42.9767 C.2       7 UNK         0.5020 
     48 O          25.0544  -32.4020  -43.7226 O.2       7 UNK        -0.5147 
     49 N          25.3812  -31.5631  -41.6402 N.am      8 UNK        -0.4734 
     50 CA         25.1534  -32.7713  -40.8309 C.3       8 UNK         0.0238 
     51 CB         26.1913  -33.8687  -41.1520 C.3       8 UNK        -0.1912 
     52 C          23.6995  -33.2869  -40.8856 C.2       8 UNK         0.5038 
     53 O          23.4582  -34.4705  -40.6439 O.2       8 UNK        -0.5046 
     54 N          22.7578  -32.3798  -41.1748 N.am      9 UNK        -0.4200 
     55 CA         21.3073  -32.6191  -41.2315 C.3       9 UNK         0.0839 
     56 C          20.6250  -32.9054  -39.8587 C.2       9 UNK         0.5513 
     57 N          21.3148  -32.8161  -38.7276 N.am      9 UNK        -0.7519 
     58 O          19.4409  -33.2287  -39.8226 O.2       9 UNK        -0.4960 
     59 C59        20.5866  -31.4665  -41.9794 C.3       10 UNK        -0.0876 
     60 S60        21.0465  -31.3610  -43.7439 S.3       10 UNK        -0.2414 
     61 C61        19.6698  -32.2472  -44.5491 C.3       10 UNK         0.0169 
     62 H62        15.8679  -23.2802  -46.0343 H         1 UNK         0.0903 
     63 H63        15.2969  -24.3236  -44.7304 H         1 UNK         0.0903 
     64 H64        16.4214  -23.0082  -44.3800 H         1 UNK         0.0903 
     65 H65        17.4447  -24.2367  -47.2802 H         1 UNK         0.3096 
     66 H66        19.2048  -25.3787  -48.0043 H         1 UNK         0.1121 
     67 H67        19.3982  -27.7868  -47.3740 H         1 UNK         0.0849 
     68 H68        18.3421  -27.5307  -45.9946 H         1 UNK         0.0849 
     69 H69        17.9935  -29.7666  -48.5768 H         1 UNK         0.0865 
     70 H70        16.2594  -29.8223  -48.3951 H         1 UNK         0.0865 
     71 H71        19.1253  -31.0529  -46.9421 H         1 UNK         0.1346 
     72 H72        17.6126  -31.4155  -42.9463 H         1 UNK         0.1412 
     73 H73        15.5534  -28.9746  -45.7970 H         1 UNK         0.1426 
     74 H74        14.8557  -30.5741  -42.9399 H         1 UNK         0.0716 
     75 H75        14.8339  -28.9332  -43.5419 H         1 UNK         0.0716 
     76 H76        17.0483  -26.8440  -41.7040 H         1 UNK         0.0695 
     77 H77        17.1153  -27.5973  -43.2679 H         1 UNK         0.0695 
     78 H78        19.0548  -29.0529  -42.3865 H         1 UNK         0.0983 
     79 H79        19.1326  -26.5039  -43.4696 H         1 UNK         0.3095 
     80 H80        21.6623  -25.3611  -43.8739 H         1 UNK         0.0454 
     81 H81        22.8357  -27.8377  -45.2507 H         1 UNK         0.0851 
     82 H82        23.6676  -26.9401  -43.9913 H         1 UNK         0.0851 
     83 H83        23.3248  -26.1709  -45.5278 H         1 UNK         0.0851 
     84 H84        20.0948  -27.2826  -45.4239 H         1 UNK         0.2976 
     85 H85        19.8097  -26.0403  -40.7403 H         1 UNK         0.3116 
     86 H86        19.5434  -27.0235  -38.0319 H         1 UNK         0.0646 
     87 H87        20.9227  -24.5166  -39.1261 H         1 UNK         0.0847 
     88 H88        20.5167  -24.8207  -37.4430 H         1 UNK         0.0847 
     89 H89        19.2349  -24.6258  -38.6230 H         1 UNK         0.0847 
     90 H90        20.9557  -28.9069  -39.2325 H         1 UNK         0.3040 
     91 H91        22.6533  -30.3053  -39.1209 H         1 UNK         0.1015 
     92 H92        23.5992  -28.7108  -36.6845 H         1 UNK         0.0786 
     93 H93        24.0390  -30.3662  -37.0731 H         1 UNK         0.0786 
     94 H94        22.3772  -29.9820  -36.6629 H         1 UNK         0.0786 
     95 H95        23.2359  -27.3788  -40.3068 H         1 UNK         0.3172 
     96 H96        26.0494  -27.0693  -40.2212 H         1 UNK         0.0595 
     97 H97        23.9000  -25.8840  -42.0368 H         1 UNK         0.0839 
     98 H98        25.5947  -25.4146  -42.1265 H         1 UNK         0.0839 
     99 H99        24.6848  -25.1471  -40.6506 H         1 UNK         0.0839 
    100 H100       24.0866  -29.0220  -42.3723 H         1 UNK         0.2998 
    101 H101       26.5784  -29.9614  -43.7639 H         1 UNK         0.0822 
    102 H102       24.9791  -28.8980  -45.3515 H         1 UNK         0.0787 
    103 H103       25.1215  -30.6172  -45.6496 H         1 UNK         0.0787 
    104 H104       23.7033  -30.0005  -44.8139 H         1 UNK         0.0787 
    105 H105       25.5894  -30.7261  -41.1046 H         1 UNK         0.3055 
    106 H106       25.3158  -32.4690  -39.7948 H         1 UNK         0.1106 
    107 H107       26.0421  -34.2929  -42.1452 H         1 UNK         0.0828 
    108 H108       26.1247  -34.6906  -40.4380 H         1 UNK         0.0828 
    109 H109       27.2085  -33.4807  -41.1012 H         1 UNK         0.0828 
    110 H110       23.0595  -31.4476  -41.4076 H         1 UNK         0.2931 
    111 H111       21.1617  -33.5295  -41.8162 H         1 UNK         0.0412 
    112 H112       20.8493  -33.0126  -37.8555 H         1 UNK         0.3472 
    113 H113       22.2996  -32.6136  -38.7376 H         1 UNK         0.3472 
    114 H114       19.5059  -31.5672  -41.8981 H         1 UNK         0.0970 
    115 H115       20.8284  -30.5125  -41.5095 H         1 UNK         0.0970 
    116 H116       19.3259  -33.0607  -43.9084 H         1 UNK         0.0612 
    117 H117       20.0516  -32.7208  -45.4547 H         1 UNK         0.0612 
@<TRIPOS>BOND
     1    1    2 1    
     2    1   62 1    
     3    1   63 1    
     4    1   64 1    
     5    2    3 2    
     6    2    4 am   BACKBONE|DICT|INTERRES
     7    4    5 1    
     8    4   65 1    
     9    5    6 1    
    10    5   25 1    
    11    5   66 1    
    12    6    7 1    
    13    6   67 1    
    14    6   68 1    
    15    7    8 1    
    16    8    9 1    
    17    8   69 1    
    18    8   70 1    
    19    9   10 ar   
    20    9   14 ar   
    21   10   11 ar   
    22   10   71 1    
    23   11   12 ar   
    24   11   61 1    
    25   12   13 ar   
    26   12   72 1    
    27   13   14 ar   
    28   13   15 1    
    29   14   73 1    
    30   15   16 1    
    31   15   74 1    
    32   15   75 1    
    33   16   17 1    
    34   17   18 1    
    35   17   76 1    
    36   17   77 1    
    37   18   19 1    
    38   18   27 1    
    39   18   78 1    
    40   19   20 am   BACKBONE|DICT|INTERRES
    41   19   79 1    
    42   20   21 2    
    43   20   22 1    
    44   22   23 1    
    45   22   24 1    
    46   22   80 1    
    47   23   81 1    
    48   23   82 1    
    49   23   83 1    
    50   24   25 am   BACKBONE|DICT|INTERRES
    51   24   84 1    
    52   25   26 2    
    53   27   28 2    
    54   27   29 am   BACKBONE|DICT|INTERRES
    55   29   30 1    
    56   29   85 1    
    57   30   31 1    
    58   30   32 1    
    59   30   86 1    
    60   31   87 1    
    61   31   88 1    
    62   31   89 1    
    63   32   33 2    
    64   32   34 am   BACKBONE|DICT|INTERRES
    65   34   35 1    
    66   34   90 1    
    67   35   36 1    
    68   35   37 1    
    69   35   91 1    
    70   36   92 1    
    71   36   93 1    
    72   36   94 1    
    73   37   38 2    
    74   37   39 am   BACKBONE|DICT|INTERRES
    75   39   40 1    
    76   39   95 1    
    77   40   41 1    
    78   40   42 1    
    79   40   96 1    
    80   41   97 1    
    81   41   98 1    
    82   41   99 1    
    83   42   43 2    
    84   42   44 am   BACKBONE|DICT|INTERRES
    85   44   45 1    
    86   44  100 1    
    87   45   46 1    
    88   45   47 1    
    89   45  101 1    
    90   46  102 1    
    91   46  103 1    
    92   46  104 1    
    93   47   48 2    
    94   47   49 am   BACKBONE|DICT|INTERRES
    95   49   50 1    
    96   49  105 1    
    97   50   51 1    
    98   50   52 1    
    99   50  106 1    
   100   51  107 1    
   101   51  108 1    
   102   51  109 1    
   103   52   53 2    
   104   52   54 am   BACKBONE|DICT|INTERRES
   105   54   55 1    
   106   54  110 1    
   107   55   56 1    
   108   55   59 1    
   109   55  111 1    
   110   56   57 am   BACKBONE|DICT|INTERRES
   111   56   58 2    
   112   57  112 1    
   113   57  113 1    
   114   59   60 1    
   115   59  114 1    
   116   59  115 1    
   117   60   61 1    
   118   61  116 1    
   119   61  117 1    
@<TRIPOS>SUBSTRUCTURE
     1 UNK         1 GROUP             0       ****    0 ROOT    
