@<TRIPOS>MOLECULE
3R8
117   119    1
SMALL
USER_CHARGES


@<TRIPOS>ATOM
      1 CA         18.7469  -27.4228  -41.2382 C.3       0 UNK        -0.2013 
      2 C          18.4517  -26.8822  -42.6288 C.2       0 UNK         0.4866 
      3 O          19.3213  -26.9381  -43.4962 O.2       0 UNK        -0.5176 
      4 N          17.2435  -26.3440  -42.8454 N.am      1 UNK        -0.4884 
      5 CA         16.7429  -25.8193  -44.1273 C.3       1 UNK         0.0853 
      6 C6         16.4743  -26.9403  -45.1748 C.3       10 UNK        -0.0849 
      7 S7         15.3952  -28.2738  -44.5585 S.3       10 UNK        -0.2776 
      8 C8         15.9860  -29.6807  -45.5547 C.3       10 UNK         0.0316 
      9 C9         17.3668  -30.1614  -45.1252 C.ar      10 UNK        -0.0863 
     10 C10        17.5096  -30.9015  -43.9491 C.ar      10 UNK        -0.1009 
     11 C11        18.7576  -31.4047  -43.5729 C.ar      10 UNK        -0.0712 
     12 C12        19.8760  -31.1389  -44.3701 C.ar      10 UNK        -0.0894 
     13 C13        19.7519  -30.3936  -45.5483 C.ar      10 UNK        -0.0745 
     14 C14        18.4903  -29.9147  -45.9226 C.ar      10 UNK        -0.0972 
     15 C15        20.9676  -30.1905  -46.4508 C.3       10 UNK         0.0209 
     16 S16        21.1908  -28.4744  -47.0283 S.3       10 UNK        -0.2568 
     17 C17        21.8698  -27.6710  -45.5399 C.3       10 UNK        -0.0983 
     18 CA         21.8950  -26.1253  -45.6649 C.3       3 UNK         0.0876 
     19 N          20.5808  -25.5541  -45.9856 N.am      3 UNK        -0.4424 
     20 C          20.3763  -24.3024  -46.4264 C.2       2 UNK         0.4918 
     21 O          21.2869  -23.5113  -46.6740 O.2       2 UNK        -0.4875 
     22 CA         18.9204  -23.8434  -46.6417 C.3       2 UNK         0.0481 
     23 CB         18.5972  -23.7813  -48.1435 C.3       2 UNK        -0.1831 
     24 N          17.9427  -24.7093  -45.9805 N.am      2 UNK        -0.4498 
     25 C          17.6541  -24.6882  -44.6705 C.2       1 UNK         0.5027 
     26 O          18.0951  -23.8373  -43.8939 O.2       1 UNK        -0.4969 
     27 C          22.4728  -25.4717  -44.3942 C.2       3 UNK         0.5005 
     28 O          23.6662  -25.1689  -44.3519 O.2       3 UNK        -0.5279 
     29 N          21.5979  -25.2358  -43.4040 N.am      4 UNK        -0.4463 
     30 CA         21.7494  -24.4431  -42.1752 C.3       4 UNK         0.0283 
     31 CB         22.0569  -22.9709  -42.5076 C.3       4 UNK        -0.1875 
     32 C          22.7461  -24.9886  -41.1377 C.2       4 UNK         0.4949 
     33 O          22.4817  -24.8700  -39.9415 O.2       4 UNK        -0.5039 
     34 N          23.8598  -25.5745  -41.5930 N.am      5 UNK        -0.4663 
     35 CA         24.9134  -26.1605  -40.7590 C.3       5 UNK         0.0242 
     36 CB         26.1282  -26.4912  -41.6413 C.3       5 UNK        -0.1982 
     37 C          24.4593  -27.4086  -39.9831 C.2       5 UNK         0.5017 
     38 O          24.9904  -27.6642  -38.9021 O.2       5 UNK        -0.5012 
     39 N          23.4919  -28.1466  -40.5526 N.am      6 UNK        -0.4439 
     40 CA         22.8654  -29.3634  -40.0219 C.3       6 UNK         0.0297 
     41 CB         21.9528  -29.0234  -38.8251 C.3       6 UNK        -0.2006 
     42 C          23.8895  -30.4716  -39.7061 C.2       6 UNK         0.4892 
     43 O          23.9052  -31.0089  -38.5977 O.2       6 UNK        -0.5089 
     44 N          24.7454  -30.7722  -40.6945 N.am      7 UNK        -0.4243 
     45 CA         25.7909  -31.7992  -40.6122 C.3       7 UNK         0.0196 
     46 CB         26.7599  -31.6285  -41.7935 C.3       7 UNK        -0.2007 
     47 C          25.2365  -33.2357  -40.5700 C.2       7 UNK         0.5020 
     48 O          25.8936  -34.1202  -40.0198 O.2       7 UNK        -0.5147 
     49 N          24.0448  -33.4342  -41.1455 N.am      8 UNK        -0.4734 
     50 CA         23.2555  -34.6611  -41.0651 C.3       8 UNK         0.0238 
     51 CB         22.8339  -35.0773  -42.4909 C.3       8 UNK        -0.1912 
     52 C          22.0830  -34.3962  -40.1041 C.2       8 UNK         0.5038 
     53 O          22.3280  -34.0705  -38.9418 O.2       8 UNK        -0.5046 
     54 N          20.8438  -34.5126  -40.5994 N.am      9 UNK        -0.4200 
     55 CA         19.5931  -34.1619  -39.9011 C.3       9 UNK         0.0839 
     56 C          19.2493  -35.0597  -38.6727 C.2       9 UNK         0.5513 
     57 N          19.8259  -36.2486  -38.5439 N.am      9 UNK        -0.7519 
     58 O          18.4226  -34.6929  -37.8413 O.2       9 UNK        -0.4960 
     59 C59        19.4868  -32.6370  -39.5812 C.3       10 UNK        -0.0876 
     60 S60        19.7707  -31.4917  -40.9841 S.3       10 UNK        -0.2414 
     61 C61        18.8779  -32.2980  -42.3477 C.3       10 UNK         0.0169 
     62 H62        17.8940  -27.3169  -40.5684 H         1 UNK         0.0903 
     63 H63        19.5935  -26.8938  -40.8014 H         1 UNK         0.0903 
     64 H64        19.0014  -28.4807  -41.2997 H         1 UNK         0.0903 
     65 H65        16.5841  -26.2980  -42.0814 H         1 UNK         0.3096 
     66 H66        15.7878  -25.3401  -43.9061 H         1 UNK         0.1121 
     67 H67        15.9909  -26.5336  -46.0650 H         1 UNK         0.0849 
     68 H68        17.4192  -27.3765  -45.5006 H         1 UNK         0.0849 
     69 H69        15.2754  -30.5026  -45.4554 H         1 UNK         0.0865 
     70 H70        15.9806  -29.4054  -46.6106 H         1 UNK         0.0865 
     71 H71        16.6389  -31.1080  -43.3415 H         1 UNK         0.1346 
     72 H72        20.8382  -31.5409  -44.0838 H         1 UNK         0.1412 
     73 H73        18.3832  -29.3621  -46.8459 H         1 UNK         0.1426 
     74 H74        21.8825  -30.5139  -45.9518 H         1 UNK         0.0716 
     75 H75        20.8530  -30.8338  -47.3240 H         1 UNK         0.0716 
     76 H76        22.8802  -28.0529  -45.3823 H         1 UNK         0.0695 
     77 H77        21.2867  -27.9909  -44.6760 H         1 UNK         0.0695 
     78 H78        22.5693  -25.8719  -46.4862 H         1 UNK         0.0983 
     79 H79        19.7863  -26.1398  -45.7729 H         1 UNK         0.3095 
     80 H80        18.8290  -22.8347  -46.2333 H         1 UNK         0.0454 
     81 H81        17.5896  -23.4040  -48.3183 H         1 UNK         0.0851 
     82 H82        18.6777  -24.7608  -48.6166 H         1 UNK         0.0851 
     83 H83        19.2849  -23.1125  -48.6632 H         1 UNK         0.0851 
     84 H84        17.5239  -25.4256  -46.5555 H         1 UNK         0.2976 
     85 H85        20.6754  -25.6518  -43.5251 H         1 UNK         0.3116 
     86 H86        20.7676  -24.4690  -41.6993 H         1 UNK         0.0646 
     87 H87        21.2988  -22.5488  -43.1677 H         1 UNK         0.0847 
     88 H88        22.0743  -22.3620  -41.6027 H         1 UNK         0.0847 
     89 H89        23.0263  -22.8569  -42.9938 H         1 UNK         0.0847 
     90 H90        24.0041  -25.5665  -42.6013 H         1 UNK         0.3040 
     91 H91        25.2142  -25.4114  -40.0230 H         1 UNK         0.1015 
     92 H92        25.8795  -27.2167  -42.4169 H         1 UNK         0.0786 
     93 H93        26.9401  -26.9131  -41.0471 H         1 UNK         0.0786 
     94 H94        26.5169  -25.5979  -42.1308 H         1 UNK         0.0786 
     95 H95        23.1435  -27.8240  -41.4441 H         1 UNK         0.3172 
     96 H96        22.2297  -29.7518  -40.8183 H         1 UNK         0.0595 
     97 H97        21.4111  -29.9072  -38.4856 H         1 UNK         0.0839 
     98 H98        21.2097  -28.2729  -39.0941 H         1 UNK         0.0839 
     99 H99        22.5225  -28.6432  -37.9765 H         1 UNK         0.0839 
    100 H100       24.6789  -30.2591  -41.5616 H         1 UNK         0.2998 
    101 H101       26.3479  -31.6376  -39.6866 H         1 UNK         0.0822 
    102 H102       27.5676  -32.3602  -41.7434 H         1 UNK         0.0787 
    103 H103       26.2574  -31.7637  -42.7521 H         1 UNK         0.0787 
    104 H104       27.2203  -30.6401  -41.7902 H         1 UNK         0.0787 
    105 H105       23.5766  -32.6290  -41.5350 H         1 UNK         0.3055 
    106 H106       23.8443  -35.4727  -40.6315 H         1 UNK         0.1106 
    107 H107       23.7097  -35.2612  -43.1137 H         1 UNK         0.0828 
    108 H108       22.2570  -36.0031  -42.4813 H         1 UNK         0.0828 
    109 H109       22.2379  -34.3104  -42.9878 H         1 UNK         0.0828 
    110 H110       20.7389  -34.8209  -41.5542 H         1 UNK         0.2931 
    111 H111       18.7992  -34.3996  -40.6083 H         1 UNK         0.0412 
    112 H112       20.4987  -36.5672  -39.2227 H         1 UNK         0.3472 
    113 H113       19.5912  -36.8290  -37.7537 H         1 UNK         0.3472 
    114 H114       18.4969  -32.4090  -39.1822 H         1 UNK         0.0970 
    115 H115       20.1899  -32.3718  -38.7898 H         1 UNK         0.0970 
    116 H116       19.3963  -33.2126  -42.6355 H         1 UNK         0.0612 
    117 H117       17.8885  -32.5957  -41.9967 H         1 UNK         0.0612 
@<TRIPOS>BOND
     1    1    2 1    
     2    1   62 1    
     3    1   63 1    
     4    1   64 1    
     5    2    3 2    
     6    2    4 am   BACKBONE|DICT|INTERRES
     7    4    5 1    
     8    4   65 1    
     9    5    6 1    
    10    5   25 1    
    11    5   66 1    
    12    6    7 1    
    13    6   67 1    
    14    6   68 1    
    15    7    8 1    
    16    8    9 1    
    17    8   69 1    
    18    8   70 1    
    19    9   10 ar   
    20    9   14 ar   
    21   10   11 ar   
    22   10   71 1    
    23   11   12 ar   
    24   11   61 1    
    25   12   13 ar   
    26   12   72 1    
    27   13   14 ar   
    28   13   15 1    
    29   14   73 1    
    30   15   16 1    
    31   15   74 1    
    32   15   75 1    
    33   16   17 1    
    34   17   18 1    
    35   17   76 1    
    36   17   77 1    
    37   18   19 1    
    38   18   27 1    
    39   18   78 1    
    40   19   20 am   BACKBONE|DICT|INTERRES
    41   19   79 1    
    42   20   21 2    
    43   20   22 1    
    44   22   23 1    
    45   22   24 1    
    46   22   80 1    
    47   23   81 1    
    48   23   82 1    
    49   23   83 1    
    50   24   25 am   BACKBONE|DICT|INTERRES
    51   24   84 1    
    52   25   26 2    
    53   27   28 2    
    54   27   29 am   BACKBONE|DICT|INTERRES
    55   29   30 1    
    56   29   85 1    
    57   30   31 1    
    58   30   32 1    
    59   30   86 1    
    60   31   87 1    
    61   31   88 1    
    62   31   89 1    
    63   32   33 2    
    64   32   34 am   BACKBONE|DICT|INTERRES
    65   34   35 1    
    66   34   90 1    
    67   35   36 1    
    68   35   37 1    
    69   35   91 1    
    70   36   92 1    
    71   36   93 1    
    72   36   94 1    
    73   37   38 2    
    74   37   39 am   BACKBONE|DICT|INTERRES
    75   39   40 1    
    76   39   95 1    
    77   40   41 1    
    78   40   42 1    
    79   40   96 1    
    80   41   97 1    
    81   41   98 1    
    82   41   99 1    
    83   42   43 2    
    84   42   44 am   BACKBONE|DICT|INTERRES
    85   44   45 1    
    86   44  100 1    
    87   45   46 1    
    88   45   47 1    
    89   45  101 1    
    90   46  102 1    
    91   46  103 1    
    92   46  104 1    
    93   47   48 2    
    94   47   49 am   BACKBONE|DICT|INTERRES
    95   49   50 1    
    96   49  105 1    
    97   50   51 1    
    98   50   52 1    
    99   50  106 1    
   100   51  107 1    
   101   51  108 1    
   102   51  109 1    
   103   52   53 2    
   104   52   54 am   BACKBONE|DICT|INTERRES
   105   54   55 1    
   106   54  110 1    
   107   55   56 1    
   108   55   59 1    
   109   55  111 1    
   110   56   57 am   BACKBONE|DICT|INTERRES
   111   56   58 2    
   112   57  112 1    
   113   57  113 1    
   114   59   60 1    
   115   59  114 1    
   116   59  115 1    
   117   60   61 1    
   118   61  116 1    
   119   61  117 1    
@<TRIPOS>SUBSTRUCTURE
     1 UNK         1 GROUP             0       ****    0 ROOT    
