@<TRIPOS>MOLECULE
3R8
117   119    1
SMALL
USER_CHARGES


@<TRIPOS>ATOM
      1 CA         13.6861  -23.8660  -45.8498 C.3       0 UNK        -0.2013 
      2 C          14.2176  -24.8480  -44.8158 C.2       0 UNK         0.4866 
      3 O          13.9644  -24.6684  -43.6243 O.2       0 UNK        -0.5176 
      4 N          14.9409  -25.8810  -45.2727 N.am      1 UNK        -0.4884 
      5 CA         15.6075  -26.9236  -44.4772 C.3       1 UNK         0.0853 
      6 C6         14.6228  -27.6829  -43.5385 C.3       10 UNK        -0.0849 
      7 S7         15.1583  -29.3248  -42.9363 S.3       10 UNK        -0.2776 
      8 C8         15.2804  -30.3299  -44.4532 C.3       10 UNK         0.0316 
      9 C9         16.7149  -30.3829  -44.9614 C.ar      10 UNK        -0.0863 
     10 C10        17.6969  -31.0294  -44.2053 C.ar      10 UNK        -0.1009 
     11 C11        19.0273  -31.0495  -44.6326 C.ar      10 UNK        -0.0712 
     12 C12        19.3712  -30.4302  -45.8372 C.ar      10 UNK        -0.0894 
     13 C13        18.3955  -29.7944  -46.6104 C.ar      10 UNK        -0.0745 
     14 C14        17.0675  -29.7885  -46.1761 C.ar      10 UNK        -0.0972 
     15 C15        18.7660  -29.1107  -47.9164 C.3       10 UNK         0.0209 
     16 S16        19.1164  -27.3421  -47.6638 S.3       10 UNK        -0.2568 
     17 C17        20.8419  -27.3843  -47.0707 C.3       10 UNK        -0.0983 
     18 CA         21.0506  -26.6115  -45.7451 C.3       3 UNK         0.0876 
     19 N          20.2034  -27.1195  -44.6575 N.am      3 UNK        -0.4424 
     20 C          20.0139  -26.5015  -43.4826 C.2       2 UNK         0.4918 
     21 O          20.6007  -25.4710  -43.1481 O.2       2 UNK        -0.4875 
     22 CA         18.9637  -27.1345  -42.5500 C.3       2 UNK         0.0481 
     23 CB         18.7830  -26.3626  -41.2269 C.3       2 UNK        -0.1831 
     24 N          17.6717  -27.3383  -43.2173 N.am      2 UNK        -0.4498 
     25 C          16.8884  -26.4042  -43.7789 C.2       1 UNK         0.5027 
     26 O          17.1647  -25.2017  -43.7931 O.2       1 UNK        -0.4969 
     27 C          22.5558  -26.5544  -45.4009 C.2       3 UNK         0.5005 
     28 O          23.2755  -25.7719  -46.0250 O.2       3 UNK        -0.5279 
     29 N          23.0134  -27.3662  -44.4387 N.am      4 UNK        -0.4463 
     30 CA         24.3910  -27.3896  -43.9563 C.3       4 UNK         0.0283 
     31 CB         25.1624  -28.5323  -44.6396 C.3       4 UNK        -0.1875 
     32 C          24.3751  -27.5756  -42.4386 C.2       4 UNK         0.4949 
     33 O          23.6757  -28.4608  -41.9473 O.2       4 UNK        -0.5039 
     34 N          25.1735  -26.7702  -41.7273 N.am      5 UNK        -0.4663 
     35 CA         25.3323  -26.8436  -40.2696 C.3       5 UNK         0.0242 
     36 CB         25.9227  -25.5184  -39.7604 C.3       5 UNK        -0.1982 
     37 C          26.1991  -28.0311  -39.8116 C.2       5 UNK         0.5017 
     38 O          26.1012  -28.4372  -38.6539 O.2       5 UNK        -0.5012 
     39 N          27.0325  -28.5583  -40.7202 N.am      6 UNK        -0.4439 
     40 CA         27.8746  -29.7378  -40.5050 C.3       6 UNK         0.0297 
     41 CB         29.0127  -29.7345  -41.5390 C.3       6 UNK        -0.2006 
     42 C          27.0928  -31.0637  -40.5736 C.2       6 UNK         0.4892 
     43 O          27.5901  -32.0761  -40.0782 O.2       6 UNK        -0.5089 
     44 N          25.9051  -31.0449  -41.1930 N.am      7 UNK        -0.4243 
     45 CA         24.9913  -32.1822  -41.2801 C.3       7 UNK         0.0196 
     46 CB         24.1301  -32.0205  -42.5437 C.3       7 UNK        -0.2007 
     47 C          24.1134  -32.2761  -40.0216 C.2       7 UNK         0.5020 
     48 O          24.0164  -31.3155  -39.2549 O.2       7 UNK        -0.5147 
     49 N          23.4500  -33.4278  -39.8487 N.am      8 UNK        -0.4734 
     50 CA         22.5633  -33.7307  -38.7143 C.3       8 UNK         0.0238 
     51 CB         22.1070  -35.1960  -38.8093 C.3       8 UNK        -0.1912 
     52 C          21.3443  -32.7961  -38.5809 C.2       8 UNK         0.5038 
     53 O          20.7960  -32.6752  -37.4847 O.2       8 UNK        -0.5046 
     54 N          20.9564  -32.1504  -39.6866 N.am      9 UNK        -0.4200 
     55 CA         19.9544  -31.0790  -39.7418 C.3       9 UNK         0.0839 
     56 C          20.4166  -29.7165  -39.1436 C.2       9 UNK         0.5513 
     57 N          21.6911  -29.5129  -38.8307 N.am      9 UNK        -0.7519 
     58 O          19.5904  -28.8313  -38.9401 O.2       9 UNK        -0.4960 
     59 C59        19.3783  -30.9234  -41.1728 C.3       10 UNK        -0.0876 
     60 S60        20.6633  -30.6495  -42.4483 S.3       10 UNK        -0.2414 
     61 C61        20.0959  -31.7325  -43.7936 C.3       10 UNK         0.0169 
     62 H62        13.9656  -24.1480  -46.8648 H         1 UNK         0.0903 
     63 H63        14.0792  -22.8685  -45.6552 H         1 UNK         0.0903 
     64 H64        12.5985  -23.8195  -45.7989 H         1 UNK         0.0903 
     65 H65        15.1233  -25.9318  -46.2658 H         1 UNK         0.3096 
     66 H66        15.9581  -27.6230  -45.2288 H         1 UNK         0.1121 
     67 H67        14.3902  -27.0727  -42.6642 H         1 UNK         0.0849 
     68 H68        13.6703  -27.8301  -44.0504 H         1 UNK         0.0849 
     69 H69        14.9485  -31.3449  -44.2297 H         1 UNK         0.0865 
     70 H70        14.5987  -29.9482  -45.2150 H         1 UNK         0.0865 
     71 H71        17.4226  -31.5031  -43.2733 H         1 UNK         0.1346 
     72 H72        20.3991  -30.4472  -46.1717 H         1 UNK         0.1412 
     73 H73        16.3130  -29.3050  -46.7819 H         1 UNK         0.1426 
     74 H74        19.6218  -29.6009  -48.3833 H         1 UNK         0.0716 
     75 H75        17.9425  -29.2051  -48.6259 H         1 UNK         0.0716 
     76 H76        21.4571  -26.9509  -47.8619 H         1 UNK         0.0695 
     77 H77        21.1798  -28.4156  -46.9661 H         1 UNK         0.0695 
     78 H78        20.7441  -25.5772  -45.9182 H         1 UNK         0.0983 
     79 H79        19.6616  -27.9462  -44.8660 H         1 UNK         0.3095 
     80 H80        19.3388  -28.1231  -42.2960 H         1 UNK         0.0454 
     81 H81        18.4369  -25.3421  -41.3922 H         1 UNK         0.0851 
     82 H82        19.7257  -26.3033  -40.6814 H         1 UNK         0.0851 
     83 H83        18.0663  -26.8604  -40.5739 H         1 UNK         0.0851 
     84 H84        17.3462  -28.2966  -43.2547 H         1 UNK         0.2976 
     85 H85        22.3646  -27.9506  -43.9268 H         1 UNK         0.3116 
     86 H86        24.8859  -26.4429  -44.1842 H         1 UNK         0.0646 
     87 H87        25.1984  -28.3933  -45.7201 H         1 UNK         0.0847 
     88 H88        26.1926  -28.5794  -44.2849 H         1 UNK         0.0847 
     89 H89        24.7036  -29.5023  -44.4435 H         1 UNK         0.0847 
     90 H90        25.7091  -26.0600  -42.2075 H         1 UNK         0.3040 
     91 H91        24.3445  -26.9744  -39.8205 H         1 UNK         0.1015 
     92 H92        26.9118  -25.3278  -40.1790 H         1 UNK         0.0786 
     93 H93        26.0255  -25.5289  -38.6743 H         1 UNK         0.0786 
     94 H94        25.2809  -24.6744  -40.0141 H         1 UNK         0.0786 
     95 H95        27.0603  -28.1357  -41.6364 H         1 UNK         0.3172 
     96 H96        28.3189  -29.6698  -39.5096 H         1 UNK         0.0595 
     97 H97        29.6810  -30.5832  -41.3857 H         1 UNK         0.0839 
     98 H98        29.6184  -28.8313  -41.4615 H         1 UNK         0.0839 
     99 H99        28.6337  -29.8002  -42.5597 H         1 UNK         0.0839 
    100 H100       25.5315  -30.1534  -41.4862 H         1 UNK         0.2998 
    101 H101       25.5687  -33.1054  -41.3659 H         1 UNK         0.0822 
    102 H102       24.7470  -32.0106  -43.4424 H         1 UNK         0.0787 
    103 H103       23.4172  -32.8387  -42.6522 H         1 UNK         0.0787 
    104 H104       23.5609  -31.0914  -42.5230 H         1 UNK         0.0787 
    105 H105       23.5752  -34.1644  -40.5292 H         1 UNK         0.3055 
    106 H106       23.1500  -33.6123  -37.8005 H         1 UNK         0.1106 
    107 H107       22.9562  -35.8795  -38.7970 H         1 UNK         0.0828 
    108 H108       21.4693  -35.4623  -37.9649 H         1 UNK         0.0828 
    109 H109       21.5359  -35.3831  -39.7195 H         1 UNK         0.0828 
    110 H110       21.4826  -32.2958  -40.5350 H         1 UNK         0.2931 
    111 H111       19.1234  -31.3971  -39.1091 H         1 UNK         0.0412 
    112 H112       21.9619  -28.6259  -38.4397 H         1 UNK         0.3472 
    113 H113       22.3986  -30.2190  -39.0084 H         1 UNK         0.3472 
    114 H114       18.8208  -31.8283  -41.4149 H         1 UNK         0.0970 
    115 H115       18.6470  -30.1145  -41.2162 H         1 UNK         0.0970 
    116 H116       20.9554  -31.9866  -44.4158 H         1 UNK         0.0612 
    117 H117       19.7242  -32.6768  -43.3935 H         1 UNK         0.0612 
@<TRIPOS>BOND
     1    1    2 1    
     2    1   62 1    
     3    1   63 1    
     4    1   64 1    
     5    2    3 2    
     6    2    4 am   BACKBONE|DICT|INTERRES
     7    4    5 1    
     8    4   65 1    
     9    5    6 1    
    10    5   25 1    
    11    5   66 1    
    12    6    7 1    
    13    6   67 1    
    14    6   68 1    
    15    7    8 1    
    16    8    9 1    
    17    8   69 1    
    18    8   70 1    
    19    9   10 ar   
    20    9   14 ar   
    21   10   11 ar   
    22   10   71 1    
    23   11   12 ar   
    24   11   61 1    
    25   12   13 ar   
    26   12   72 1    
    27   13   14 ar   
    28   13   15 1    
    29   14   73 1    
    30   15   16 1    
    31   15   74 1    
    32   15   75 1    
    33   16   17 1    
    34   17   18 1    
    35   17   76 1    
    36   17   77 1    
    37   18   19 1    
    38   18   27 1    
    39   18   78 1    
    40   19   20 am   BACKBONE|DICT|INTERRES
    41   19   79 1    
    42   20   21 2    
    43   20   22 1    
    44   22   23 1    
    45   22   24 1    
    46   22   80 1    
    47   23   81 1    
    48   23   82 1    
    49   23   83 1    
    50   24   25 am   BACKBONE|DICT|INTERRES
    51   24   84 1    
    52   25   26 2    
    53   27   28 2    
    54   27   29 am   BACKBONE|DICT|INTERRES
    55   29   30 1    
    56   29   85 1    
    57   30   31 1    
    58   30   32 1    
    59   30   86 1    
    60   31   87 1    
    61   31   88 1    
    62   31   89 1    
    63   32   33 2    
    64   32   34 am   BACKBONE|DICT|INTERRES
    65   34   35 1    
    66   34   90 1    
    67   35   36 1    
    68   35   37 1    
    69   35   91 1    
    70   36   92 1    
    71   36   93 1    
    72   36   94 1    
    73   37   38 2    
    74   37   39 am   BACKBONE|DICT|INTERRES
    75   39   40 1    
    76   39   95 1    
    77   40   41 1    
    78   40   42 1    
    79   40   96 1    
    80   41   97 1    
    81   41   98 1    
    82   41   99 1    
    83   42   43 2    
    84   42   44 am   BACKBONE|DICT|INTERRES
    85   44   45 1    
    86   44  100 1    
    87   45   46 1    
    88   45   47 1    
    89   45  101 1    
    90   46  102 1    
    91   46  103 1    
    92   46  104 1    
    93   47   48 2    
    94   47   49 am   BACKBONE|DICT|INTERRES
    95   49   50 1    
    96   49  105 1    
    97   50   51 1    
    98   50   52 1    
    99   50  106 1    
   100   51  107 1    
   101   51  108 1    
   102   51  109 1    
   103   52   53 2    
   104   52   54 am   BACKBONE|DICT|INTERRES
   105   54   55 1    
   106   54  110 1    
   107   55   56 1    
   108   55   59 1    
   109   55  111 1    
   110   56   57 am   BACKBONE|DICT|INTERRES
   111   56   58 2    
   112   57  112 1    
   113   57  113 1    
   114   59   60 1    
   115   59  114 1    
   116   59  115 1    
   117   60   61 1    
   118   61  116 1    
   119   61  117 1    
@<TRIPOS>SUBSTRUCTURE
     1 UNK         1 GROUP             0       ****    0 ROOT    
