@<TRIPOS>MOLECULE
3R8
117   119    1
SMALL
USER_CHARGES


@<TRIPOS>ATOM
      1 CA         16.8335  -24.0182  -39.7947 C.3       0 UNK        -0.2013 
      2 C          16.6210  -24.3631  -41.2611 C.2       0 UNK         0.4866 
      3 O          15.5128  -24.2074  -41.7743 O.2       0 UNK        -0.5176 
      4 N          17.6747  -24.8274  -41.9384 N.am      1 UNK        -0.4884 
      5 CA         17.6964  -25.1820  -43.3556 C.3       1 UNK         0.0853 
      6 C6         17.0040  -26.5409  -43.6352 C.3       10 UNK        -0.0849 
      7 S7         16.4415  -26.6886  -45.3636 S.3       10 UNK        -0.2776 
      8 C8         15.8248  -28.4013  -45.3877 C.3       10 UNK         0.0316 
      9 C9         16.9534  -29.4085  -45.2247 C.ar      10 UNK        -0.0863 
     10 C10        17.1397  -30.0717  -44.0071 C.ar      10 UNK        -0.1009 
     11 C11        18.1821  -30.9902  -43.8523 C.ar      10 UNK        -0.0712 
     12 C12        19.0270  -31.2550  -44.9327 C.ar      10 UNK        -0.0894 
     13 C13        18.8593  -30.5896  -46.1515 C.ar      10 UNK        -0.0745 
     14 C14        17.8161  -29.6711  -46.2931 C.ar      10 UNK        -0.0972 
     15 C15        19.8037  -30.8637  -47.3147 C.3       10 UNK         0.0209 
     16 S16        21.0790  -29.5711  -47.4957 S.3       10 UNK        -0.2568 
     17 C17        22.0029  -29.7333  -45.9253 C.3       10 UNK        -0.0983 
     18 CA         22.2419  -28.4163  -45.1277 C.3       3 UNK         0.0876 
     19 N          21.3614  -27.2992  -45.4911 N.am      3 UNK        -0.4424 
     20 C          21.7251  -26.0146  -45.3774 C.2       2 UNK         0.4918 
     21 O          22.8197  -25.6468  -44.9505 O.2       2 UNK        -0.4875 
     22 CA         20.6865  -24.9582  -45.7875 C.3       2 UNK         0.0481 
     23 CB         20.5020  -24.9386  -47.3140 C.3       2 UNK        -0.1831 
     24 N          19.3823  -25.1090  -45.1348 N.am      2 UNK        -0.4498 
     25 C          19.1664  -25.1630  -43.8132 C.2       1 UNK         0.5027 
     26 O          20.0656  -25.2018  -42.9671 O.2       1 UNK        -0.4969 
     27 C          22.2130  -28.6693  -43.6063 C.2       3 UNK         0.5005 
     28 O          23.2170  -29.1116  -43.0492 O.2       3 UNK        -0.5279 
     29 N          21.0833  -28.3729  -42.9431 N.am      4 UNK        -0.4463 
     30 CA         20.9187  -28.4940  -41.4883 C.3       4 UNK         0.0283 
     31 CB         19.4596  -28.2199  -41.0948 C.3       4 UNK        -0.1875 
     32 C          21.8754  -27.5766  -40.7067 C.2       4 UNK         0.4949 
     33 O          22.3952  -27.9844  -39.6692 O.2       4 UNK        -0.5039 
     34 N          22.1582  -26.3884  -41.2600 N.am      5 UNK        -0.4663 
     35 CA         23.1835  -25.4564  -40.7794 C.3       5 UNK         0.0242 
     36 CB         23.0496  -24.1302  -41.5442 C.3       5 UNK        -0.1982 
     37 C          24.6239  -26.0005  -40.8846 C.2       5 UNK         0.5017 
     38 O          25.4978  -25.5132  -40.1676 O.2       5 UNK        -0.5012 
     39 N          24.8419  -27.0083  -41.7421 N.am      6 UNK        -0.4439 
     40 CA         26.0902  -27.7632  -41.8792 C.3       6 UNK         0.0297 
     41 CB         26.3907  -27.9700  -43.3754 C.3       6 UNK        -0.2006 
     42 C          26.0388  -29.1047  -41.1156 C.2       6 UNK         0.4892 
     43 O          26.8941  -29.9595  -41.3504 O.2       6 UNK        -0.5089 
     44 N          25.0580  -29.2602  -40.2118 N.am      7 UNK        -0.4243 
     45 CA         24.8226  -30.4001  -39.3198 C.3       7 UNK         0.0196 
     46 CB         26.0235  -30.6383  -38.3777 C.3       7 UNK        -0.2007 
     47 C          24.3455  -31.6803  -40.0321 C.2       7 UNK         0.5020 
     48 O          24.5912  -32.7791  -39.5294 O.2       7 UNK        -0.5147 
     49 N          23.6349  -31.5384  -41.1608 N.am      8 UNK        -0.4734 
     50 CA         22.9023  -32.6412  -41.7951 C.3       8 UNK         0.0238 
     51 CB         22.5156  -32.2420  -43.2265 C.3       8 UNK        -0.1912 
     52 C          21.6416  -33.0242  -40.9946 C.2       8 UNK         0.5038 
     53 O          21.1886  -32.2532  -40.1446 O.2       8 UNK        -0.5046 
     54 N          21.0827  -34.1979  -41.3167 N.am      9 UNK        -0.4200 
     55 CA         19.8789  -34.7915  -40.7020 C.3       9 UNK         0.0839 
     56 C          20.0764  -35.2911  -39.2373 C.2       9 UNK         0.5513 
     57 N          21.2975  -35.3865  -38.7244 N.am      9 UNK        -0.7519 
     58 O          19.1091  -35.6331  -38.5614 O.2       9 UNK        -0.4960 
     59 C59        18.5931  -33.9237  -40.8583 C.3       10 UNK        -0.0876 
     60 S60        18.2168  -33.4674  -42.5869 S.3       10 UNK        -0.2414 
     61 C61        18.4274  -31.6616  -42.5087 C.3       10 UNK         0.0169 
     62 H62        16.1653  -24.6102  -39.1698 H         1 UNK         0.0903 
     63 H63        17.8571  -24.2120  -39.4742 H         1 UNK         0.0903 
     64 H64        16.6176  -22.9643  -39.6218 H         1 UNK         0.0903 
     65 H65        18.5890  -24.8822  -41.5040 H         1 UNK         0.3096 
     66 H66        17.1744  -24.3878  -43.8951 H         1 UNK         0.1121 
     67 H67        16.1208  -26.6552  -43.0049 H         1 UNK         0.0849 
     68 H68        17.6605  -27.3735  -43.3811 H         1 UNK         0.0849 
     69 H69        15.0717  -28.5286  -44.6083 H         1 UNK         0.0865 
     70 H70        15.3141  -28.5808  -46.3350 H         1 UNK         0.0865 
     71 H71        16.4816  -29.8609  -43.1751 H         1 UNK         0.1346 
     72 H72        19.8247  -31.9751  -44.8156 H         1 UNK         0.1412 
     73 H73        17.6813  -29.1523  -47.2327 H         1 UNK         0.1426 
     74 H74        19.2307  -30.9247  -48.2411 H         1 UNK         0.0716 
     75 H75        20.2898  -31.8333  -47.1949 H         1 UNK         0.0716 
     76 H76        22.9679  -30.1843  -46.1623 H         1 UNK         0.0695 
     77 H77        21.5072  -30.4802  -45.3124 H         1 UNK         0.0695 
     78 H78        23.2648  -28.1078  -45.3584 H         1 UNK         0.0983 
     79 H79        20.4634  -27.5367  -45.8877 H         1 UNK         0.3095 
     80 H80        21.0799  -23.9849  -45.4872 H         1 UNK         0.0454 
     81 H81        20.0464  -25.8588  -47.6820 H         1 UNK         0.0851 
     82 H82        21.4607  -24.8245  -47.8220 H         1 UNK         0.0851 
     83 H83        19.8728  -24.1053  -47.6270 H         1 UNK         0.0851 
     84 H84        18.5762  -25.1306  -45.7448 H         1 UNK         0.2976 
     85 H85        20.3061  -27.9983  -43.4656 H         1 UNK         0.3116 
     86 H86        21.1540  -29.5255  -41.2166 H         1 UNK         0.0646 
     87 H87        18.7703  -28.8728  -41.6280 H         1 UNK         0.0847 
     88 H88        19.1719  -27.1891  -41.2956 H         1 UNK         0.0847 
     89 H89        19.3089  -28.3948  -40.0287 H         1 UNK         0.0847 
     90 H90        21.6324  -26.0997  -42.0800 H         1 UNK         0.3040 
     91 H91        22.9890  -25.2647  -39.7219 H         1 UNK         0.1015 
     92 H92        23.7733  -23.3963  -41.1868 H         1 UNK         0.0786 
     93 H93        22.0576  -23.6964  -41.4157 H         1 UNK         0.0786 
     94 H94        23.2194  -24.2636  -42.6132 H         1 UNK         0.0786 
     95 H95        24.0544  -27.3828  -42.2596 H         1 UNK         0.3172 
     96 H96        26.9154  -27.1897  -41.4528 H         1 UNK         0.0595 
     97 H97        25.6571  -28.6197  -43.8524 H         1 UNK         0.0839 
     98 H98        27.3694  -28.4299  -43.5173 H         1 UNK         0.0839 
     99 H99        26.3997  -27.0221  -43.9137 H         1 UNK         0.0839 
    100 H100       24.3745  -28.5165  -40.1246 H         1 UNK         0.2998 
    101 H101       23.9831  -30.0999  -38.6907 H         1 UNK         0.0822 
    102 H102       26.3232  -29.7187  -37.8752 H         1 UNK         0.0787 
    103 H103       25.7734  -31.3621  -37.6010 H         1 UNK         0.0787 
    104 H104       26.8896  -31.0273  -38.9137 H         1 UNK         0.0787 
    105 H105       23.4861  -30.6104  -41.5419 H         1 UNK         0.3055 
    106 H106       23.5630  -33.5101  -41.8407 H         1 UNK         0.1106 
    107 H107       21.7398  -31.4780  -43.2201 H         1 UNK         0.0828 
    108 H108       22.1239  -33.0941  -43.7830 H         1 UNK         0.0828 
    109 H109       23.3710  -31.8576  -43.7826 H         1 UNK         0.0828 
    110 H110       21.5201  -34.7641  -42.0291 H         1 UNK         0.2931 
    111 H111       19.7060  -35.7052  -41.2719 H         1 UNK         0.0412 
    112 H112       21.4110  -35.7226  -37.7808 H         1 UNK         0.3472 
    113 H113       22.1036  -35.1098  -39.2617 H         1 UNK         0.3472 
    114 H114       17.7255  -34.4694  -40.4831 H         1 UNK         0.0970 
    115 H115       18.6609  -33.0268  -40.2406 H         1 UNK         0.0970 
    116 H116       19.4387  -31.4257  -42.1777 H         1 UNK         0.0612 
    117 H117       17.7524  -31.2612  -41.7507 H         1 UNK         0.0612 
@<TRIPOS>BOND
     1    1    2 1    
     2    1   62 1    
     3    1   63 1    
     4    1   64 1    
     5    2    3 2    
     6    2    4 am   BACKBONE|DICT|INTERRES
     7    4    5 1    
     8    4   65 1    
     9    5    6 1    
    10    5   25 1    
    11    5   66 1    
    12    6    7 1    
    13    6   67 1    
    14    6   68 1    
    15    7    8 1    
    16    8    9 1    
    17    8   69 1    
    18    8   70 1    
    19    9   10 ar   
    20    9   14 ar   
    21   10   11 ar   
    22   10   71 1    
    23   11   12 ar   
    24   11   61 1    
    25   12   13 ar   
    26   12   72 1    
    27   13   14 ar   
    28   13   15 1    
    29   14   73 1    
    30   15   16 1    
    31   15   74 1    
    32   15   75 1    
    33   16   17 1    
    34   17   18 1    
    35   17   76 1    
    36   17   77 1    
    37   18   19 1    
    38   18   27 1    
    39   18   78 1    
    40   19   20 am   BACKBONE|DICT|INTERRES
    41   19   79 1    
    42   20   21 2    
    43   20   22 1    
    44   22   23 1    
    45   22   24 1    
    46   22   80 1    
    47   23   81 1    
    48   23   82 1    
    49   23   83 1    
    50   24   25 am   BACKBONE|DICT|INTERRES
    51   24   84 1    
    52   25   26 2    
    53   27   28 2    
    54   27   29 am   BACKBONE|DICT|INTERRES
    55   29   30 1    
    56   29   85 1    
    57   30   31 1    
    58   30   32 1    
    59   30   86 1    
    60   31   87 1    
    61   31   88 1    
    62   31   89 1    
    63   32   33 2    
    64   32   34 am   BACKBONE|DICT|INTERRES
    65   34   35 1    
    66   34   90 1    
    67   35   36 1    
    68   35   37 1    
    69   35   91 1    
    70   36   92 1    
    71   36   93 1    
    72   36   94 1    
    73   37   38 2    
    74   37   39 am   BACKBONE|DICT|INTERRES
    75   39   40 1    
    76   39   95 1    
    77   40   41 1    
    78   40   42 1    
    79   40   96 1    
    80   41   97 1    
    81   41   98 1    
    82   41   99 1    
    83   42   43 2    
    84   42   44 am   BACKBONE|DICT|INTERRES
    85   44   45 1    
    86   44  100 1    
    87   45   46 1    
    88   45   47 1    
    89   45  101 1    
    90   46  102 1    
    91   46  103 1    
    92   46  104 1    
    93   47   48 2    
    94   47   49 am   BACKBONE|DICT|INTERRES
    95   49   50 1    
    96   49  105 1    
    97   50   51 1    
    98   50   52 1    
    99   50  106 1    
   100   51  107 1    
   101   51  108 1    
   102   51  109 1    
   103   52   53 2    
   104   52   54 am   BACKBONE|DICT|INTERRES
   105   54   55 1    
   106   54  110 1    
   107   55   56 1    
   108   55   59 1    
   109   55  111 1    
   110   56   57 am   BACKBONE|DICT|INTERRES
   111   56   58 2    
   112   57  112 1    
   113   57  113 1    
   114   59   60 1    
   115   59  114 1    
   116   59  115 1    
   117   60   61 1    
   118   61  116 1    
   119   61  117 1    
@<TRIPOS>SUBSTRUCTURE
     1 UNK         1 GROUP             0       ****    0 ROOT    
