@<TRIPOS>MOLECULE
3R8
117   119    1
SMALL
USER_CHARGES


@<TRIPOS>ATOM
      1 CA         18.9001  -24.3036  -49.9590 C.3       0 UNK        -0.2013 
      2 C          19.6981  -24.5016  -48.6788 C.2       0 UNK         0.4866 
      3 O          20.6412  -23.7519  -48.4226 O.2       0 UNK        -0.5176 
      4 N          19.3348  -25.5106  -47.8779 N.am      1 UNK        -0.4884 
      5 CA         19.9586  -25.8176  -46.5874 C.3       1 UNK         0.0853 
      6 C6         19.4969  -27.1885  -46.0359 C.3       10 UNK        -0.0849 
      7 S7         20.0597  -28.6086  -47.0243 S.3       10 UNK        -0.2776 
      8 C8         18.7407  -29.8216  -46.6731 C.3       10 UNK         0.0316 
      9 C9         18.4484  -29.9645  -45.1818 C.ar      10 UNK        -0.0863 
     10 C10        19.4211  -30.4737  -44.3168 C.ar      10 UNK        -0.1009 
     11 C11        19.1610  -30.6037  -42.9490 C.ar      10 UNK        -0.0712 
     12 C12        17.9005  -30.2500  -42.4566 C.ar      10 UNK        -0.0894 
     13 C13        16.9280  -29.7050  -43.3023 C.ar      10 UNK        -0.0745 
     14 C14        17.2081  -29.5729  -44.6659 C.ar      10 UNK        -0.0972 
     15 C15        15.5699  -29.2677  -42.7580 C.3       10 UNK         0.0209 
     16 S16        15.6746  -28.3136  -41.2028 S.3       10 UNK        -0.2568 
     17 C17        16.4526  -26.7456  -41.7323 C.3       10 UNK        -0.0983 
     18 CA         18.0006  -26.7422  -41.6526 C.3       3 UNK         0.0876 
     19 N          18.5691  -25.5259  -42.2425 N.am      3 UNK        -0.4424 
     20 C          19.8785  -25.3245  -42.4374 C.2       2 UNK         0.4918 
     21 O          20.7530  -26.1267  -42.1042 O.2       2 UNK        -0.4875 
     22 CA         20.2776  -24.0806  -43.2440 C.3       2 UNK         0.0481 
     23 CB         21.5256  -23.3963  -42.6607 C.3       2 UNK        -0.1831 
     24 N          20.5675  -24.5530  -44.5945 N.am      2 UNK        -0.4498 
     25 C          19.6269  -24.7526  -45.5258 C.2       1 UNK         0.5027 
     26 O          18.5042  -24.2409  -45.4930 O.2       1 UNK        -0.4969 
     27 C          18.5461  -26.9969  -40.2289 C.2       3 UNK         0.5005 
     28 O          18.6781  -26.0564  -39.4424 O.2       3 UNK        -0.5279 
     29 N          18.9090  -28.2602  -39.9656 N.am      4 UNK        -0.4463 
     30 CA         19.5735  -28.8158  -38.7779 C.3       4 UNK         0.0283 
     31 CB         18.7877  -28.5211  -37.4856 C.3       4 UNK        -0.1875 
     32 C          21.0566  -28.4236  -38.6352 C.2       4 UNK         0.4949 
     33 O          21.8292  -29.2208  -38.1045 O.2       4 UNK        -0.5039 
     34 N          21.4394  -27.2320  -39.1111 N.am      5 UNK        -0.4663 
     35 CA         22.8192  -26.7412  -39.1201 C.3       5 UNK         0.0242 
     36 CB         22.8113  -25.2104  -39.2556 C.3       5 UNK        -0.1982 
     37 C          23.6732  -27.3800  -40.2290 C.2       5 UNK         0.5017 
     38 O          24.8737  -27.5666  -40.0250 O.2       5 UNK        -0.5012 
     39 N          23.0499  -27.6841  -41.3773 N.am      6 UNK        -0.4439 
     40 CA         23.6669  -28.3201  -42.5437 C.3       6 UNK         0.0297 
     41 CB         22.6336  -28.4083  -43.6792 C.3       6 UNK        -0.2006 
     42 C          24.2513  -29.7093  -42.2307 C.2       6 UNK         0.4892 
     43 O          23.6277  -30.4942  -41.5129 O.2       6 UNK        -0.5089 
     44 N          25.4237  -29.9900  -42.8170 N.am      7 UNK        -0.4243 
     45 CA         26.2598  -31.1742  -42.5754 C.3       7 UNK         0.0196 
     46 CB         27.5908  -30.9995  -43.3265 C.3       7 UNK        -0.2007 
     47 C          25.6227  -32.5335  -42.9221 C.2       7 UNK         0.5020 
     48 O          26.1541  -33.5640  -42.5076 O.2       7 UNK        -0.5147 
     49 N          24.5055  -32.5282  -43.6615 N.am      8 UNK        -0.4734 
     50 CA         23.6859  -33.7121  -43.9351 C.3       8 UNK         0.0238 
     51 CB         22.6541  -33.3704  -45.0226 C.3       8 UNK        -0.1912 
     52 C          22.9814  -34.2680  -42.6813 C.2       8 UNK         0.5038 
     53 O          22.6675  -35.4589  -42.6538 O.2       8 UNK        -0.5046 
     54 N          22.7456  -33.4083  -41.6825 N.am      9 UNK        -0.4200 
     55 CA         22.1495  -33.7585  -40.3894 C.3       9 UNK         0.0839 
     56 C          23.2527  -34.0849  -39.3512 C.2       9 UNK         0.5513 
     57 N          23.0036  -35.0400  -38.4659 N.am      9 UNK        -0.7519 
     58 O          24.3109  -33.4607  -39.3126 O.2       9 UNK        -0.4960 
     59 C59        21.2238  -32.6265  -39.8779 C.3       10 UNK        -0.0876 
     60 S60        19.7412  -32.4342  -40.9244 S.3       10 UNK        -0.2414 
     61 C61        20.2628  -31.0671  -42.0045 C.3       10 UNK         0.0169 
     62 H62        18.1071  -25.0438  -50.0642 H         1 UNK         0.0903 
     63 H63        18.4435  -23.3142  -49.9668 H         1 UNK         0.0903 
     64 H64        19.5554  -24.3837  -50.8259 H         1 UNK         0.0903 
     65 H65        18.5495  -26.0923  -48.1325 H         1 UNK         0.3096 
     66 H66        21.0414  -25.8392  -46.7325 H         1 UNK         0.1121 
     67 H67        18.4076  -27.2105  -45.9606 H         1 UNK         0.0849 
     68 H68        19.8704  -27.3516  -45.0219 H         1 UNK         0.0849 
     69 H69        17.8410  -29.5287  -47.2165 H         1 UNK         0.0865 
     70 H70        19.0352  -30.7920  -47.0752 H         1 UNK         0.0865 
     71 H71        20.3896  -30.7451  -44.7128 H         1 UNK         0.1346 
     72 H72        17.6790  -30.3808  -41.4066 H         1 UNK         0.1412 
     73 H73        16.4571  -29.1649  -45.3289 H         1 UNK         0.1426 
     74 H74        14.9693  -30.1600  -42.5773 H         1 UNK         0.0716 
     75 H75        15.0263  -28.6757  -43.4960 H         1 UNK         0.0716 
     76 H76        16.0447  -25.9425  -41.1158 H         1 UNK         0.0695 
     77 H77        16.1314  -26.5322  -42.7532 H         1 UNK         0.0695 
     78 H78        18.3624  -27.5488  -42.2914 H         1 UNK         0.0983 
     79 H79        17.9134  -24.8260  -42.5579 H         1 UNK         0.3095 
     80 H80        19.4567  -23.3604  -43.2505 H         1 UNK         0.0454 
     81 H81        22.3851  -24.0672  -42.6267 H         1 UNK         0.0851 
     82 H82        21.3386  -23.0523  -41.6429 H         1 UNK         0.0851 
     83 H83        21.8081  -22.5240  -43.2500 H         1 UNK         0.0851 
     84 H84        21.4534  -25.0267  -44.7006 H         1 UNK         0.2976 
     85 H85        18.7656  -28.9305  -40.7070 H         1 UNK         0.3116 
     86 H86        19.5584  -29.8974  -38.9223 H         1 UNK         0.0646 
     87 H87        18.8004  -27.4613  -37.2301 H         1 UNK         0.0847 
     88 H88        19.2189  -29.0592  -36.6405 H         1 UNK         0.0847 
     89 H89        17.7474  -28.8341  -37.5729 H         1 UNK         0.0847 
     90 H90        20.7274  -26.6257  -39.5021 H         1 UNK         0.3040 
     91 H91        23.2824  -26.9950  -38.1638 H         1 UNK         0.1015 
     92 H92        22.3422  -24.8913  -40.1859 H         1 UNK         0.0786 
     93 H93        23.8268  -24.8121  -39.2482 H         1 UNK         0.0786 
     94 H94        22.2733  -24.7421  -38.4311 H         1 UNK         0.0786 
     95 H95        22.0808  -27.3978  -41.4775 H         1 UNK         0.3172 
     96 H96        24.4796  -27.6688  -42.8714 H         1 UNK         0.0595 
     97 H97        23.0424  -28.9172  -44.5531 H         1 UNK         0.0839 
     98 H98        22.3190  -27.4169  -44.0040 H         1 UNK         0.0839 
     99 H99        21.7424  -28.9525  -43.3697 H         1 UNK         0.0839 
    100 H100       25.8296  -29.2861  -43.4170 H         1 UNK         0.2998 
    101 H101       26.4737  -31.1993  -41.5047 H         1 UNK         0.0822 
    102 H102       28.2605  -31.8405  -43.1402 H         1 UNK         0.0787 
    103 H103       27.4391  -30.9372  -44.4049 H         1 UNK         0.0787 
    104 H104       28.1138  -30.0980  -43.0063 H         1 UNK         0.0787 
    105 H105       24.1458  -31.6368  -43.9688 H         1 UNK         0.3055 
    106 H106       24.3413  -34.4991  -44.3151 H         1 UNK         0.1106 
    107 H107       22.0487  -34.2428  -45.2728 H         1 UNK         0.0828 
    108 H108       21.9716  -32.5844  -44.6994 H         1 UNK         0.0828 
    109 H109       23.1383  -33.0403  -45.9419 H         1 UNK         0.0828 
    110 H110       23.1000  -32.4601  -41.7541 H         1 UNK         0.2931 
    111 H111       21.5359  -34.6536  -40.5138 H         1 UNK         0.0412 
    112 H112       22.1352  -35.5528  -38.4818 H         1 UNK         0.3472 
    113 H113       23.7014  -35.2592  -37.7716 H         1 UNK         0.3472 
    114 H114       21.7638  -31.6797  -39.8067 H         1 UNK         0.0970 
    115 H115       20.8754  -32.8475  -38.8672 H         1 UNK         0.0970 
    116 H116       21.1372  -31.3847  -42.5724 H         1 UNK         0.0612 
    117 H117       20.5849  -30.2228  -41.3944 H         1 UNK         0.0612 
@<TRIPOS>BOND
     1    1    2 1    
     2    1   62 1    
     3    1   63 1    
     4    1   64 1    
     5    2    3 2    
     6    2    4 am   BACKBONE|DICT|INTERRES
     7    4    5 1    
     8    4   65 1    
     9    5    6 1    
    10    5   25 1    
    11    5   66 1    
    12    6    7 1    
    13    6   67 1    
    14    6   68 1    
    15    7    8 1    
    16    8    9 1    
    17    8   69 1    
    18    8   70 1    
    19    9   10 ar   
    20    9   14 ar   
    21   10   11 ar   
    22   10   71 1    
    23   11   12 ar   
    24   11   61 1    
    25   12   13 ar   
    26   12   72 1    
    27   13   14 ar   
    28   13   15 1    
    29   14   73 1    
    30   15   16 1    
    31   15   74 1    
    32   15   75 1    
    33   16   17 1    
    34   17   18 1    
    35   17   76 1    
    36   17   77 1    
    37   18   19 1    
    38   18   27 1    
    39   18   78 1    
    40   19   20 am   BACKBONE|DICT|INTERRES
    41   19   79 1    
    42   20   21 2    
    43   20   22 1    
    44   22   23 1    
    45   22   24 1    
    46   22   80 1    
    47   23   81 1    
    48   23   82 1    
    49   23   83 1    
    50   24   25 am   BACKBONE|DICT|INTERRES
    51   24   84 1    
    52   25   26 2    
    53   27   28 2    
    54   27   29 am   BACKBONE|DICT|INTERRES
    55   29   30 1    
    56   29   85 1    
    57   30   31 1    
    58   30   32 1    
    59   30   86 1    
    60   31   87 1    
    61   31   88 1    
    62   31   89 1    
    63   32   33 2    
    64   32   34 am   BACKBONE|DICT|INTERRES
    65   34   35 1    
    66   34   90 1    
    67   35   36 1    
    68   35   37 1    
    69   35   91 1    
    70   36   92 1    
    71   36   93 1    
    72   36   94 1    
    73   37   38 2    
    74   37   39 am   BACKBONE|DICT|INTERRES
    75   39   40 1    
    76   39   95 1    
    77   40   41 1    
    78   40   42 1    
    79   40   96 1    
    80   41   97 1    
    81   41   98 1    
    82   41   99 1    
    83   42   43 2    
    84   42   44 am   BACKBONE|DICT|INTERRES
    85   44   45 1    
    86   44  100 1    
    87   45   46 1    
    88   45   47 1    
    89   45  101 1    
    90   46  102 1    
    91   46  103 1    
    92   46  104 1    
    93   47   48 2    
    94   47   49 am   BACKBONE|DICT|INTERRES
    95   49   50 1    
    96   49  105 1    
    97   50   51 1    
    98   50   52 1    
    99   50  106 1    
   100   51  107 1    
   101   51  108 1    
   102   51  109 1    
   103   52   53 2    
   104   52   54 am   BACKBONE|DICT|INTERRES
   105   54   55 1    
   106   54  110 1    
   107   55   56 1    
   108   55   59 1    
   109   55  111 1    
   110   56   57 am   BACKBONE|DICT|INTERRES
   111   56   58 2    
   112   57  112 1    
   113   57  113 1    
   114   59   60 1    
   115   59  114 1    
   116   59  115 1    
   117   60   61 1    
   118   61  116 1    
   119   61  117 1    
@<TRIPOS>SUBSTRUCTURE
     1 UNK         1 GROUP             0       ****    0 ROOT    
