@<TRIPOS>MOLECULE
3R8
117   119    1
SMALL
USER_CHARGES


@<TRIPOS>ATOM
      1 CA         21.0383  -26.9066  -48.8018 C.3       0 UNK        -0.2013 
      2 C          19.5258  -26.8557  -49.0090 C.2       0 UNK         0.4866 
      3 O          19.0781  -26.3859  -50.0533 O.2       0 UNK        -0.5176 
      4 N          18.6989  -27.3334  -48.0684 N.am      1 UNK        -0.4884 
      5 CA         19.0622  -27.8551  -46.7451 C.3       1 UNK         0.0853 
      6 C6         17.8663  -28.5583  -46.0652 C.3       10 UNK        -0.0849 
      7 S7         17.3481  -30.0835  -46.9238 S.3       10 UNK        -0.2776 
      8 C8         15.7425  -30.4297  -46.1248 C.3       10 UNK         0.0316 
      9 C9         15.8467  -30.3804  -44.6070 C.ar      10 UNK        -0.0863 
     10 C10        16.4024  -31.4479  -43.8977 C.ar      10 UNK        -0.1009 
     11 C11        16.5874  -31.3580  -42.5140 C.ar      10 UNK        -0.0712 
     12 C12        16.1932  -30.1992  -41.8368 C.ar      10 UNK        -0.0894 
     13 C13        15.6447  -29.1235  -42.5408 C.ar      10 UNK        -0.0745 
     14 C14        15.4498  -29.2310  -43.9195 C.ar      10 UNK        -0.0972 
     15 C15        15.3052  -27.8185  -41.8402 C.3       10 UNK         0.0209 
     16 S16        16.5463  -26.5397  -42.2286 S.3       10 UNK        -0.2568 
     17 C17        17.7485  -26.7272  -40.8707 C.3       10 UNK        -0.0983 
     18 CA         18.9042  -27.7269  -41.1713 C.3       3 UNK         0.0876 
     19 N          19.6661  -27.4069  -42.3844 N.am      3 UNK        -0.4424 
     20 C          20.4880  -26.3639  -42.5749 C.2       2 UNK         0.4918 
     21 O          20.7184  -25.5094  -41.7180 O.2       2 UNK        -0.4875 
     22 CA         21.1687  -26.2431  -43.9534 C.3       2 UNK         0.0481 
     23 CB         22.6589  -26.6051  -43.8567 C.3       2 UNK        -0.1831 
     24 N          20.5529  -27.1067  -44.9633 N.am      2 UNK        -0.4498 
     25 C          19.5951  -26.7398  -45.8211 C.2       1 UNK         0.5027 
     26 O          19.1225  -25.6027  -45.8871 O.2       1 UNK        -0.4969 
     27 C          19.8472  -27.9429  -39.9653 C.2       3 UNK         0.5005 
     28 O          20.5190  -28.9721  -39.9033 O.2       3 UNK        -0.5279 
     29 N          19.8761  -26.9859  -39.0266 N.am      4 UNK        -0.4463 
     30 CA         20.7195  -27.0129  -37.8298 C.3       4 UNK         0.0283 
     31 CB         20.1421  -26.0405  -36.7880 C.3       4 UNK        -0.1875 
     32 C          22.1968  -26.6820  -38.1099 C.2       4 UNK         0.4949 
     33 O          23.0489  -27.0427  -37.2970 O.2       4 UNK        -0.5039 
     34 N          22.4809  -25.9940  -39.2243 N.am      5 UNK        -0.4663 
     35 CA         23.8395  -25.6802  -39.6702 C.3       5 UNK         0.0242 
     36 CB         23.8051  -24.3870  -40.5034 C.3       5 UNK        -0.1982 
     37 C          24.4446  -26.8488  -40.4679 C.2       5 UNK         0.5017 
     38 O          23.7161  -27.7439  -40.9026 O.2       5 UNK        -0.5012 
     39 N          25.7708  -26.7988  -40.6618 N.am      6 UNK        -0.4439 
     40 CA         26.5986  -27.8108  -41.3304 C.3       6 UNK         0.0297 
     41 CB         26.2449  -27.9108  -42.8344 C.3       6 UNK        -0.2006 
     42 C          26.5619  -29.1547  -40.5717 C.2       6 UNK         0.4892 
     43 O          26.6978  -29.1526  -39.3461 O.2       6 UNK        -0.5089 
     44 N          26.3934  -30.2659  -41.2940 N.am      7 UNK        -0.4243 
     45 CA         26.2149  -31.6109  -40.7589 C.3       7 UNK         0.0196 
     46 CB         27.5738  -32.3265  -40.6737 C.3       7 UNK        -0.2007 
     47 C          25.2537  -32.3570  -41.6878 C.2       7 UNK         0.5020 
     48 O          25.2209  -32.0617  -42.8857 O.2       7 UNK        -0.5147 
     49 N          24.4821  -33.2962  -41.1207 N.am      8 UNK        -0.4734 
     50 CA         23.4865  -34.1481  -41.7964 C.3       8 UNK         0.0238 
     51 CB         24.1976  -35.1955  -42.6802 C.3       8 UNK        -0.1912 
     52 C          22.4068  -33.3595  -42.5719 C.2       8 UNK         0.5038 
     53 O          21.9161  -33.8374  -43.5964 O.2       8 UNK        -0.5046 
     54 N          22.0830  -32.1573  -42.0761 N.am      9 UNK        -0.4200 
     55 CA         21.2107  -31.1530  -42.7055 C.3       9 UNK         0.0839 
     56 C          21.7763  -30.5265  -44.0155 C.2       9 UNK         0.5513 
     57 N          23.0480  -30.6999  -44.3544 N.am      9 UNK        -0.7519 
     58 O          21.0577  -29.8219  -44.7195 O.2       9 UNK        -0.4960 
     59 C59        19.7338  -31.6178  -42.8539 C.3       10 UNK        -0.0876 
     60 S60        18.9632  -32.0401  -41.2527 S.3       10 UNK        -0.2414 
     61 C61        17.2718  -32.4899  -41.7621 C.3       10 UNK         0.0169 
     62 H62        21.5550  -26.7160  -49.7424 H         1 UNK         0.0903 
     63 H63        21.3568  -26.1450  -48.0907 H         1 UNK         0.0903 
     64 H64        21.3650  -27.8828  -48.4462 H         1 UNK         0.0903 
     65 H65        17.7055  -27.2874  -48.2432 H         1 UNK         0.3096 
     66 H66        19.8516  -28.5978  -46.8773 H         1 UNK         0.1121 
     67 H67        17.0155  -27.8780  -45.9917 H         1 UNK         0.0849 
     68 H68        18.1251  -28.8407  -45.0424 H         1 UNK         0.0849 
     69 H69        15.0025  -29.7117  -46.4819 H         1 UNK         0.0865 
     70 H70        15.3896  -31.4128  -46.4397 H         1 UNK         0.0865 
     71 H71        16.7315  -32.3295  -44.4311 H         1 UNK         0.1346 
     72 H72        16.3567  -30.1212  -40.7706 H         1 UNK         0.1412 
     73 H73        15.0394  -28.3917  -44.4647 H         1 UNK         0.1426 
     74 H74        14.3281  -27.4732  -42.1812 H         1 UNK         0.0716 
     75 H75        15.2181  -27.9582  -40.7619 H         1 UNK         0.0716 
     76 H76        18.1452  -25.7300  -40.6728 H         1 UNK         0.0695 
     77 H77        17.2094  -27.0231  -39.9689 H         1 UNK         0.0695 
     78 H78        18.4532  -28.7011  -41.3589 H         1 UNK         0.0983 
     79 H79        19.5580  -28.0576  -43.1464 H         1 UNK         0.3095 
     80 H80        21.0944  -25.1999  -44.2672 H         1 UNK         0.0454 
     81 H81        23.1546  -26.5151  -44.8232 H         1 UNK         0.0851 
     82 H82        23.1810  -25.9436  -43.1671 H         1 UNK         0.0851 
     83 H83        22.8041  -27.6252  -43.4997 H         1 UNK         0.0851 
     84 H84        20.8557  -28.0813  -44.9636 H         1 UNK         0.2976 
     85 H85        19.3169  -26.1570  -39.1686 H         1 UNK         0.3116 
     86 H86        20.6852  -28.0199  -37.4081 H         1 UNK         0.0646 
     87 H87        20.1435  -25.0116  -37.1499 H         1 UNK         0.0847 
     88 H88        19.1182  -26.3034  -36.5219 H         1 UNK         0.0847 
     89 H89        20.7285  -26.0617  -35.8682 H         1 UNK         0.0847 
     90 H90        21.7369  -25.8048  -39.8871 H         1 UNK         0.3040 
     91 H91        24.4721  -25.5071  -38.7963 H         1 UNK         0.1015 
     92 H92        23.1625  -24.4808  -41.3776 H         1 UNK         0.0786 
     93 H93        24.7998  -24.1142  -40.8576 H         1 UNK         0.0786 
     94 H94        23.4350  -23.5495  -39.9117 H         1 UNK         0.0786 
     95 H95        26.2828  -26.0351  -40.2420 H         1 UNK         0.3172 
     96 H96        27.6274  -27.4548  -41.2606 H         1 UNK         0.0595 
     97 H97        26.2597  -26.9282  -43.3061 H         1 UNK         0.0839 
     98 H98        25.2550  -28.3381  -42.9997 H         1 UNK         0.0839 
     99 H99        26.9663  -28.5285  -43.3706 H         1 UNK         0.0839 
    100 H100       26.2360  -30.1940  -42.2917 H         1 UNK         0.2998 
    101 H101       25.7662  -31.5548  -39.7645 H         1 UNK         0.0822 
    102 H102       27.4600  -33.3382  -40.2822 H         1 UNK         0.0787 
    103 H103       28.0488  -32.4055  -41.6526 H         1 UNK         0.0787 
    104 H104       28.2588  -31.7974  -40.0110 H         1 UNK         0.0787 
    105 H105       24.5802  -33.4533  -40.1260 H         1 UNK         0.3055 
    106 H106       22.9522  -34.6865  -41.0116 H         1 UNK         0.1106 
    107 H107       24.9377  -35.7586  -42.1118 H         1 UNK         0.0828 
    108 H108       23.4869  -35.9171  -43.0851 H         1 UNK         0.0828 
    109 H109       24.7063  -34.7308  -43.5255 H         1 UNK         0.0828 
    110 H110       22.5459  -31.8549  -41.2320 H         1 UNK         0.2931 
    111 H111       21.2099  -30.3168  -42.0081 H         1 UNK         0.0412 
    112 H112       23.3892  -30.2778  -45.2022 H         1 UNK         0.3472 
    113 H113       23.6753  -31.2608  -43.7871 H         1 UNK         0.3472 
    114 H114       19.1399  -30.8218  -43.3049 H         1 UNK         0.0970 
    115 H115       19.6562  -32.4713  -43.5286 H         1 UNK         0.0970 
    116 H116       16.6888  -32.7419  -40.8753 H         1 UNK         0.0612 
    117 H117       17.3123  -33.3936  -42.3722 H         1 UNK         0.0612 
@<TRIPOS>BOND
     1    1    2 1    
     2    1   62 1    
     3    1   63 1    
     4    1   64 1    
     5    2    3 2    
     6    2    4 am   BACKBONE|DICT|INTERRES
     7    4    5 1    
     8    4   65 1    
     9    5    6 1    
    10    5   25 1    
    11    5   66 1    
    12    6    7 1    
    13    6   67 1    
    14    6   68 1    
    15    7    8 1    
    16    8    9 1    
    17    8   69 1    
    18    8   70 1    
    19    9   10 ar   
    20    9   14 ar   
    21   10   11 ar   
    22   10   71 1    
    23   11   12 ar   
    24   11   61 1    
    25   12   13 ar   
    26   12   72 1    
    27   13   14 ar   
    28   13   15 1    
    29   14   73 1    
    30   15   16 1    
    31   15   74 1    
    32   15   75 1    
    33   16   17 1    
    34   17   18 1    
    35   17   76 1    
    36   17   77 1    
    37   18   19 1    
    38   18   27 1    
    39   18   78 1    
    40   19   20 am   BACKBONE|DICT|INTERRES
    41   19   79 1    
    42   20   21 2    
    43   20   22 1    
    44   22   23 1    
    45   22   24 1    
    46   22   80 1    
    47   23   81 1    
    48   23   82 1    
    49   23   83 1    
    50   24   25 am   BACKBONE|DICT|INTERRES
    51   24   84 1    
    52   25   26 2    
    53   27   28 2    
    54   27   29 am   BACKBONE|DICT|INTERRES
    55   29   30 1    
    56   29   85 1    
    57   30   31 1    
    58   30   32 1    
    59   30   86 1    
    60   31   87 1    
    61   31   88 1    
    62   31   89 1    
    63   32   33 2    
    64   32   34 am   BACKBONE|DICT|INTERRES
    65   34   35 1    
    66   34   90 1    
    67   35   36 1    
    68   35   37 1    
    69   35   91 1    
    70   36   92 1    
    71   36   93 1    
    72   36   94 1    
    73   37   38 2    
    74   37   39 am   BACKBONE|DICT|INTERRES
    75   39   40 1    
    76   39   95 1    
    77   40   41 1    
    78   40   42 1    
    79   40   96 1    
    80   41   97 1    
    81   41   98 1    
    82   41   99 1    
    83   42   43 2    
    84   42   44 am   BACKBONE|DICT|INTERRES
    85   44   45 1    
    86   44  100 1    
    87   45   46 1    
    88   45   47 1    
    89   45  101 1    
    90   46  102 1    
    91   46  103 1    
    92   46  104 1    
    93   47   48 2    
    94   47   49 am   BACKBONE|DICT|INTERRES
    95   49   50 1    
    96   49  105 1    
    97   50   51 1    
    98   50   52 1    
    99   50  106 1    
   100   51  107 1    
   101   51  108 1    
   102   51  109 1    
   103   52   53 2    
   104   52   54 am   BACKBONE|DICT|INTERRES
   105   54   55 1    
   106   54  110 1    
   107   55   56 1    
   108   55   59 1    
   109   55  111 1    
   110   56   57 am   BACKBONE|DICT|INTERRES
   111   56   58 2    
   112   57  112 1    
   113   57  113 1    
   114   59   60 1    
   115   59  114 1    
   116   59  115 1    
   117   60   61 1    
   118   61  116 1    
   119   61  117 1    
@<TRIPOS>SUBSTRUCTURE
     1 UNK         1 GROUP             0       ****    0 ROOT    
