@<TRIPOS>MOLECULE
3R8
117   119    1
SMALL
USER_CHARGES


@<TRIPOS>ATOM
      1 CA         15.6877  -29.9393  -40.3255 C.3       0 UNK        -0.2013 
      2 C          16.6682  -28.7842  -40.4633 C.2       0 UNK         0.4866 
      3 O          17.5344  -28.6107  -39.6064 O.2       0 UNK        -0.5176 
      4 N          16.5323  -27.9862  -41.5318 N.am      1 UNK        -0.4884 
      5 CA         17.3705  -26.8112  -41.8098 C.3       1 UNK         0.0853 
      6 C6         16.6347  -25.8005  -42.7362 C.3       10 UNK        -0.0849 
      7 S7         16.8366  -25.9782  -44.5469 S.3       10 UNK        -0.2776 
      8 C8         15.7900  -27.4129  -44.9708 C.3       10 UNK         0.0316 
      9 C9         16.6503  -28.6243  -45.3050 C.ar      10 UNK        -0.0863 
     10 C10        16.5806  -29.7971  -44.5470 C.ar      10 UNK        -0.1009 
     11 C11        17.4301  -30.8714  -44.8302 C.ar      10 UNK        -0.0712 
     12 C12        18.3451  -30.7684  -45.8838 C.ar      10 UNK        -0.0894 
     13 C13        18.4131  -29.6120  -46.6665 C.ar      10 UNK        -0.0745 
     14 C14        17.5381  -28.5563  -46.3824 C.ar      10 UNK        -0.0972 
     15 C15        19.4313  -29.5524  -47.8093 C.3       10 UNK         0.0209 
     16 S16        19.8127  -27.8776  -48.4410 S.3       10 UNK        -0.2568 
     17 C17        21.2039  -27.3235  -47.3960 C.3       10 UNK        -0.0983 
     18 CA         20.7396  -26.5476  -46.1275 C.3       3 UNK         0.0876 
     19 N          20.2434  -27.4413  -45.0735 N.am      3 UNK        -0.4424 
     20 C          20.9698  -28.2947  -44.3356 C.2       2 UNK         0.4918 
     21 O          22.1742  -28.4822  -44.5055 O.2       2 UNK        -0.4875 
     22 CA         20.2350  -29.0390  -43.2024 C.3       2 UNK         0.0481 
     23 CB         21.1364  -29.2934  -41.9809 C.3       2 UNK        -0.1831 
     24 N          18.9815  -28.4107  -42.7668 N.am      2 UNK        -0.4498 
     25 C          18.8008  -27.1737  -42.2750 C.2       1 UNK         0.5027 
     26 O          19.6967  -26.3299  -42.1965 O.2       1 UNK        -0.4969 
     27 C          21.7900  -25.5417  -45.5852 C.2       3 UNK         0.5005 
     28 O          22.6542  -25.0876  -46.3377 O.2       3 UNK        -0.5279 
     29 N          21.6908  -25.2057  -44.2856 N.am      4 UNK        -0.4463 
     30 CA         22.5851  -24.3294  -43.5180 C.3       4 UNK         0.0283 
     31 CB         22.4892  -22.8714  -44.0163 C.3       4 UNK        -0.1875 
     32 C          24.0412  -24.8383  -43.4311 C.2       4 UNK         0.4949 
     33 O          24.9621  -24.0303  -43.2988 O.2       4 UNK        -0.5039 
     34 N          24.2275  -26.1622  -43.4835 N.am      5 UNK        -0.4663 
     35 CA         25.5063  -26.8528  -43.3245 C.3       5 UNK         0.0242 
     36 CB         25.9576  -27.3792  -44.6972 C.3       5 UNK        -0.1982 
     37 C          25.3212  -28.0092  -42.3343 C.2       5 UNK         0.5017 
     38 O          24.1875  -28.4225  -42.0918 O.2       5 UNK        -0.5012 
     39 N          26.4268  -28.5083  -41.7629 N.am      6 UNK        -0.4439 
     40 CA         26.5463  -29.6643  -40.8510 C.3       6 UNK         0.0297 
     41 CB         26.1281  -30.9643  -41.5674 C.3       6 UNK        -0.2006 
     42 C          25.8299  -29.5546  -39.4853 C.2       6 UNK         0.4892 
     43 O          26.2468  -30.2335  -38.5468 O.2       6 UNK        -0.5089 
     44 N          24.7811  -28.7258  -39.3979 N.am      7 UNK        -0.4243 
     45 CA         23.8893  -28.4788  -38.2577 C.3       7 UNK         0.0196 
     46 CB         24.6683  -27.9777  -37.0225 C.3       7 UNK        -0.2007 
     47 C          22.9470  -29.6550  -37.9292 C.2       7 UNK         0.5020 
     48 O          22.3111  -29.6382  -36.8742 O.2       7 UNK        -0.5147 
     49 N          22.8346  -30.6337  -38.8349 N.am      8 UNK        -0.4734 
     50 CA         21.9291  -31.7754  -38.7445 C.3       8 UNK         0.0238 
     51 CB         22.4906  -32.8335  -37.7757 C.3       8 UNK        -0.1912 
     52 C          21.7469  -32.3679  -40.1450 C.2       8 UNK         0.5038 
     53 O          22.7095  -32.4008  -40.9157 O.2       8 UNK        -0.5046 
     54 N          20.5276  -32.8306  -40.4389 N.am      9 UNK        -0.4200 
     55 CA         20.1833  -33.5607  -41.6672 C.3       9 UNK         0.0839 
     56 C          20.7386  -35.0101  -41.6431 C.2       9 UNK         0.5513 
     57 N          21.1277  -35.5432  -42.7929 N.am      9 UNK        -0.7519 
     58 O          20.7789  -35.6667  -40.6042 O.2       9 UNK        -0.4960 
     59 C59        18.6510  -33.5584  -41.9077 C.3       10 UNK        -0.0876 
     60 S60        18.0487  -31.8884  -42.3309 S.3       10 UNK        -0.2414 
     61 C61        17.3679  -32.1451  -44.0000 C.3       10 UNK         0.0169 
     62 H62        16.2212  -30.8591  -40.0873 H         1 UNK         0.0903 
     63 H63        14.9830  -29.7381  -39.5192 H         1 UNK         0.0903 
     64 H64        15.1218  -30.1069  -41.2414 H         1 UNK         0.0903 
     65 H65        15.7825  -28.1567  -42.1846 H         1 UNK         0.3096 
     66 H66        17.5076  -26.3032  -40.8517 H         1 UNK         0.1121 
     67 H67        15.5700  -25.7646  -42.4992 H         1 UNK         0.0849 
     68 H68        17.0011  -24.8000  -42.4993 H         1 UNK         0.0849 
     69 H69        15.0868  -27.6277  -44.1658 H         1 UNK         0.0865 
     70 H70        15.1849  -27.1605  -45.8428 H         1 UNK         0.0865 
     71 H71        15.8786  -29.8774  -43.7291 H         1 UNK         0.1346 
     72 H72        19.0089  -31.5951  -46.0979 H         1 UNK         0.1412 
     73 H73        17.5606  -27.6532  -46.9755 H         1 UNK         0.1426 
     74 H74        20.3606  -30.0365  -47.5054 H         1 UNK         0.0716 
     75 H75        19.0365  -30.1410  -48.6382 H         1 UNK         0.0716 
     76 H76        21.8443  -28.1685  -47.1406 H         1 UNK         0.0695 
     77 H77        21.8078  -26.6889  -48.0461 H         1 UNK         0.0695 
     78 H78        19.8927  -25.9211  -46.4124 H         1 UNK         0.0983 
     79 H79        19.2545  -27.3771  -44.8732 H         1 UNK         0.3095 
     80 H80        19.9650  -30.0103  -43.6144 H         1 UNK         0.0454 
     81 H81        21.5308  -28.3640  -41.5695 H         1 UNK         0.0851 
     82 H82        20.5908  -29.8047  -41.1886 H         1 UNK         0.0851 
     83 H83        21.9866  -29.9222  -42.2475 H         1 UNK         0.0851 
     84 H84        18.1675  -29.0079  -42.8164 H         1 UNK         0.2976 
     85 H85        20.9533  -25.6426  -43.7403 H         1 UNK         0.3116 
     86 H86        22.2061  -24.3483  -42.4952 H         1 UNK         0.0646 
     87 H87        23.0281  -22.1942  -43.3526 H         1 UNK         0.0847 
     88 H88        21.4546  -22.5305  -44.0515 H         1 UNK         0.0847 
     89 H89        22.9160  -22.7547  -45.0128 H         1 UNK         0.0847 
     90 H90        23.4249  -26.7789  -43.5535 H         1 UNK         0.3040 
     91 H91        26.2627  -26.1747  -42.9232 H         1 UNK         0.1015 
     92 H92        26.0829  -26.5639  -45.4102 H         1 UNK         0.0786 
     93 H93        25.2319  -28.0786  -45.1156 H         1 UNK         0.0786 
     94 H94        26.9135  -27.8998  -44.6276 H         1 UNK         0.0786 
     95 H95        27.3065  -28.0671  -41.9957 H         1 UNK         0.3172 
     96 H96        27.6106  -29.7452  -40.6245 H         1 UNK         0.0595 
     97 H97        26.6988  -31.1145  -42.4837 H         1 UNK         0.0839 
     98 H98        26.3013  -31.8345  -40.9326 H         1 UNK         0.0839 
     99 H99        25.0691  -30.9644  -41.8287 H         1 UNK         0.0839 
    100 H100       24.4826  -28.3136  -40.2789 H         1 UNK         0.2998 
    101 H101       23.2348  -27.6661  -38.5762 H         1 UNK         0.0822 
    102 H102       25.3245  -27.1454  -37.2770 H         1 UNK         0.0787 
    103 H103       23.9866  -27.6253  -36.2476 H         1 UNK         0.0787 
    104 H104       25.2785  -28.7650  -36.5793 H         1 UNK         0.0787 
    105 H105       23.3701  -30.5842  -39.6930 H         1 UNK         0.3055 
    106 H106       20.9601  -31.4259  -38.3800 H         1 UNK         0.1106 
    107 H107       22.5768  -32.4431  -36.7617 H         1 UNK         0.0828 
    108 H108       21.8398  -33.7078  -37.7305 H         1 UNK         0.0828 
    109 H109       23.4781  -33.1768  -38.0869 H         1 UNK         0.0828 
    110 H110       19.8011  -32.7833  -39.7405 H         1 UNK         0.2931 
    111 H111       20.6563  -33.0418  -42.5045 H         1 UNK         0.0412 
    112 H112       21.0922  -35.0154  -43.6514 H         1 UNK         0.3472 
    113 H113       21.4769  -36.4892  -42.8015 H         1 UNK         0.3472 
    114 H114       18.1192  -33.9113  -41.0223 H         1 UNK         0.0970 
    115 H115       18.3833  -34.2524  -42.7064 H         1 UNK         0.0970 
    116 H116       17.9158  -32.9410  -44.5063 H         1 UNK         0.0612 
    117 H117       16.3345  -32.4844  -43.9182 H         1 UNK         0.0612 
@<TRIPOS>BOND
     1    1    2 1    
     2    1   62 1    
     3    1   63 1    
     4    1   64 1    
     5    2    3 2    
     6    2    4 am   BACKBONE|DICT|INTERRES
     7    4    5 1    
     8    4   65 1    
     9    5    6 1    
    10    5   25 1    
    11    5   66 1    
    12    6    7 1    
    13    6   67 1    
    14    6   68 1    
    15    7    8 1    
    16    8    9 1    
    17    8   69 1    
    18    8   70 1    
    19    9   10 ar   
    20    9   14 ar   
    21   10   11 ar   
    22   10   71 1    
    23   11   12 ar   
    24   11   61 1    
    25   12   13 ar   
    26   12   72 1    
    27   13   14 ar   
    28   13   15 1    
    29   14   73 1    
    30   15   16 1    
    31   15   74 1    
    32   15   75 1    
    33   16   17 1    
    34   17   18 1    
    35   17   76 1    
    36   17   77 1    
    37   18   19 1    
    38   18   27 1    
    39   18   78 1    
    40   19   20 am   BACKBONE|DICT|INTERRES
    41   19   79 1    
    42   20   21 2    
    43   20   22 1    
    44   22   23 1    
    45   22   24 1    
    46   22   80 1    
    47   23   81 1    
    48   23   82 1    
    49   23   83 1    
    50   24   25 am   BACKBONE|DICT|INTERRES
    51   24   84 1    
    52   25   26 2    
    53   27   28 2    
    54   27   29 am   BACKBONE|DICT|INTERRES
    55   29   30 1    
    56   29   85 1    
    57   30   31 1    
    58   30   32 1    
    59   30   86 1    
    60   31   87 1    
    61   31   88 1    
    62   31   89 1    
    63   32   33 2    
    64   32   34 am   BACKBONE|DICT|INTERRES
    65   34   35 1    
    66   34   90 1    
    67   35   36 1    
    68   35   37 1    
    69   35   91 1    
    70   36   92 1    
    71   36   93 1    
    72   36   94 1    
    73   37   38 2    
    74   37   39 am   BACKBONE|DICT|INTERRES
    75   39   40 1    
    76   39   95 1    
    77   40   41 1    
    78   40   42 1    
    79   40   96 1    
    80   41   97 1    
    81   41   98 1    
    82   41   99 1    
    83   42   43 2    
    84   42   44 am   BACKBONE|DICT|INTERRES
    85   44   45 1    
    86   44  100 1    
    87   45   46 1    
    88   45   47 1    
    89   45  101 1    
    90   46  102 1    
    91   46  103 1    
    92   46  104 1    
    93   47   48 2    
    94   47   49 am   BACKBONE|DICT|INTERRES
    95   49   50 1    
    96   49  105 1    
    97   50   51 1    
    98   50   52 1    
    99   50  106 1    
   100   51  107 1    
   101   51  108 1    
   102   51  109 1    
   103   52   53 2    
   104   52   54 am   BACKBONE|DICT|INTERRES
   105   54   55 1    
   106   54  110 1    
   107   55   56 1    
   108   55   59 1    
   109   55  111 1    
   110   56   57 am   BACKBONE|DICT|INTERRES
   111   56   58 2    
   112   57  112 1    
   113   57  113 1    
   114   59   60 1    
   115   59  114 1    
   116   59  115 1    
   117   60   61 1    
   118   61  116 1    
   119   61  117 1    
@<TRIPOS>SUBSTRUCTURE
     1 UNK         1 GROUP             0       ****    0 ROOT    
