@<TRIPOS>MOLECULE
3R8
117   119    1
SMALL
USER_CHARGES


@<TRIPOS>ATOM
      1 CA         14.7279  -24.1040  -46.8760 C.3       0 UNK        -0.2013 
      2 C          15.6899  -25.2721  -47.0322 C.2       0 UNK         0.4866 
      3 O          16.1826  -25.5163  -48.1337 O.2       0 UNK        -0.5176 
      4 N          15.9587  -25.9974  -45.9383 N.am      1 UNK        -0.4884 
      5 CA         16.8488  -27.1669  -45.9028 C.3       1 UNK         0.0853 
      6 C6         16.7058  -27.9617  -44.5839 C.3       10 UNK        -0.0849 
      7 S7         14.9964  -28.4854  -44.2067 S.3       10 UNK        -0.2776 
      8 C8         15.2042  -30.2695  -43.8463 C.3       10 UNK         0.0316 
      9 C9         16.2736  -30.6217  -42.8064 C.ar      10 UNK        -0.0863 
     10 C10        16.8085  -31.9132  -42.8044 C.ar      10 UNK        -0.1009 
     11 C11        17.8137  -32.2754  -41.9017 C.ar      10 UNK        -0.0712 
     12 C12        18.3057  -31.3217  -41.0034 C.ar      10 UNK        -0.0894 
     13 C13        17.7859  -30.0229  -40.9948 C.ar      10 UNK        -0.0745 
     14 C14        16.7441  -29.6967  -41.8664 C.ar      10 UNK        -0.0972 
     15 C15        18.3553  -28.9591  -40.0622 C.3       10 UNK         0.0209 
     16 S16        18.9444  -27.4848  -40.9696 S.3       10 UNK        -0.2568 
     17 C17        20.2830  -28.2242  -41.9651 C.3       10 UNK        -0.0983 
     18 CA         21.2387  -27.2320  -42.6796 C.3       3 UNK         0.0876 
     19 N          20.5182  -26.3750  -43.6256 N.am      3 UNK        -0.4424 
     20 C          21.0354  -25.8175  -44.7295 C.2       2 UNK         0.4918 
     21 O          22.2269  -25.9031  -45.0340 O.2       2 UNK        -0.4875 
     22 CA         20.0647  -25.0180  -45.6248 C.3       2 UNK         0.0481 
     23 CB         20.6069  -24.8073  -47.0543 C.3       2 UNK        -0.1831 
     24 N          18.7076  -25.5803  -45.6552 N.am      2 UNK        -0.4498 
     25 C          18.3339  -26.7942  -46.0964 C.2       1 UNK         0.5027 
     26 O          19.0985  -27.6180  -46.6005 O.2       1 UNK        -0.4969 
     27 C          22.1521  -26.4275  -41.7255 C.2       3 UNK         0.5005 
     28 O          22.0332  -26.5395  -40.5053 O.2       3 UNK        -0.5279 
     29 N          23.0728  -25.6352  -42.2930 N.am      4 UNK        -0.4463 
     30 CA         23.9999  -24.7465  -41.5783 C.3       4 UNK         0.0283 
     31 CB         24.8410  -23.9657  -42.6005 C.3       4 UNK        -0.1875 
     32 C          24.9144  -25.4536  -40.5586 C.2       4 UNK         0.4949 
     33 O          25.2685  -24.8485  -39.5468 O.2       4 UNK        -0.5039 
     34 N          25.2566  -26.7196  -40.8312 N.am      5 UNK        -0.4663 
     35 CA         26.0308  -27.5930  -39.9432 C.3       5 UNK         0.0242 
     36 CB         27.0994  -28.3193  -40.7793 C.3       5 UNK        -0.1982 
     37 C          25.1457  -28.5972  -39.1771 C.2       5 UNK         0.5017 
     38 O          25.6910  -29.4915  -38.5289 O.2       5 UNK        -0.5012 
     39 N          23.8128  -28.4584  -39.2711 N.am      6 UNK        -0.4439 
     40 CA         22.7582  -29.3103  -38.7066 C.3       6 UNK         0.0297 
     41 CB         22.7812  -29.3069  -37.1641 C.3       6 UNK        -0.2006 
     42 C          22.7501  -30.7339  -39.2881 C.2       6 UNK         0.4892 
     43 O          21.8642  -31.0595  -40.0775 O.2       6 UNK        -0.5089 
     44 N          23.7455  -31.5449  -38.9076 N.am      7 UNK        -0.4243 
     45 CA         23.8983  -32.9563  -39.2775 C.3       7 UNK         0.0196 
     46 CB         25.0382  -33.5671  -38.4465 C.3       7 UNK        -0.2007 
     47 C          24.1353  -33.2016  -40.7786 C.2       7 UNK         0.5020 
     48 O          23.8988  -34.3140  -41.2493 O.2       7 UNK        -0.5147 
     49 N          24.5901  -32.1712  -41.5050 N.am      8 UNK        -0.4734 
     50 CA         24.7425  -32.1889  -42.9627 C.3       8 UNK         0.0238 
     51 CB         25.6144  -30.9988  -43.3942 C.3       8 UNK        -0.1912 
     52 C          23.3997  -32.1669  -43.7177 C.2       8 UNK         0.5038 
     53 O          23.3626  -32.6002  -44.8704 O.2       8 UNK        -0.5046 
     54 N          22.3394  -31.6706  -43.0628 N.am      9 UNK        -0.4200 
     55 CA         20.9738  -31.5191  -43.5897 C.3       9 UNK         0.0839 
     56 C          20.8588  -30.5176  -44.7789 C.2       9 UNK         0.5513 
     57 N          19.6726  -30.3518  -45.3477 N.am      9 UNK        -0.7519 
     58 O          21.8084  -29.8296  -45.1462 O.2       9 UNK        -0.4960 
     59 C59        20.2749  -32.8878  -43.8362 C.3       10 UNK        -0.0876 
     60 S60        20.1273  -33.8283  -42.2766 S.3       10 UNK        -0.2414 
     61 C61        18.3478  -33.7048  -41.8985 C.3       10 UNK         0.0169 
     62 H62        13.8661  -24.2382  -47.5292 H         1 UNK         0.0903 
     63 H63        14.3654  -24.0073  -45.8528 H         1 UNK         0.0903 
     64 H64        15.2216  -23.1721  -47.1504 H         1 UNK         0.0903 
     65 H65        15.4939  -25.7779  -45.0679 H         1 UNK         0.3096 
     66 H66        16.5716  -27.8236  -46.7309 H         1 UNK         0.1121 
     67 H67        17.3472  -28.8440  -44.6172 H         1 UNK         0.0849 
     68 H68        17.0607  -27.3671  -43.7396 H         1 UNK         0.0849 
     69 H69        14.2469  -30.6677  -43.5077 H         1 UNK         0.0865 
     70 H70        15.4317  -30.7752  -44.7861 H         1 UNK         0.0865 
     71 H71        16.4375  -32.6434  -43.5111 H         1 UNK         0.1346 
     72 H72        19.1048  -31.5901  -40.3250 H         1 UNK         0.1412 
     73 H73        16.3359  -28.6970  -41.8317 H         1 UNK         0.1426 
     74 H74        19.1777  -29.3616  -39.4685 H         1 UNK         0.0716 
     75 H75        17.5817  -28.6550  -39.3561 H         1 UNK         0.0716 
     76 H76        19.7928  -28.8395  -42.7180 H         1 UNK         0.0695 
     77 H77        20.8532  -28.9120  -41.3400 H         1 UNK         0.0695 
     78 H78        21.9217  -27.8504  -43.2665 H         1 UNK         0.0983 
     79 H79        19.5447  -26.2162  -43.4134 H         1 UNK         0.3095 
     80 H80        19.9729  -24.0342  -45.1628 H         1 UNK         0.0454 
     81 H81        20.7981  -25.7546  -47.5592 H         1 UNK         0.0851 
     82 H82        21.5465  -24.2539  -47.0389 H         1 UNK         0.0851 
     83 H83        19.9067  -24.2372  -47.6647 H         1 UNK         0.0851 
     84 H84        17.9815  -24.9908  -45.2720 H         1 UNK         0.2976 
     85 H85        23.0895  -25.6019  -43.3091 H         1 UNK         0.3116 
     86 H86        23.3920  -24.0306  -41.0212 H         1 UNK         0.0646 
     87 H87        25.4470  -24.6307  -43.2171 H         1 UNK         0.0847 
     88 H88        25.5216  -23.2748  -42.1006 H         1 UNK         0.0847 
     89 H89        24.2115  -23.3728  -43.2642 H         1 UNK         0.0847 
     90 H90        24.9262  -27.1252  -41.6951 H         1 UNK         0.3040 
     91 H91        26.5472  -26.9970  -39.1874 H         1 UNK         0.1015 
     92 H92        26.6522  -28.9629  -41.5352 H         1 UNK         0.0786 
     93 H93        27.7353  -28.9453  -40.1516 H         1 UNK         0.0786 
     94 H94        27.7524  -27.6097  -41.2878 H         1 UNK         0.0786 
     95 H95        23.4553  -27.6657  -39.7983 H         1 UNK         0.3172 
     96 H96        21.8157  -28.8503  -39.0077 H         1 UNK         0.0595 
     97 H97        23.7099  -29.7062  -36.7565 H         1 UNK         0.0839 
     98 H98        21.9659  -29.9103  -36.7629 H         1 UNK         0.0839 
     99 H99        22.6562  -28.2969  -36.7737 H         1 UNK         0.0839 
    100 H100       24.4833  -31.1340  -38.3452 H         1 UNK         0.2998 
    101 H101       22.9689  -33.4663  -39.0151 H         1 UNK         0.0822 
    102 H102       24.8365  -33.4892  -37.3779 H         1 UNK         0.0787 
    103 H103       25.1650  -34.6266  -38.6740 H         1 UNK         0.0787 
    104 H104       25.9904  -33.0736  -38.6462 H         1 UNK         0.0787 
    105 H105       24.7818  -31.3029  -41.0276 H         1 UNK         0.3055 
    106 H106       25.2567  -33.1115  -43.2423 H         1 UNK         0.1106 
    107 H107       25.7792  -31.0095  -44.4727 H         1 UNK         0.0828 
    108 H108       25.1457  -30.0452  -43.1491 H         1 UNK         0.0828 
    109 H109       26.5952  -31.0313  -42.9198 H         1 UNK         0.0828 
    110 H110       22.4554  -31.3881  -42.0975 H         1 UNK         0.2931 
    111 H111       20.4377  -31.0304  -42.7787 H         1 UNK         0.0412 
    112 H112       18.8653  -30.8710  -45.0449 H         1 UNK         0.3472 
    113 H113       19.5810  -29.6412  -46.0628 H         1 UNK         0.3472 
    114 H114       20.8349  -33.4842  -44.5575 H         1 UNK         0.0970 
    115 H115       19.2808  -32.7635  -44.2653 H         1 UNK         0.0970 
    116 H116       17.8014  -34.3233  -42.6122 H         1 UNK         0.0612 
    117 H117       18.1699  -34.1448  -40.9165 H         1 UNK         0.0612 
@<TRIPOS>BOND
     1    1    2 1    
     2    1   62 1    
     3    1   63 1    
     4    1   64 1    
     5    2    3 2    
     6    2    4 am   BACKBONE|DICT|INTERRES
     7    4    5 1    
     8    4   65 1    
     9    5    6 1    
    10    5   25 1    
    11    5   66 1    
    12    6    7 1    
    13    6   67 1    
    14    6   68 1    
    15    7    8 1    
    16    8    9 1    
    17    8   69 1    
    18    8   70 1    
    19    9   10 ar   
    20    9   14 ar   
    21   10   11 ar   
    22   10   71 1    
    23   11   12 ar   
    24   11   61 1    
    25   12   13 ar   
    26   12   72 1    
    27   13   14 ar   
    28   13   15 1    
    29   14   73 1    
    30   15   16 1    
    31   15   74 1    
    32   15   75 1    
    33   16   17 1    
    34   17   18 1    
    35   17   76 1    
    36   17   77 1    
    37   18   19 1    
    38   18   27 1    
    39   18   78 1    
    40   19   20 am   BACKBONE|DICT|INTERRES
    41   19   79 1    
    42   20   21 2    
    43   20   22 1    
    44   22   23 1    
    45   22   24 1    
    46   22   80 1    
    47   23   81 1    
    48   23   82 1    
    49   23   83 1    
    50   24   25 am   BACKBONE|DICT|INTERRES
    51   24   84 1    
    52   25   26 2    
    53   27   28 2    
    54   27   29 am   BACKBONE|DICT|INTERRES
    55   29   30 1    
    56   29   85 1    
    57   30   31 1    
    58   30   32 1    
    59   30   86 1    
    60   31   87 1    
    61   31   88 1    
    62   31   89 1    
    63   32   33 2    
    64   32   34 am   BACKBONE|DICT|INTERRES
    65   34   35 1    
    66   34   90 1    
    67   35   36 1    
    68   35   37 1    
    69   35   91 1    
    70   36   92 1    
    71   36   93 1    
    72   36   94 1    
    73   37   38 2    
    74   37   39 am   BACKBONE|DICT|INTERRES
    75   39   40 1    
    76   39   95 1    
    77   40   41 1    
    78   40   42 1    
    79   40   96 1    
    80   41   97 1    
    81   41   98 1    
    82   41   99 1    
    83   42   43 2    
    84   42   44 am   BACKBONE|DICT|INTERRES
    85   44   45 1    
    86   44  100 1    
    87   45   46 1    
    88   45   47 1    
    89   45  101 1    
    90   46  102 1    
    91   46  103 1    
    92   46  104 1    
    93   47   48 2    
    94   47   49 am   BACKBONE|DICT|INTERRES
    95   49   50 1    
    96   49  105 1    
    97   50   51 1    
    98   50   52 1    
    99   50  106 1    
   100   51  107 1    
   101   51  108 1    
   102   51  109 1    
   103   52   53 2    
   104   52   54 am   BACKBONE|DICT|INTERRES
   105   54   55 1    
   106   54  110 1    
   107   55   56 1    
   108   55   59 1    
   109   55  111 1    
   110   56   57 am   BACKBONE|DICT|INTERRES
   111   56   58 2    
   112   57  112 1    
   113   57  113 1    
   114   59   60 1    
   115   59  114 1    
   116   59  115 1    
   117   60   61 1    
   118   61  116 1    
   119   61  117 1    
@<TRIPOS>SUBSTRUCTURE
     1 UNK         1 GROUP             0       ****    0 ROOT    
