@<TRIPOS>MOLECULE
3R8
117   119    1
SMALL
USER_CHARGES


@<TRIPOS>ATOM
      1 CA         23.4410  -30.8684  -46.5444 C.3       0 UNK        -0.2013 
      2 C          22.0266  -30.6367  -46.0349 C.2       0 UNK         0.4866 
      3 O          21.1803  -31.5203  -46.1601 O.2       0 UNK        -0.5176 
      4 N          21.7711  -29.4611  -45.4522 N.am      1 UNK        -0.4884 
      5 CA         20.4946  -29.0707  -44.8573 C.3       1 UNK         0.0853 
      6 C6         19.7322  -28.0601  -45.7555 C.3       10 UNK        -0.0849 
      7 S7         19.0579  -28.8645  -47.2504 S.3       10 UNK        -0.2776 
      8 C8         17.2523  -28.7617  -47.0033 C.3       10 UNK         0.0316 
      9 C9         16.8096  -29.1391  -45.5943 C.ar      10 UNK        -0.0863 
     10 C10        17.1562  -30.3752  -45.0401 C.ar      10 UNK        -0.1009 
     11 C11        16.7766  -30.6983  -43.7347 C.ar      10 UNK        -0.0712 
     12 C12        16.0192  -29.7855  -42.9910 C.ar      10 UNK        -0.0894 
     13 C13        15.6452  -28.5560  -43.5445 C.ar      10 UNK        -0.0745 
     14 C14        16.0493  -28.2384  -44.8435 C.ar      10 UNK        -0.0972 
     15 C15        14.7604  -27.5898  -42.7664 C.3       10 UNK         0.0209 
     16 S16        15.6560  -26.6850  -41.4651 S.3       10 UNK        -0.2568 
     17 C17        16.7431  -25.5626  -42.4149 C.3       10 UNK        -0.0983 
     18 CA         18.1458  -25.4579  -41.7684 C.3       3 UNK         0.0876 
     19 N          18.7795  -26.7736  -41.6503 N.am      3 UNK        -0.4424 
     20 C          19.8318  -27.0608  -40.8753 C.2       2 UNK         0.4918 
     21 O          20.3695  -26.2505  -40.1222 O.2       2 UNK        -0.4875 
     22 CA         20.4334  -28.4653  -41.0393 C.3       2 UNK         0.0481 
     23 CB         19.8300  -29.4238  -40.0028 C.3       2 UNK        -0.1831 
     24 N          20.2673  -29.0032  -42.3990 N.am      2 UNK        -0.4498 
     25 C          20.8177  -28.4522  -43.4917 C.2       1 UNK         0.5027 
     26 O          21.5529  -27.4633  -43.4473 O.2       1 UNK        -0.4969 
     27 C          19.0411  -24.4243  -42.4964 C.2       3 UNK         0.5005 
     28 O          18.7786  -23.2261  -42.3858 O.2       3 UNK        -0.5279 
     29 N          20.0949  -24.8892  -43.1876 N.am      4 UNK        -0.4463 
     30 CA         21.1668  -24.0795  -43.7747 C.3       4 UNK         0.0283 
     31 CB         21.3783  -24.5095  -45.2375 C.3       4 UNK        -0.1875 
     32 C          22.4746  -24.1993  -42.9620 C.2       4 UNK         0.4949 
     33 O          23.5328  -23.8273  -43.4695 O.2       4 UNK        -0.5039 
     34 N          22.3827  -24.7075  -41.7225 N.am      5 UNK        -0.4663 
     35 CA         23.4531  -24.8852  -40.7348 C.3       5 UNK         0.0242 
     36 CB         24.0933  -23.5316  -40.3545 C.3       5 UNK        -0.1982 
     37 C          24.4940  -25.9658  -41.0912 C.2       5 UNK         0.5017 
     38 O          25.6217  -25.8943  -40.5973 O.2       5 UNK        -0.5012 
     39 N          24.1117  -26.9687  -41.8971 N.am      6 UNK        -0.4439 
     40 CA         24.9173  -28.1765  -42.1167 C.3       6 UNK         0.0297 
     41 CB         24.4650  -28.8793  -43.4055 C.3       6 UNK        -0.2006 
     42 C          24.8174  -29.1406  -40.9197 C.2       6 UNK         0.4892 
     43 O          23.9157  -29.0126  -40.0878 O.2       6 UNK        -0.5089 
     44 N          25.7376  -30.1105  -40.8691 N.am      7 UNK        -0.4243 
     45 CA         25.8105  -31.1416  -39.8338 C.3       7 UNK         0.0196 
     46 CB         27.1994  -31.8042  -39.8862 C.3       7 UNK        -0.2007 
     47 C          24.6781  -32.1756  -39.9743 C.2       7 UNK         0.5020 
     48 O          24.8477  -33.1731  -40.6771 O.2       7 UNK        -0.5147 
     49 N          23.5423  -31.9066  -39.3134 N.am      8 UNK        -0.4734 
     50 CA         22.3742  -32.7874  -39.1409 C.3       8 UNK         0.0238 
     51 CB         22.7256  -33.9380  -38.1734 C.3       8 UNK        -0.1912 
     52 C          21.7546  -33.2980  -40.4594 C.2       8 UNK         0.5038 
     53 O          21.2887  -34.4377  -40.5168 O.2       8 UNK        -0.5046 
     54 N          21.7754  -32.4456  -41.4926 N.am      9 UNK        -0.4200 
     55 CA         21.3448  -32.7450  -42.8705 C.3       9 UNK         0.0839 
     56 C          22.2593  -33.7729  -43.6105 C.2       9 UNK         0.5513 
     57 N          23.4871  -34.0153  -43.1647 N.am      9 UNK        -0.7519 
     58 O          21.8620  -34.3564  -44.6151 O.2       9 UNK        -0.4960 
     59 C59        19.8290  -33.0930  -43.0036 C.3       10 UNK        -0.0876 
     60 S60        18.7265  -31.8853  -42.1910 S.3       10 UNK        -0.2414 
     61 C61        17.1781  -32.0364  -43.1334 C.3       10 UNK         0.0169 
     62 H62        24.0766  -29.9947  -46.4018 H         1 UNK         0.0903 
     63 H63        23.8942  -31.7086  -46.0185 H         1 UNK         0.0903 
     64 H64        23.4217  -31.1028  -47.6084 H         1 UNK         0.0903 
     65 H65        22.5026  -28.7700  -45.3573 H         1 UNK         0.3096 
     66 H66        19.8699  -29.9500  -44.6894 H         1 UNK         0.1121 
     67 H67        20.3963  -27.2579  -46.0792 H         1 UNK         0.0849 
     68 H68        18.9272  -27.5687  -45.2070 H         1 UNK         0.0849 
     69 H69        16.9313  -27.7486  -47.2506 H         1 UNK         0.0865 
     70 H70        16.7592  -29.4204  -47.7192 H         1 UNK         0.0865 
     71 H71        17.7416  -31.0765  -45.6200 H         1 UNK         0.1346 
     72 H72        15.7121  -30.0354  -41.9844 H         1 UNK         0.1412 
     73 H73        15.7616  -27.2888  -45.2743 H         1 UNK         0.1426 
     74 H74        13.9473  -28.1495  -42.3018 H         1 UNK         0.0716 
     75 H75        14.2851  -26.8720  -43.4370 H         1 UNK         0.0716 
     76 H76        16.2620  -24.5833  -42.4509 H         1 UNK         0.0695 
     77 H77        16.8241  -25.9025  -43.4478 H         1 UNK         0.0695 
     78 H78        18.0117  -25.0736  -40.7544 H         1 UNK         0.0983 
     79 H79        18.3731  -27.5112  -42.2067 H         1 UNK         0.3095 
     80 H80        21.5030  -28.3845  -40.8436 H         1 UNK         0.0454 
     81 H81        18.7588  -29.5632  -40.1542 H         1 UNK         0.0851 
     82 H82        19.9681  -29.0397  -38.9912 H         1 UNK         0.0851 
     83 H83        20.3069  -30.4016  -40.0397 H         1 UNK         0.0851 
     84 H84        19.6808  -29.8248  -42.4901 H         1 UNK         0.2976 
     85 H85        20.2659  -25.8880  -43.2034 H         1 UNK         0.3116 
     86 H86        20.8852  -23.0248  -43.7710 H         1 UNK         0.0646 
     87 H87        20.4429  -24.5013  -45.7970 H         1 UNK         0.0847 
     88 H88        21.8064  -25.5097  -45.3050 H         1 UNK         0.0847 
     89 H89        22.0646  -23.8318  -45.7468 H         1 UNK         0.0847 
     90 H90        21.4693  -25.0050  -41.3998 H         1 UNK         0.3040 
     91 H91        22.9572  -25.2624  -39.8389 H         1 UNK         0.1015 
     92 H92        24.6885  -23.1203  -41.1702 H         1 UNK         0.0786 
     93 H93        24.7553  -23.6387  -39.4943 H         1 UNK         0.0786 
     94 H94        23.3358  -22.7953  -40.0858 H         1 UNK         0.0786 
     95 H95        23.1691  -26.9719  -42.2719 H         1 UNK         0.3172 
     96 H96        25.9613  -27.8798  -42.2393 H         1 UNK         0.0595 
     97 H97        23.5180  -29.3982  -43.2640 H         1 UNK         0.0839 
     98 H98        25.1933  -29.6285  -43.7179 H         1 UNK         0.0839 
     99 H99        24.3556  -28.1732  -44.2287 H         1 UNK         0.0839 
    100 H100       26.4245  -30.1675  -41.6071 H         1 UNK         0.2998 
    101 H101       25.7129  -30.6607  -38.8577 H         1 UNK         0.0822 
    102 H102       27.9917  -31.0807  -39.6927 H         1 UNK         0.0787 
    103 H103       27.2856  -32.5871  -39.1314 H         1 UNK         0.0787 
    104 H104       27.3948  -32.2644  -40.8558 H         1 UNK         0.0787 
    105 H105       23.4799  -31.0030  -38.8591 H         1 UNK         0.3055 
    106 H106       21.5993  -32.1845  -38.6646 H         1 UNK         0.1106 
    107 H107       23.4639  -34.6149  -38.6052 H         1 UNK         0.0828 
    108 H108       21.8435  -34.5312  -37.9287 H         1 UNK         0.0828 
    109 H109       23.1272  -33.5590  -37.2337 H         1 UNK         0.0828 
    110 H110       22.2065  -31.5447  -41.3498 H         1 UNK         0.2931 
    111 H111       21.4965  -31.8087  -43.4053 H         1 UNK         0.0412 
    112 H112       24.0610  -34.6799  -43.6584 H         1 UNK         0.3472 
    113 H113       23.8358  -33.5956  -42.3086 H         1 UNK         0.3472 
    114 H114       19.6222  -34.0813  -42.5901 H         1 UNK         0.0970 
    115 H115       19.5631  -33.1445  -44.0611 H         1 UNK         0.0970 
    116 H116       17.2723  -32.7905  -43.9159 H         1 UNK         0.0612 
    117 H117       16.3939  -32.3931  -42.4641 H         1 UNK         0.0612 
@<TRIPOS>BOND
     1    1    2 1    
     2    1   62 1    
     3    1   63 1    
     4    1   64 1    
     5    2    3 2    
     6    2    4 am   BACKBONE|DICT|INTERRES
     7    4    5 1    
     8    4   65 1    
     9    5    6 1    
    10    5   25 1    
    11    5   66 1    
    12    6    7 1    
    13    6   67 1    
    14    6   68 1    
    15    7    8 1    
    16    8    9 1    
    17    8   69 1    
    18    8   70 1    
    19    9   10 ar   
    20    9   14 ar   
    21   10   11 ar   
    22   10   71 1    
    23   11   12 ar   
    24   11   61 1    
    25   12   13 ar   
    26   12   72 1    
    27   13   14 ar   
    28   13   15 1    
    29   14   73 1    
    30   15   16 1    
    31   15   74 1    
    32   15   75 1    
    33   16   17 1    
    34   17   18 1    
    35   17   76 1    
    36   17   77 1    
    37   18   19 1    
    38   18   27 1    
    39   18   78 1    
    40   19   20 am   BACKBONE|DICT|INTERRES
    41   19   79 1    
    42   20   21 2    
    43   20   22 1    
    44   22   23 1    
    45   22   24 1    
    46   22   80 1    
    47   23   81 1    
    48   23   82 1    
    49   23   83 1    
    50   24   25 am   BACKBONE|DICT|INTERRES
    51   24   84 1    
    52   25   26 2    
    53   27   28 2    
    54   27   29 am   BACKBONE|DICT|INTERRES
    55   29   30 1    
    56   29   85 1    
    57   30   31 1    
    58   30   32 1    
    59   30   86 1    
    60   31   87 1    
    61   31   88 1    
    62   31   89 1    
    63   32   33 2    
    64   32   34 am   BACKBONE|DICT|INTERRES
    65   34   35 1    
    66   34   90 1    
    67   35   36 1    
    68   35   37 1    
    69   35   91 1    
    70   36   92 1    
    71   36   93 1    
    72   36   94 1    
    73   37   38 2    
    74   37   39 am   BACKBONE|DICT|INTERRES
    75   39   40 1    
    76   39   95 1    
    77   40   41 1    
    78   40   42 1    
    79   40   96 1    
    80   41   97 1    
    81   41   98 1    
    82   41   99 1    
    83   42   43 2    
    84   42   44 am   BACKBONE|DICT|INTERRES
    85   44   45 1    
    86   44  100 1    
    87   45   46 1    
    88   45   47 1    
    89   45  101 1    
    90   46  102 1    
    91   46  103 1    
    92   46  104 1    
    93   47   48 2    
    94   47   49 am   BACKBONE|DICT|INTERRES
    95   49   50 1    
    96   49  105 1    
    97   50   51 1    
    98   50   52 1    
    99   50  106 1    
   100   51  107 1    
   101   51  108 1    
   102   51  109 1    
   103   52   53 2    
   104   52   54 am   BACKBONE|DICT|INTERRES
   105   54   55 1    
   106   54  110 1    
   107   55   56 1    
   108   55   59 1    
   109   55  111 1    
   110   56   57 am   BACKBONE|DICT|INTERRES
   111   56   58 2    
   112   57  112 1    
   113   57  113 1    
   114   59   60 1    
   115   59  114 1    
   116   59  115 1    
   117   60   61 1    
   118   61  116 1    
   119   61  117 1    
@<TRIPOS>SUBSTRUCTURE
     1 UNK         1 GROUP             0       ****    0 ROOT    
