@<TRIPOS>MOLECULE
3R8
117   119    1
SMALL
USER_CHARGES


@<TRIPOS>ATOM
      1 CA         12.9636  -23.9832  -45.4250 C.3       0 UNK        -0.2013 
      2 C          14.4259  -24.3702  -45.5879 C.2       0 UNK         0.4866 
      3 O          15.2983  -23.5019  -45.5448 O.2       0 UNK        -0.5176 
      4 N          14.7004  -25.6651  -45.7843 N.am      1 UNK        -0.4884 
      5 CA         16.0484  -26.2336  -45.8764 C.3       1 UNK         0.0853 
      6 C6         16.0312  -27.6321  -46.5486 C.3       10 UNK        -0.0849 
      7 S7         14.9277  -28.8416  -45.7278 S.3       10 UNK        -0.2776 
      8 C8         15.9505  -30.3495  -45.6774 C.3       10 UNK         0.0316 
      9 C9         17.2559  -30.1712  -44.9109 C.ar      10 UNK        -0.0863 
     10 C10        17.2483  -29.8616  -43.5478 C.ar      10 UNK        -0.1009 
     11 C11        18.4478  -29.7323  -42.8402 C.ar      10 UNK        -0.0712 
     12 C12        19.6636  -29.9308  -43.5026 C.ar      10 UNK        -0.0894 
     13 C13        19.6830  -30.2350  -44.8684 C.ar      10 UNK        -0.0745 
     14 C14        18.4774  -30.3484  -45.5653 C.ar      10 UNK        -0.0972 
     15 C15        20.9947  -30.4783  -45.5994 C.3       10 UNK         0.0209 
     16 S16        21.7390  -28.9268  -46.1920 S.3       10 UNK        -0.2568 
     17 C17        22.7695  -28.4479  -44.7662 C.3       10 UNK        -0.0983 
     18 CA         22.4334  -27.0468  -44.1904 C.3       3 UNK         0.0876 
     19 N          21.0135  -26.9307  -43.8180 N.am      3 UNK        -0.4424 
     20 C          20.3321  -25.7872  -43.6876 C.2       2 UNK         0.4918 
     21 O          20.8296  -24.6766  -43.8761 O.2       2 UNK        -0.4875 
     22 CA         18.8653  -25.8989  -43.2641 C.3       2 UNK         0.0481 
     23 CB         18.4539  -24.7277  -42.3450 C.3       2 UNK        -0.1831 
     24 N          18.0386  -25.9453  -44.4665 N.am      2 UNK        -0.4498 
     25 C          16.7348  -26.2481  -44.4922 C.2       1 UNK         0.5027 
     26 O          16.0767  -26.5274  -43.4856 O.2       1 UNK        -0.4969 
     27 C          23.3951  -26.6792  -43.0295 C.2       3 UNK         0.5005 
     28 O          24.4174  -27.3446  -42.8529 O.2       3 UNK        -0.5279 
     29 N          23.0413  -25.6705  -42.2159 N.am      4 UNK        -0.4463 
     30 CA         23.7746  -25.1436  -41.0504 C.3       4 UNK         0.0283 
     31 CB         25.0275  -24.3781  -41.5255 C.3       4 UNK        -0.1875 
     32 C          24.1230  -26.1932  -39.9688 C.2       4 UNK         0.4949 
     33 O          25.0495  -25.9750  -39.1876 O.2       4 UNK        -0.5039 
     34 N          23.4011  -27.3253  -39.9714 N.am      5 UNK        -0.4663 
     35 CA         23.6655  -28.5622  -39.2225 C.3       5 UNK         0.0242 
     36 CB         23.4863  -28.3438  -37.7057 C.3       5 UNK        -0.1982 
     37 C          25.0117  -29.2367  -39.5748 C.2       5 UNK         0.5017 
     38 O          25.4956  -30.0603  -38.7970 O.2       5 UNK        -0.5012 
     39 N          25.5851  -28.9051  -40.7420 N.am      6 UNK        -0.4439 
     40 CA         26.8100  -29.5097  -41.2718 C.3       6 UNK         0.0297 
     41 CB         27.5299  -28.4895  -42.1688 C.3       6 UNK        -0.2006 
     42 C          26.5278  -30.8059  -42.0511 C.2       6 UNK         0.4892 
     43 O          27.4413  -31.6142  -42.2220 O.2       6 UNK        -0.5089 
     44 N          25.2810  -30.9853  -42.5017 N.am      7 UNK        -0.4243 
     45 CA         24.7769  -32.1719  -43.1809 C.3       7 UNK         0.0196 
     46 CB         24.8766  -31.9781  -44.7036 C.3       7 UNK        -0.2007 
     47 C          23.3231  -32.3818  -42.7513 C.2       7 UNK         0.5020 
     48 O          22.6379  -31.4015  -42.4465 O.2       7 UNK        -0.5147 
     49 N          22.8853  -33.6486  -42.7495 N.am      8 UNK        -0.4734 
     50 CA         21.5485  -34.1688  -42.4154 C.3       8 UNK         0.0238 
     51 CB         20.4918  -33.6924  -43.4311 C.3       8 UNK        -0.1912 
     52 C          21.1003  -33.8957  -40.9677 C.2       8 UNK         0.5038 
     53 O          20.8996  -34.8433  -40.2073 O.2       8 UNK        -0.5046 
     54 N          20.9628  -32.6138  -40.6197 N.am      9 UNK        -0.4200 
     55 CA         20.6175  -32.1147  -39.2819 C.3       9 UNK         0.0839 
     56 C          21.8290  -32.0445  -38.3072 C.2       9 UNK         0.5513 
     57 N          23.0560  -32.2889  -38.7507 N.am      9 UNK        -0.7519 
     58 O          21.6498  -31.7613  -37.1259 O.2       9 UNK        -0.4960 
     59 C59        19.8912  -30.7466  -39.3602 C.3       10 UNK        -0.0876 
     60 S60        18.3263  -30.8324  -40.3003 S.3       10 UNK        -0.2414 
     61 C61        18.4202  -29.3590  -41.3661 C.3       10 UNK         0.0169 
     62 H62        12.6756  -23.2700  -46.1969 H         1 UNK         0.0903 
     63 H63        12.3027  -24.8469  -45.4977 H         1 UNK         0.0903 
     64 H64        12.8055  -23.5165  -44.4531 H         1 UNK         0.0903 
     65 H65        13.9537  -26.3462  -45.7694 H         1 UNK         0.3096 
     66 H66        16.6308  -25.5726  -46.5227 H         1 UNK         0.1121 
     67 H67        17.0455  -28.0279  -46.6160 H         1 UNK         0.0849 
     68 H68        15.6950  -27.5307  -47.5816 H         1 UNK         0.0849 
     69 H69        15.3742  -31.1478  -45.2078 H         1 UNK         0.0865 
     70 H70        16.1409  -30.6765  -46.7009 H         1 UNK         0.0865 
     71 H71        16.3052  -29.7141  -43.0390 H         1 UNK         0.1346 
     72 H72        20.5920  -29.8607  -42.9533 H         1 UNK         0.1412 
     73 H73        18.4922  -30.5912  -46.6192 H         1 UNK         0.1426 
     74 H74        20.8223  -31.1250  -46.4610 H         1 UNK         0.0716 
     75 H75        21.6930  -31.0221  -44.9636 H         1 UNK         0.0716 
     76 H76        23.8059  -28.4786  -45.1083 H         1 UNK         0.0695 
     77 H77        22.6944  -29.2032  -43.9834 H         1 UNK         0.0695 
     78 H78        22.6297  -26.3181  -44.9801 H         1 UNK         0.0983 
     79 H79        20.5183  -27.8031  -43.7013 H         1 UNK         0.3095 
     80 H80        18.7368  -26.8307  -42.7125 H         1 UNK         0.0454 
     81 H81        18.4585  -23.7758  -42.8774 H         1 UNK         0.0851 
     82 H82        19.1384  -24.6336  -41.5010 H         1 UNK         0.0851 
     83 H83        17.4570  -24.8708  -41.9291 H         1 UNK         0.0851 
     84 H84        18.5190  -25.7302  -45.3304 H         1 UNK         0.2976 
     85 H85        22.1985  -25.1651  -42.4698 H         1 UNK         0.3116 
     86 H86        23.1082  -24.4260  -40.5696 H         1 UNK         0.0646 
     87 H87        24.7740  -23.6236  -42.2700 H         1 UNK         0.0847 
     88 H88        25.7657  -25.0494  -41.9660 H         1 UNK         0.0847 
     89 H89        25.5124  -23.8601  -40.6972 H         1 UNK         0.0847 
     90 H90        22.6629  -27.3840  -40.6579 H         1 UNK         0.3040 
     91 H91        22.9017  -29.2728  -39.5399 H         1 UNK         0.1015 
     92 H92        24.2679  -27.7060  -37.2923 H         1 UNK         0.0786 
     93 H93        23.5227  -29.2919  -37.1674 H         1 UNK         0.0786 
     94 H94        22.5233  -27.8852  -37.4818 H         1 UNK         0.0786 
     95 H95        25.1230  -28.2289  -41.3480 H         1 UNK         0.3172 
     96 H96        27.4755  -29.7573  -40.4421 H         1 UNK         0.0595 
     97 H97        26.9378  -28.2344  -43.0485 H         1 UNK         0.0839 
     98 H98        28.4822  -28.8866  -42.5228 H         1 UNK         0.0839 
     99 H99        27.7432  -27.5666  -41.6292 H         1 UNK         0.0839 
    100 H100       24.5738  -30.2951  -42.2843 H         1 UNK         0.2998 
    101 H101       25.3609  -33.0450  -42.8814 H         1 UNK         0.0822 
    102 H102       25.9111  -31.8359  -45.0166 H         1 UNK         0.0787 
    103 H103       24.4927  -32.8487  -45.2367 H         1 UNK         0.0787 
    104 H104       24.3052  -31.1113  -45.0379 H         1 UNK         0.0787 
    105 H105       23.5549  -34.3638  -43.0007 H         1 UNK         0.3055 
    106 H106       21.6193  -35.2537  -42.5138 H         1 UNK         0.1106 
    107 H107       20.3511  -32.6140  -43.3968 H         1 UNK         0.0828 
    108 H108       19.5221  -34.1484  -43.2280 H         1 UNK         0.0828 
    109 H109       20.7698  -33.9603  -44.4503 H         1 UNK         0.0828 
    110 H110       21.2519  -31.9204  -41.3032 H         1 UNK         0.2931 
    111 H111       19.9205  -32.8253  -38.8333 H         1 UNK         0.0412 
    112 H112       23.2095  -32.5307  -39.7152 H         1 UNK         0.3472 
    113 H113       23.8362  -32.2197  -38.1158 H         1 UNK         0.3472 
    114 H114       19.6471  -30.3831  -38.3601 H         1 UNK         0.0970 
    115 H115       20.5562  -30.0016  -39.7975 H         1 UNK         0.0970 
    116 H116       17.5504  -28.7317  -41.1638 H         1 UNK         0.0612 
    117 H117       19.2871  -28.7459  -41.1190 H         1 UNK         0.0612 
@<TRIPOS>BOND
     1    1    2 1    
     2    1   62 1    
     3    1   63 1    
     4    1   64 1    
     5    2    3 2    
     6    2    4 am   BACKBONE|DICT|INTERRES
     7    4    5 1    
     8    4   65 1    
     9    5    6 1    
    10    5   25 1    
    11    5   66 1    
    12    6    7 1    
    13    6   67 1    
    14    6   68 1    
    15    7    8 1    
    16    8    9 1    
    17    8   69 1    
    18    8   70 1    
    19    9   10 ar   
    20    9   14 ar   
    21   10   11 ar   
    22   10   71 1    
    23   11   12 ar   
    24   11   61 1    
    25   12   13 ar   
    26   12   72 1    
    27   13   14 ar   
    28   13   15 1    
    29   14   73 1    
    30   15   16 1    
    31   15   74 1    
    32   15   75 1    
    33   16   17 1    
    34   17   18 1    
    35   17   76 1    
    36   17   77 1    
    37   18   19 1    
    38   18   27 1    
    39   18   78 1    
    40   19   20 am   BACKBONE|DICT|INTERRES
    41   19   79 1    
    42   20   21 2    
    43   20   22 1    
    44   22   23 1    
    45   22   24 1    
    46   22   80 1    
    47   23   81 1    
    48   23   82 1    
    49   23   83 1    
    50   24   25 am   BACKBONE|DICT|INTERRES
    51   24   84 1    
    52   25   26 2    
    53   27   28 2    
    54   27   29 am   BACKBONE|DICT|INTERRES
    55   29   30 1    
    56   29   85 1    
    57   30   31 1    
    58   30   32 1    
    59   30   86 1    
    60   31   87 1    
    61   31   88 1    
    62   31   89 1    
    63   32   33 2    
    64   32   34 am   BACKBONE|DICT|INTERRES
    65   34   35 1    
    66   34   90 1    
    67   35   36 1    
    68   35   37 1    
    69   35   91 1    
    70   36   92 1    
    71   36   93 1    
    72   36   94 1    
    73   37   38 2    
    74   37   39 am   BACKBONE|DICT|INTERRES
    75   39   40 1    
    76   39   95 1    
    77   40   41 1    
    78   40   42 1    
    79   40   96 1    
    80   41   97 1    
    81   41   98 1    
    82   41   99 1    
    83   42   43 2    
    84   42   44 am   BACKBONE|DICT|INTERRES
    85   44   45 1    
    86   44  100 1    
    87   45   46 1    
    88   45   47 1    
    89   45  101 1    
    90   46  102 1    
    91   46  103 1    
    92   46  104 1    
    93   47   48 2    
    94   47   49 am   BACKBONE|DICT|INTERRES
    95   49   50 1    
    96   49  105 1    
    97   50   51 1    
    98   50   52 1    
    99   50  106 1    
   100   51  107 1    
   101   51  108 1    
   102   51  109 1    
   103   52   53 2    
   104   52   54 am   BACKBONE|DICT|INTERRES
   105   54   55 1    
   106   54  110 1    
   107   55   56 1    
   108   55   59 1    
   109   55  111 1    
   110   56   57 am   BACKBONE|DICT|INTERRES
   111   56   58 2    
   112   57  112 1    
   113   57  113 1    
   114   59   60 1    
   115   59  114 1    
   116   59  115 1    
   117   60   61 1    
   118   61  116 1    
   119   61  117 1    
@<TRIPOS>SUBSTRUCTURE
     1 UNK         1 GROUP             0       ****    0 ROOT    
