@<TRIPOS>MOLECULE
3R8
117   119    1
SMALL
USER_CHARGES


@<TRIPOS>ATOM
      1 CA         14.0585  -23.9427  -44.8000 C.3       0 UNK        -0.2013 
      2 C          15.0402  -25.1029  -44.7408 C.2       0 UNK         0.4866 
      3 O          16.0709  -25.0691  -45.4144 O.2       0 UNK        -0.5176 
      4 N          14.7362  -26.1286  -43.9348 N.am      1 UNK        -0.4884 
      5 CA         15.5543  -27.3321  -43.7404 C.3       1 UNK         0.0853 
      6 C6         14.6965  -28.5339  -43.2578 C.3       10 UNK        -0.0849 
      7 S7         13.9247  -29.3786  -44.6772 S.3       10 UNK        -0.2776 
      8 C8         15.0890  -30.7609  -44.9437 C.3       10 UNK         0.0316 
      9 C9         16.5218  -30.2838  -45.1581 C.ar      10 UNK        -0.0863 
     10 C10        17.4625  -30.3878  -44.1274 C.ar      10 UNK        -0.1009 
     11 C11        18.7743  -29.9431  -44.3142 C.ar      10 UNK        -0.0712 
     12 C12        19.1499  -29.4096  -45.5489 C.ar      10 UNK        -0.0894 
     13 C13        18.2160  -29.2793  -46.5812 C.ar      10 UNK        -0.0745 
     14 C14        16.9045  -29.7241  -46.3812 C.ar      10 UNK        -0.0972 
     15 C15        18.6207  -28.6690  -47.9158 C.3       10 UNK         0.0209 
     16 S16        18.7873  -26.8556  -47.8166 S.3       10 UNK        -0.2568 
     17 C17        20.5471  -26.6583  -47.3686 C.3       10 UNK        -0.0983 
     18 CA         20.7841  -25.7131  -46.1632 C.3       3 UNK         0.0876 
     19 N          19.9953  -26.0821  -44.9766 N.am      3 UNK        -0.4424 
     20 C          19.9088  -25.3493  -43.8545 C.2       2 UNK         0.4918 
     21 O          20.4984  -24.2803  -43.6904 O.2       2 UNK        -0.4875 
     22 CA         18.9800  -25.8865  -42.7553 C.3       2 UNK         0.0481 
     23 CB         18.7861  -24.8951  -41.5886 C.3       2 UNK        -0.1831 
     24 N          17.6962  -26.2356  -43.3542 N.am      2 UNK        -0.4498 
     25 C          16.7730  -27.0506  -42.8363 C.2       1 UNK         0.5027 
     26 O          16.8557  -27.5586  -41.7166 O.2       1 UNK        -0.4969 
     27 C          22.2970  -25.6129  -45.8676 C.2       3 UNK         0.5005 
     28 O          22.9754  -24.7557  -46.4363 O.2       3 UNK        -0.5279 
     29 N          22.7865  -26.4788  -44.9735 N.am      4 UNK        -0.4463 
     30 CA         24.1395  -26.4974  -44.4352 C.3       4 UNK         0.0283 
     31 CB         25.0994  -27.1966  -45.4147 C.3       4 UNK        -0.1875 
     32 C          24.0813  -27.2444  -43.1015 C.2       4 UNK         0.4949 
     33 O          23.2722  -28.1652  -42.9586 O.2       4 UNK        -0.5039 
     34 N          24.9569  -26.8737  -42.1609 N.am      5 UNK        -0.4663 
     35 CA         25.0739  -27.4870  -40.8331 C.3       5 UNK         0.0242 
     36 CB         25.6957  -26.4650  -39.8631 C.3       5 UNK        -0.1982 
     37 C          25.8573  -28.8144  -40.8803 C.2       5 UNK         0.5017 
     38 O          26.8658  -28.9688  -40.1879 O.2       5 UNK        -0.5012 
     39 N          25.3961  -29.7424  -41.7265 N.am      6 UNK        -0.4439 
     40 CA         25.9832  -31.0614  -41.9543 C.3       6 UNK         0.0297 
     41 CB         25.5012  -31.5944  -43.3161 C.3       6 UNK        -0.2006 
     42 C          25.6595  -32.0190  -40.7948 C.2       6 UNK         0.4892 
     43 O          24.7676  -32.8604  -40.9233 O.2       6 UNK        -0.5089 
     44 N          26.3739  -31.8447  -39.6736 N.am      7 UNK        -0.4243 
     45 CA         26.2616  -32.5966  -38.4187 C.3       7 UNK         0.0196 
     46 CB         26.7879  -34.0391  -38.6002 C.3       7 UNK        -0.2007 
     47 C          24.8336  -32.5148  -37.8505 C.2       7 UNK         0.5020 
     48 O          24.4378  -31.4490  -37.3772 O.2       7 UNK        -0.5147 
     49 N          24.0699  -33.6114  -37.9509 N.am      8 UNK        -0.4734 
     50 CA         22.6584  -33.7024  -37.5611 C.3       8 UNK         0.0238 
     51 CB         22.1899  -35.1599  -37.7010 C.3       8 UNK        -0.1912 
     52 C          21.7252  -32.7585  -38.3447 C.2       8 UNK         0.5038 
     53 O          20.6620  -32.4126  -37.8280 O.2       8 UNK        -0.5046 
     54 N          22.1382  -32.3456  -39.5517 N.am      9 UNK        -0.4200 
     55 CA         21.4715  -31.3046  -40.3488 C.3       9 UNK         0.0839 
     56 C          21.7051  -29.8551  -39.8217 C.2       9 UNK         0.5513 
     57 N          22.5921  -29.6192  -38.8602 N.am      9 UNK        -0.7519 
     58 O          21.0566  -28.9225  -40.2850 O.2       9 UNK        -0.4960 
     59 C59        21.8162  -31.4386  -41.8622 C.3       10 UNK        -0.0876 
     60 S60        20.3578  -31.7219  -42.9170 S.3       10 UNK        -0.2414 
     61 C61        19.7813  -30.0190  -43.1777 C.3       10 UNK         0.0169 
     62 H62        14.5471  -23.0220  -44.4823 H         1 UNK         0.0903 
     63 H63        13.7030  -23.8051  -45.8208 H         1 UNK         0.0903 
     64 H64        13.1928  -24.1067  -44.1586 H         1 UNK         0.0903 
     65 H65        13.8847  -26.0910  -43.3923 H         1 UNK         0.3096 
     66 H66        15.9850  -27.5955  -44.7090 H         1 UNK         0.1121 
     67 H67        13.9204  -28.2094  -42.5629 H         1 UNK         0.0849 
     68 H68        15.2826  -29.2720  -42.7084 H         1 UNK         0.0849 
     69 H69        15.0353  -31.4435  -44.0940 H         1 UNK         0.0865 
     70 H70        14.7640  -31.3355  -45.8123 H         1 UNK         0.0865 
     71 H71        17.1762  -30.8079  -43.1728 H         1 UNK         0.1346 
     72 H72        20.1705  -29.0907  -45.6998 H         1 UNK         0.1412 
     73 H73        16.1752  -29.6291  -47.1746 H         1 UNK         0.1426 
     74 H74        17.8711  -28.8998  -48.6743 H         1 UNK         0.0716 
     75 H75        19.5488  -29.1196  -48.2705 H         1 UNK         0.0716 
     76 H76        21.0582  -26.2669  -48.2505 H         1 UNK         0.0695 
     77 H77        20.9951  -27.6350  -47.1843 H         1 UNK         0.0695 
     78 H78        20.4557  -24.7135  -46.4570 H         1 UNK         0.0983 
     79 H79        19.4409  -26.9223  -45.0550 H         1 UNK         0.3095 
     80 H80        19.4430  -26.7958  -42.3658 H         1 UNK         0.0454 
     81 H81        19.7432  -24.6291  -41.1383 H         1 UNK         0.0851 
     82 H82        18.1704  -25.3212  -40.7969 H         1 UNK         0.0851 
     83 H83        18.3117  -23.9717  -41.9221 H         1 UNK         0.0851 
     84 H84        17.4855  -25.8051  -44.2524 H         1 UNK         0.2976 
     85 H85        22.1634  -27.1384  -44.5240 H         1 UNK         0.3116 
     86 H86        24.4704  -25.4720  -44.2563 H         1 UNK         0.0646 
     87 H87        26.1118  -27.2348  -45.0108 H         1 UNK         0.0847 
     88 H88        24.7897  -28.2227  -45.6175 H         1 UNK         0.0847 
     89 H89        25.1517  -26.6688  -46.3669 H         1 UNK         0.0847 
     90 H90        25.6165  -26.1383  -42.3740 H         1 UNK         0.3040 
     91 H91        24.0720  -27.7219  -40.4666 H         1 UNK         0.1015 
     92 H92        25.7577  -26.8727  -38.8531 H         1 UNK         0.0786 
     93 H93        25.0958  -25.5564  -39.8060 H         1 UNK         0.0786 
     94 H94        26.7055  -26.1832  -40.1643 H         1 UNK         0.0786 
     95 H95        24.5610  -29.5067  -42.2538 H         1 UNK         0.3172 
     96 H96        27.0692  -30.9586  -42.0079 H         1 UNK         0.0595 
     97 H97        24.4156  -31.6752  -43.3652 H         1 UNK         0.0839 
     98 H98        25.9099  -32.5865  -43.5124 H         1 UNK         0.0839 
     99 H99        25.8232  -30.9456  -44.1309 H         1 UNK         0.0839 
    100 H100       26.9945  -31.0426  -39.6512 H         1 UNK         0.2998 
    101 H101       26.9072  -32.0971  -37.6946 H         1 UNK         0.0822 
    102 H102       26.7206  -34.6031  -37.6687 H         1 UNK         0.0787 
    103 H103       26.2411  -34.5917  -39.3650 H         1 UNK         0.0787 
    104 H104       27.8381  -34.0339  -38.8925 H         1 UNK         0.0787 
    105 H105       24.4728  -34.4266  -38.3909 H         1 UNK         0.3055 
    106 H106       22.5883  -33.4170  -36.5090 H         1 UNK         0.1106 
    107 H107       22.7816  -35.8300  -37.0771 H         1 UNK         0.0828 
    108 H108       21.1495  -35.2671  -37.3907 H         1 UNK         0.0828 
    109 H109       22.2595  -35.5090  -38.7321 H         1 UNK         0.0828 
    110 H110       23.0361  -32.6688  -39.8980 H         1 UNK         0.2931 
    111 H111       20.3991  -31.4719  -40.2306 H         1 UNK         0.0412 
    112 H112       23.1301  -30.3671  -38.4362 H         1 UNK         0.3472 
    113 H113       22.6951  -28.6783  -38.5169 H         1 UNK         0.3472 
    114 H114       22.4737  -32.2912  -42.0332 H         1 UNK         0.0970 
    115 H115       22.3726  -30.5800  -42.2415 H         1 UNK         0.0970 
    116 H116       19.3219  -29.6487  -42.2600 H         1 UNK         0.0612 
    117 H117       20.6342  -29.3691  -43.3801 H         1 UNK         0.0612 
@<TRIPOS>BOND
     1    1    2 1    
     2    1   62 1    
     3    1   63 1    
     4    1   64 1    
     5    2    3 2    
     6    2    4 am   BACKBONE|DICT|INTERRES
     7    4    5 1    
     8    4   65 1    
     9    5    6 1    
    10    5   25 1    
    11    5   66 1    
    12    6    7 1    
    13    6   67 1    
    14    6   68 1    
    15    7    8 1    
    16    8    9 1    
    17    8   69 1    
    18    8   70 1    
    19    9   10 ar   
    20    9   14 ar   
    21   10   11 ar   
    22   10   71 1    
    23   11   12 ar   
    24   11   61 1    
    25   12   13 ar   
    26   12   72 1    
    27   13   14 ar   
    28   13   15 1    
    29   14   73 1    
    30   15   16 1    
    31   15   74 1    
    32   15   75 1    
    33   16   17 1    
    34   17   18 1    
    35   17   76 1    
    36   17   77 1    
    37   18   19 1    
    38   18   27 1    
    39   18   78 1    
    40   19   20 am   BACKBONE|DICT|INTERRES
    41   19   79 1    
    42   20   21 2    
    43   20   22 1    
    44   22   23 1    
    45   22   24 1    
    46   22   80 1    
    47   23   81 1    
    48   23   82 1    
    49   23   83 1    
    50   24   25 am   BACKBONE|DICT|INTERRES
    51   24   84 1    
    52   25   26 2    
    53   27   28 2    
    54   27   29 am   BACKBONE|DICT|INTERRES
    55   29   30 1    
    56   29   85 1    
    57   30   31 1    
    58   30   32 1    
    59   30   86 1    
    60   31   87 1    
    61   31   88 1    
    62   31   89 1    
    63   32   33 2    
    64   32   34 am   BACKBONE|DICT|INTERRES
    65   34   35 1    
    66   34   90 1    
    67   35   36 1    
    68   35   37 1    
    69   35   91 1    
    70   36   92 1    
    71   36   93 1    
    72   36   94 1    
    73   37   38 2    
    74   37   39 am   BACKBONE|DICT|INTERRES
    75   39   40 1    
    76   39   95 1    
    77   40   41 1    
    78   40   42 1    
    79   40   96 1    
    80   41   97 1    
    81   41   98 1    
    82   41   99 1    
    83   42   43 2    
    84   42   44 am   BACKBONE|DICT|INTERRES
    85   44   45 1    
    86   44  100 1    
    87   45   46 1    
    88   45   47 1    
    89   45  101 1    
    90   46  102 1    
    91   46  103 1    
    92   46  104 1    
    93   47   48 2    
    94   47   49 am   BACKBONE|DICT|INTERRES
    95   49   50 1    
    96   49  105 1    
    97   50   51 1    
    98   50   52 1    
    99   50  106 1    
   100   51  107 1    
   101   51  108 1    
   102   51  109 1    
   103   52   53 2    
   104   52   54 am   BACKBONE|DICT|INTERRES
   105   54   55 1    
   106   54  110 1    
   107   55   56 1    
   108   55   59 1    
   109   55  111 1    
   110   56   57 am   BACKBONE|DICT|INTERRES
   111   56   58 2    
   112   57  112 1    
   113   57  113 1    
   114   59   60 1    
   115   59  114 1    
   116   59  115 1    
   117   60   61 1    
   118   61  116 1    
   119   61  117 1    
@<TRIPOS>SUBSTRUCTURE
     1 UNK         1 GROUP             0       ****    0 ROOT    
