@<TRIPOS>MOLECULE
3R8
117   119    1
SMALL
USER_CHARGES


@<TRIPOS>ATOM
      1 CA         13.2690  -29.3192  -41.1256 C.3       0 UNK        -0.2013 
      2 C          14.0151  -28.3150  -41.9914 C.2       0 UNK         0.4866 
      3 O          13.5782  -27.1703  -42.1176 O.2       0 UNK        -0.5176 
      4 N          15.1342  -28.7367  -42.5874 N.am      1 UNK        -0.4884 
      5 CA         16.0360  -27.8861  -43.3694 C.3       1 UNK         0.0853 
      6 C6         16.7407  -28.6995  -44.4810 C.3       10 UNK        -0.0849 
      7 S7         15.6689  -29.0017  -45.9290 S.3       10 UNK        -0.2776 
      8 C8         16.4170  -30.4823  -46.7054 C.3       10 UNK         0.0316 
      9 C9         17.9337  -30.5225  -46.5635 C.ar      10 UNK        -0.0863 
     10 C10        18.5266  -31.4542  -45.7069 C.ar      10 UNK        -0.1009 
     11 C11        19.9007  -31.4141  -45.4558 C.ar      10 UNK        -0.0712 
     12 C12        20.6932  -30.4727  -46.1160 C.ar      10 UNK        -0.0894 
     13 C13        20.1126  -29.5407  -46.9807 C.ar      10 UNK        -0.0745 
     14 C14        18.7347  -29.5800  -47.2155 C.ar      10 UNK        -0.0972 
     15 C15        20.9632  -28.4467  -47.6043 C.3       10 UNK         0.0209 
     16 S16        20.9203  -26.9305  -46.5945 S.3       10 UNK        -0.2568 
     17 C17        21.8793  -27.4461  -45.1296 C.3       10 UNK        -0.0983 
     18 CA         22.1705  -26.2559  -44.1775 C.3       3 UNK         0.0876 
     19 N          20.9485  -25.6796  -43.5967 N.am      3 UNK        -0.4424 
     20 C          20.1481  -26.2425  -42.6772 C.2       2 UNK         0.4918 
     21 O          20.3806  -27.3179  -42.1264 O.2       2 UNK        -0.4875 
     22 CA         18.8530  -25.4881  -42.3155 C.3       2 UNK         0.0481 
     23 CB         18.8549  -24.0007  -42.7248 C.3       2 UNK        -0.1831 
     24 N          17.7096  -26.1562  -42.9387 N.am      2 UNK        -0.4498 
     25 C          17.0795  -27.2298  -42.4412 C.2       1 UNK         0.5027 
     26 O          17.3120  -27.7086  -41.3283 O.2       1 UNK        -0.4969 
     27 C          23.2106  -26.6065  -43.0919 C.2       3 UNK         0.5005 
     28 O          23.5868  -27.7705  -42.9377 O.2       3 UNK        -0.5279 
     29 N          23.6649  -25.5812  -42.3555 N.am      4 UNK        -0.4463 
     30 CA         24.6139  -25.6796  -41.2359 C.3       4 UNK         0.0283 
     31 CB         24.8030  -24.2867  -40.6139 C.3       4 UNK        -0.1875 
     32 C          25.9823  -26.3042  -41.5790 C.2       4 UNK         0.4949 
     33 O          26.6738  -26.7631  -40.6706 O.2       4 UNK        -0.5039 
     34 N          26.3432  -26.3347  -42.8700 N.am      5 UNK        -0.4663 
     35 CA         27.5039  -27.0607  -43.3933 C.3       5 UNK         0.0242 
     36 CB         27.7548  -26.6316  -44.8480 C.3       5 UNK        -0.1982 
     37 C          27.3509  -28.5921  -43.3008 C.2       5 UNK         0.5017 
     38 O          28.3600  -29.2845  -43.1631 O.2       5 UNK        -0.5012 
     39 N          26.1067  -29.0872  -43.3693 N.am      6 UNK        -0.4439 
     40 CA         25.7492  -30.4861  -43.1338 C.3       6 UNK         0.0297 
     41 CB         24.5947  -30.8942  -44.0671 C.3       6 UNK        -0.2006 
     42 C          25.3697  -30.6864  -41.6585 C.2       6 UNK         0.4892 
     43 O          25.9267  -31.5762  -41.0140 O.2       6 UNK        -0.5089 
     44 N          24.4688  -29.8208  -41.1644 N.am      7 UNK        -0.4243 
     45 CA         23.9041  -29.7389  -39.8114 C.3       7 UNK         0.0196 
     46 CB         25.0100  -29.5349  -38.7555 C.3       7 UNK        -0.2007 
     47 C          22.9834  -30.9167  -39.4357 C.2       7 UNK         0.5020 
     48 O          23.0606  -31.9992  -40.0179 O.2       7 UNK        -0.5147 
     49 N          22.1158  -30.6653  -38.4424 N.am      8 UNK        -0.4734 
     50 CA         21.1182  -31.5883  -37.8726 C.3       8 UNK         0.0238 
     51 CB         21.8090  -32.7672  -37.1527 C.3       8 UNK        -0.1912 
     52 C          20.0411  -32.0552  -38.8768 C.2       8 UNK         0.5038 
     53 O          19.4546  -33.1234  -38.6929 O.2       8 UNK        -0.5046 
     54 N          19.7890  -31.2392  -39.9068 N.am      9 UNK        -0.4200 
     55 CA         18.8259  -31.4943  -40.9889 C.3       9 UNK         0.0839 
     56 C          17.3535  -31.1088  -40.6488 C.2       9 UNK         0.5513 
     57 N          17.0313  -30.7096  -39.4244 N.am      9 UNK        -0.7519 
     58 O          16.4810  -31.1774  -41.5127 O.2       9 UNK        -0.4960 
     59 C59        19.2923  -30.8408  -42.3135 C.3       10 UNK        -0.0876 
     60 S60        20.9288  -31.4267  -42.8835 S.3       10 UNK        -0.2414 
     61 C61        20.5170  -32.3340  -44.4122 C.3       10 UNK         0.0169 
     62 H62        12.2516  -29.4498  -41.4933 H         1 UNK         0.0903 
     63 H63        13.7561  -30.2945  -41.1231 H         1 UNK         0.0903 
     64 H64        13.2179  -28.9630  -40.0972 H         1 UNK         0.0903 
     65 H65        15.4928  -29.6618  -42.3677 H         1 UNK         0.3096 
     66 H66        15.4627  -27.0801  -43.8339 H         1 UNK         0.1121 
     67 H67        17.6327  -28.1887  -44.8510 H         1 UNK         0.0849 
     68 H68        17.0826  -29.6521  -44.0791 H         1 UNK         0.0849 
     69 H69        15.9676  -31.3714  -46.2602 H         1 UNK         0.0865 
     70 H70        16.1495  -30.5052  -47.7627 H         1 UNK         0.0865 
     71 H71        17.9084  -32.1701  -45.1823 H         1 UNK         0.1346 
     72 H72        21.7534  -30.4279  -45.9069 H         1 UNK         0.1412 
     73 H73        18.2766  -28.8397  -47.8575 H         1 UNK         0.1426 
     74 H74        20.5940  -28.2172  -48.6050 H         1 UNK         0.0716 
     75 H75        21.9949  -28.7803  -47.7270 H         1 UNK         0.0716 
     76 H76        21.3375  -28.2317  -44.6002 H         1 UNK         0.0695 
     77 H77        22.8100  -27.8941  -45.4835 H         1 UNK         0.0695 
     78 H78        22.6290  -25.4681  -44.7780 H         1 UNK         0.0983 
     79 H79        20.6650  -24.7923  -43.9856 H         1 UNK         0.3095 
     80 H80        18.7492  -25.5285  -41.2291 H         1 UNK         0.0454 
     81 H81        18.8783  -23.8643  -43.8066 H         1 UNK         0.0851 
     82 H82        17.9621  -23.4968  -42.3538 H         1 UNK         0.0851 
     83 H83        19.7115  -23.4751  -42.3001 H         1 UNK         0.0851 
     84 H84        17.4672  -25.8437  -43.8683 H         1 UNK         0.2976 
     85 H85        23.2977  -24.6598  -42.5473 H         1 UNK         0.3116 
     86 H86        24.1551  -26.3265  -40.4851 H         1 UNK         0.0646 
     87 H87        23.8578  -23.8771  -40.2571 H         1 UNK         0.0847 
     88 H88        25.2297  -23.5805  -41.3273 H         1 UNK         0.0847 
     89 H89        25.4767  -24.3292  -39.7567 H         1 UNK         0.0847 
     90 H90        25.7280  -25.9066  -43.5459 H         1 UNK         0.3040 
     91 H91        28.3758  -26.7827  -42.7967 H         1 UNK         0.1015 
     92 H92        27.9392  -25.5595  -44.9198 H         1 UNK         0.0786 
     93 H93        26.9088  -26.8725  -45.4931 H         1 UNK         0.0786 
     94 H94        28.6307  -27.1371  -45.2573 H         1 UNK         0.0786 
     95 H95        25.3291  -28.4350  -43.4145 H         1 UNK         0.3172 
     96 H96        26.6018  -31.1308  -43.3578 H         1 UNK         0.0595 
     97 H97        24.3019  -31.9304  -43.8923 H         1 UNK         0.0839 
     98 H98        24.8843  -30.8103  -45.1144 H         1 UNK         0.0839 
     99 H99        23.7065  -30.2794  -43.9171 H         1 UNK         0.0839 
    100 H100       24.0776  -29.1471  -41.8205 H         1 UNK         0.2998 
    101 H101       23.2837  -28.8411  -39.8233 H         1 UNK         0.0822 
    102 H102       25.6583  -28.6986  -39.0163 H         1 UNK         0.0787 
    103 H103       24.5842  -29.3185  -37.7752 H         1 UNK         0.0787 
    104 H104       25.6352  -30.4212  -38.6449 H         1 UNK         0.0787 
    105 H105       22.1303  -29.7429  -38.0275 H         1 UNK         0.3055 
    106 H106       20.5787  -31.0192  -37.1137 H         1 UNK         0.1106 
    107 H107       22.3107  -33.4330  -37.8555 H         1 UNK         0.0828 
    108 H108       22.5507  -32.4155  -36.4357 H         1 UNK         0.0828 
    109 H109       21.0861  -33.3673  -36.5987 H         1 UNK         0.0828 
    110 H110       20.3157  -30.3820  -39.9801 H         1 UNK         0.2931 
    111 H111       18.8028  -32.5718  -41.1628 H         1 UNK         0.0412 
    112 H112       17.7341  -30.6465  -38.7067 H         1 UNK         0.3472 
    113 H113       16.0769  -30.4613  -39.2204 H         1 UNK         0.3472 
    114 H114       18.5596  -31.0418  -43.0900 H         1 UNK         0.0970 
    115 H115       19.3295  -29.7551  -42.2123 H         1 UNK         0.0970 
    116 H116       21.4268  -32.7822  -44.8138 H         1 UNK         0.0612 
    117 H117       19.8447  -33.1589  -44.1710 H         1 UNK         0.0612 
@<TRIPOS>BOND
     1    1    2 1    
     2    1   62 1    
     3    1   63 1    
     4    1   64 1    
     5    2    3 2    
     6    2    4 am   BACKBONE|DICT|INTERRES
     7    4    5 1    
     8    4   65 1    
     9    5    6 1    
    10    5   25 1    
    11    5   66 1    
    12    6    7 1    
    13    6   67 1    
    14    6   68 1    
    15    7    8 1    
    16    8    9 1    
    17    8   69 1    
    18    8   70 1    
    19    9   10 ar   
    20    9   14 ar   
    21   10   11 ar   
    22   10   71 1    
    23   11   12 ar   
    24   11   61 1    
    25   12   13 ar   
    26   12   72 1    
    27   13   14 ar   
    28   13   15 1    
    29   14   73 1    
    30   15   16 1    
    31   15   74 1    
    32   15   75 1    
    33   16   17 1    
    34   17   18 1    
    35   17   76 1    
    36   17   77 1    
    37   18   19 1    
    38   18   27 1    
    39   18   78 1    
    40   19   20 am   BACKBONE|DICT|INTERRES
    41   19   79 1    
    42   20   21 2    
    43   20   22 1    
    44   22   23 1    
    45   22   24 1    
    46   22   80 1    
    47   23   81 1    
    48   23   82 1    
    49   23   83 1    
    50   24   25 am   BACKBONE|DICT|INTERRES
    51   24   84 1    
    52   25   26 2    
    53   27   28 2    
    54   27   29 am   BACKBONE|DICT|INTERRES
    55   29   30 1    
    56   29   85 1    
    57   30   31 1    
    58   30   32 1    
    59   30   86 1    
    60   31   87 1    
    61   31   88 1    
    62   31   89 1    
    63   32   33 2    
    64   32   34 am   BACKBONE|DICT|INTERRES
    65   34   35 1    
    66   34   90 1    
    67   35   36 1    
    68   35   37 1    
    69   35   91 1    
    70   36   92 1    
    71   36   93 1    
    72   36   94 1    
    73   37   38 2    
    74   37   39 am   BACKBONE|DICT|INTERRES
    75   39   40 1    
    76   39   95 1    
    77   40   41 1    
    78   40   42 1    
    79   40   96 1    
    80   41   97 1    
    81   41   98 1    
    82   41   99 1    
    83   42   43 2    
    84   42   44 am   BACKBONE|DICT|INTERRES
    85   44   45 1    
    86   44  100 1    
    87   45   46 1    
    88   45   47 1    
    89   45  101 1    
    90   46  102 1    
    91   46  103 1    
    92   46  104 1    
    93   47   48 2    
    94   47   49 am   BACKBONE|DICT|INTERRES
    95   49   50 1    
    96   49  105 1    
    97   50   51 1    
    98   50   52 1    
    99   50  106 1    
   100   51  107 1    
   101   51  108 1    
   102   51  109 1    
   103   52   53 2    
   104   52   54 am   BACKBONE|DICT|INTERRES
   105   54   55 1    
   106   54  110 1    
   107   55   56 1    
   108   55   59 1    
   109   55  111 1    
   110   56   57 am   BACKBONE|DICT|INTERRES
   111   56   58 2    
   112   57  112 1    
   113   57  113 1    
   114   59   60 1    
   115   59  114 1    
   116   59  115 1    
   117   60   61 1    
   118   61  116 1    
   119   61  117 1    
@<TRIPOS>SUBSTRUCTURE
     1 UNK         1 GROUP             0       ****    0 ROOT    
