@<TRIPOS>MOLECULE
3R8
117   119    1
SMALL
USER_CHARGES


@<TRIPOS>ATOM
      1 CA         14.2423  -21.9357  -42.3421 C.3       0 UNK        -0.2013 
      2 C          14.2387  -22.8478  -43.5598 C.2       0 UNK         0.4866 
      3 O          13.2147  -22.9677  -44.2335 O.2       0 UNK        -0.5176 
      4 N          15.3750  -23.4868  -43.8500 N.am      1 UNK        -0.4884 
      5 CA         15.5802  -24.3926  -44.9795 C.3       1 UNK         0.0853 
      6 C6         14.9461  -25.7948  -44.7489 C.3       10 UNK        -0.0849 
      7 S7         15.5904  -26.6932  -43.2903 S.3       10 UNK        -0.2776 
      8 C8         16.5463  -28.0180  -44.1049 C.3       10 UNK         0.0316 
      9 C9         17.6745  -28.6092  -43.2621 C.ar      10 UNK        -0.0863 
     10 C10        18.0854  -29.9229  -43.5130 C.ar      10 UNK        -0.1009 
     11 C11        19.1988  -30.4623  -42.8625 C.ar      10 UNK        -0.0712 
     12 C12        19.9024  -29.6773  -41.9451 C.ar      10 UNK        -0.0894 
     13 C13        19.5032  -28.3654  -41.6780 C.ar      10 UNK        -0.0745 
     14 C14        18.3804  -27.8418  -42.3262 C.ar      10 UNK        -0.0972 
     15 C15        20.3405  -27.4862  -40.7620 C.3       10 UNK         0.0209 
     16 S16        21.9175  -27.0285  -41.5540 S.3       10 UNK        -0.2568 
     17 C17        21.3639  -25.9307  -42.9042 C.3       10 UNK        -0.0983 
     18 CA         21.0379  -26.6683  -44.2290 C.3       3 UNK         0.0876 
     19 N          20.3377  -25.7832  -45.1565 N.am      3 UNK        -0.4424 
     20 C          19.5631  -26.1965  -46.1646 C.2       2 UNK         0.4918 
     21 O          19.3775  -27.3799  -46.4533 O.2       2 UNK        -0.4875 
     22 CA         18.8268  -25.0976  -46.9508 C.3       2 UNK         0.0481 
     23 CB         18.8194  -25.3926  -48.4610 C.3       2 UNK        -0.1831 
     24 N          17.4460  -24.9487  -46.4810 N.am      2 UNK        -0.4498 
     25 C          17.0891  -24.4376  -45.2936 C.2       1 UNK         0.5027 
     26 O          17.8971  -23.9979  -44.4685 O.2       1 UNK        -0.4969 
     27 C          22.2789  -27.3004  -44.8820 C.2       3 UNK         0.5005 
     28 O          23.1004  -26.5855  -45.4626 O.2       3 UNK        -0.5279 
     29 N          22.4167  -28.6249  -44.7340 N.am      4 UNK        -0.4463 
     30 CA         23.5673  -29.4117  -45.1797 C.3       4 UNK         0.0283 
     31 CB         23.1148  -30.8564  -45.4593 C.3       4 UNK        -0.1875 
     32 C          24.6996  -29.3389  -44.1399 C.2       4 UNK         0.4949 
     33 O          25.0496  -30.3503  -43.5312 O.2       4 UNK        -0.5039 
     34 N          25.2183  -28.1224  -43.9305 N.am      5 UNK        -0.4663 
     35 CA         26.2932  -27.7108  -43.0150 C.3       5 UNK         0.0242 
     36 CB         27.6143  -28.4376  -43.3357 C.3       5 UNK        -0.1982 
     37 C          25.9641  -27.8074  -41.5123 C.2       5 UNK         0.5017 
     38 O          26.4084  -26.9395  -40.7593 O.2       5 UNK        -0.5012 
     39 N          25.2112  -28.8286  -41.0906 N.am      6 UNK        -0.4439 
     40 CA         24.8027  -29.0603  -39.7084 C.3       6 UNK         0.0297 
     41 CB         25.9206  -29.8039  -38.9535 C.3       6 UNK        -0.2006 
     42 C          23.5008  -29.8656  -39.6763 C.2       6 UNK         0.4892 
     43 O          23.2016  -30.5944  -40.6247 O.2       6 UNK        -0.5089 
     44 N          22.7846  -29.7655  -38.5477 N.am      7 UNK        -0.4243 
     45 CA         21.5182  -30.4535  -38.2591 C.3       7 UNK         0.0196 
     46 CB         20.9272  -29.8808  -36.9602 C.3       7 UNK        -0.2007 
     47 C          21.6099  -31.9905  -38.1863 C.2       7 UNK         0.5020 
     48 O          20.5725  -32.6524  -38.1633 O.2       7 UNK        -0.5147 
     49 N          22.8331  -32.5376  -38.1679 N.am      8 UNK        -0.4734 
     50 CA         23.1087  -33.9653  -38.3457 C.3       8 UNK         0.0238 
     51 CB         24.5702  -34.2469  -37.9601 C.3       8 UNK        -0.1912 
     52 C          22.8238  -34.4590  -39.7786 C.2       8 UNK         0.5038 
     53 O          22.5932  -35.6554  -39.9579 O.2       8 UNK        -0.5046 
     54 N          22.8428  -33.5414  -40.7584 N.am      9 UNK        -0.4200 
     55 CA         22.5375  -33.7700  -42.1809 C.3       9 UNK         0.0839 
     56 C          23.5484  -34.6887  -42.9322 C.2       9 UNK         0.5513 
     57 N          24.7533  -34.9039  -42.4176 N.am      9 UNK        -0.7519 
     58 O          23.2525  -35.1916  -44.0133 O.2       9 UNK        -0.4960 
     59 C59        21.0514  -34.1689  -42.4271 C.3       10 UNK        -0.0876 
     60 S60        19.8780  -32.9344  -41.7680 S.3       10 UNK        -0.2414 
     61 C61        19.6970  -31.8555  -43.2214 C.3       10 UNK         0.0169 
     62 H62        15.2107  -21.9278  -41.8420 H         1 UNK         0.0903 
     63 H63        14.0043  -20.9141  -42.6372 H         1 UNK         0.0903 
     64 H64        13.4929  -22.2669  -41.6237 H         1 UNK         0.0903 
     65 H65        16.2154  -23.3351  -43.3042 H         1 UNK         0.3096 
     66 H66        15.1014  -23.9416  -45.8521 H         1 UNK         0.1121 
     67 H67        13.8694  -25.6838  -44.6123 H         1 UNK         0.0849 
     68 H68        15.0503  -26.4113  -45.6431 H         1 UNK         0.0849 
     69 H69        15.8510  -28.8019  -44.4096 H         1 UNK         0.0865 
     70 H70        16.9958  -27.6311  -45.0198 H         1 UNK         0.0865 
     71 H71        17.5630  -30.5136  -44.2534 H         1 UNK         0.1346 
     72 H72        20.7880  -30.0762  -41.4701 H         1 UNK         0.1412 
     73 H73        18.1024  -26.8120  -42.1495 H         1 UNK         0.1426 
     74 H74        20.5503  -28.0186  -39.8347 H         1 UNK         0.0716 
     75 H75        19.7978  -26.5830  -40.4789 H         1 UNK         0.0716 
     76 H76        22.1344  -25.1750  -43.0678 H         1 UNK         0.0695 
     77 H77        20.4847  -25.3859  -42.5557 H         1 UNK         0.0695 
     78 H78        20.3500  -27.4825  -44.0133 H         1 UNK         0.0983 
     79 H79        20.4189  -24.7923  -44.9804 H         1 UNK         0.3095 
     80 H80        19.3482  -24.1496  -46.8009 H         1 UNK         0.0454 
     81 H81        18.2728  -26.3070  -48.6955 H         1 UNK         0.0851 
     82 H82        19.8356  -25.5166  -48.8375 H         1 UNK         0.0851 
     83 H83        18.3648  -24.5767  -49.0229 H         1 UNK         0.0851 
     84 H84        16.7272  -25.3010  -47.0969 H         1 UNK         0.2976 
     85 H85        21.7199  -29.1221  -44.1974 H         1 UNK         0.3116 
     86 H86        23.9478  -28.9965  -46.1155 H         1 UNK         0.0646 
     87 H87        22.7725  -31.3546  -44.5535 H         1 UNK         0.0847 
     88 H88        23.9380  -31.4493  -45.8602 H         1 UNK         0.0847 
     89 H89        22.3065  -30.8887  -46.1900 H         1 UNK         0.0847 
     90 H90        24.7905  -27.3655  -44.4552 H         1 UNK         0.3040 
     91 H91        26.4509  -26.6502  -43.2193 H         1 UNK         0.1015 
     92 H92        27.5513  -29.5076  -43.1357 H         1 UNK         0.0786 
     93 H93        28.4306  -28.0445  -42.7282 H         1 UNK         0.0786 
     94 H94        27.8963  -28.3067  -44.3804 H         1 UNK         0.0786 
     95 H95        24.8751  -29.5074  -41.7711 H         1 UNK         0.3172 
     96 H96        24.6134  -28.0983  -39.2269 H         1 UNK         0.0595 
     97 H97        25.6442  -29.9891  -37.9149 H         1 UNK         0.0839 
     98 H98        26.8438  -29.2242  -38.9394 H         1 UNK         0.0839 
     99 H99        26.1408  -30.7690  -39.4121 H         1 UNK         0.0839 
    100 H100       23.1302  -29.1576  -37.8185 H         1 UNK         0.2998 
    101 H101       20.8273  -30.2309  -39.0734 H         1 UNK         0.0822 
    102 H102       19.9633  -30.3385  -36.7328 H         1 UNK         0.0787 
    103 H103       21.5821  -30.0596  -36.1064 H         1 UNK         0.0787 
    104 H104       20.7604  -28.8063  -37.0392 H         1 UNK         0.0787 
    105 H105       23.6277  -31.9157  -38.1634 H         1 UNK         0.3055 
    106 H106       22.4575  -34.5277  -37.6726 H         1 UNK         0.1106 
    107 H107       24.8026  -35.3080  -38.0617 H         1 UNK         0.0828 
    108 H108       25.2697  -33.6983  -38.5923 H         1 UNK         0.0828 
    109 H109       24.7672  -33.9728  -36.9235 H         1 UNK         0.0828 
    110 H110       23.0328  -32.5733  -40.5199 H         1 UNK         0.2931 
    111 H111       22.6817  -32.7940  -42.6440 H         1 UNK         0.0412 
    112 H112       25.0147  -34.4841  -41.5403 H         1 UNK         0.3472 
    113 H113       25.4059  -35.4901  -42.9138 H         1 UNK         0.3472 
    114 H114       20.8526  -34.2988  -43.4925 H         1 UNK         0.0970 
    115 H115       20.8346  -35.1336  -41.9662 H         1 UNK         0.0970 
    116 H116       19.0293  -32.3404  -43.9351 H         1 UNK         0.0612 
    117 H117       20.6601  -31.7523  -43.7190 H         1 UNK         0.0612 
@<TRIPOS>BOND
     1    1    2 1    
     2    1   62 1    
     3    1   63 1    
     4    1   64 1    
     5    2    3 2    
     6    2    4 am   BACKBONE|DICT|INTERRES
     7    4    5 1    
     8    4   65 1    
     9    5    6 1    
    10    5   25 1    
    11    5   66 1    
    12    6    7 1    
    13    6   67 1    
    14    6   68 1    
    15    7    8 1    
    16    8    9 1    
    17    8   69 1    
    18    8   70 1    
    19    9   10 ar   
    20    9   14 ar   
    21   10   11 ar   
    22   10   71 1    
    23   11   12 ar   
    24   11   61 1    
    25   12   13 ar   
    26   12   72 1    
    27   13   14 ar   
    28   13   15 1    
    29   14   73 1    
    30   15   16 1    
    31   15   74 1    
    32   15   75 1    
    33   16   17 1    
    34   17   18 1    
    35   17   76 1    
    36   17   77 1    
    37   18   19 1    
    38   18   27 1    
    39   18   78 1    
    40   19   20 am   BACKBONE|DICT|INTERRES
    41   19   79 1    
    42   20   21 2    
    43   20   22 1    
    44   22   23 1    
    45   22   24 1    
    46   22   80 1    
    47   23   81 1    
    48   23   82 1    
    49   23   83 1    
    50   24   25 am   BACKBONE|DICT|INTERRES
    51   24   84 1    
    52   25   26 2    
    53   27   28 2    
    54   27   29 am   BACKBONE|DICT|INTERRES
    55   29   30 1    
    56   29   85 1    
    57   30   31 1    
    58   30   32 1    
    59   30   86 1    
    60   31   87 1    
    61   31   88 1    
    62   31   89 1    
    63   32   33 2    
    64   32   34 am   BACKBONE|DICT|INTERRES
    65   34   35 1    
    66   34   90 1    
    67   35   36 1    
    68   35   37 1    
    69   35   91 1    
    70   36   92 1    
    71   36   93 1    
    72   36   94 1    
    73   37   38 2    
    74   37   39 am   BACKBONE|DICT|INTERRES
    75   39   40 1    
    76   39   95 1    
    77   40   41 1    
    78   40   42 1    
    79   40   96 1    
    80   41   97 1    
    81   41   98 1    
    82   41   99 1    
    83   42   43 2    
    84   42   44 am   BACKBONE|DICT|INTERRES
    85   44   45 1    
    86   44  100 1    
    87   45   46 1    
    88   45   47 1    
    89   45  101 1    
    90   46  102 1    
    91   46  103 1    
    92   46  104 1    
    93   47   48 2    
    94   47   49 am   BACKBONE|DICT|INTERRES
    95   49   50 1    
    96   49  105 1    
    97   50   51 1    
    98   50   52 1    
    99   50  106 1    
   100   51  107 1    
   101   51  108 1    
   102   51  109 1    
   103   52   53 2    
   104   52   54 am   BACKBONE|DICT|INTERRES
   105   54   55 1    
   106   54  110 1    
   107   55   56 1    
   108   55   59 1    
   109   55  111 1    
   110   56   57 am   BACKBONE|DICT|INTERRES
   111   56   58 2    
   112   57  112 1    
   113   57  113 1    
   114   59   60 1    
   115   59  114 1    
   116   59  115 1    
   117   60   61 1    
   118   61  116 1    
   119   61  117 1    
@<TRIPOS>SUBSTRUCTURE
     1 UNK         1 GROUP             0       ****    0 ROOT    
