@<TRIPOS>MOLECULE
3R8
117   119    1
SMALL
USER_CHARGES


@<TRIPOS>ATOM
      1 CA         16.1361  -21.5133  -44.8179 C.3       0 UNK        -0.2013 
      2 C          16.9262  -22.7941  -45.0381 C.2       0 UNK         0.4866 
      3 O          17.3245  -23.0837  -46.1671 O.2       0 UNK        -0.5176 
      4 N          17.1719  -23.5604  -43.9680 N.am      1 UNK        -0.4884 
      5 CA         17.8888  -24.8439  -43.9715 C.3       1 UNK         0.0853 
      6 C6         17.4591  -25.7329  -42.7724 C.3       10 UNK        -0.0849 
      7 S7         15.7041  -26.2336  -42.9020 S.3       10 UNK        -0.2776 
      8 C8         15.7036  -27.9337  -42.2147 C.3       10 UNK         0.0316 
      9 C9         16.5597  -28.9723  -42.9472 C.ar      10 UNK        -0.0863 
     10 C10        16.8325  -30.1854  -42.3048 C.ar      10 UNK        -0.1009 
     11 C11        17.6632  -31.1414  -42.8983 C.ar      10 UNK        -0.0712 
     12 C12        18.2261  -30.8777  -44.1493 C.ar      10 UNK        -0.0894 
     13 C13        17.9593  -29.6788  -44.8137 C.ar      10 UNK        -0.0745 
     14 C14        17.0962  -28.7501  -44.2217 C.ar      10 UNK        -0.0972 
     15 C15        18.6096  -29.3961  -46.1649 C.3       10 UNK         0.0209 
     16 S16        19.2528  -27.6921  -46.2690 S.3       10 UNK        -0.2568 
     17 C17        20.8748  -27.8671  -47.0933 C.3       10 UNK        -0.0983 
     18 CA         22.0747  -27.3682  -46.2288 C.3       3 UNK         0.0876 
     19 N          21.8457  -26.0532  -45.6334 N.am      3 UNK        -0.4424 
     20 C          21.7683  -24.8915  -46.2836 C.2       2 UNK         0.4918 
     21 O          22.0067  -24.7578  -47.4854 O.2       2 UNK        -0.4875 
     22 CA         21.2761  -23.6964  -45.4457 C.3       2 UNK         0.0481 
     23 CB         21.4115  -22.3546  -46.1881 C.3       2 UNK        -0.1831 
     24 N          19.8726  -23.8947  -45.0764 N.am      2 UNK        -0.4498 
     25 C          19.4221  -24.6474  -44.0637 C.2       1 UNK         0.5027 
     26 O          20.1715  -25.1804  -43.2434 O.2       1 UNK        -0.4969 
     27 C          22.5360  -28.3219  -45.1083 C.2       3 UNK         0.5005 
     28 O          23.1855  -27.8643  -44.1635 O.2       3 UNK        -0.5279 
     29 N          22.2100  -29.6203  -45.2102 N.am      4 UNK        -0.4463 
     30 CA         22.6579  -30.6976  -44.3133 C.3       4 UNK         0.0283 
     31 CB         22.1285  -32.0492  -44.8167 C.3       4 UNK        -0.1875 
     32 C          22.3333  -30.5129  -42.8190 C.2       4 UNK         0.4949 
     33 O          22.9877  -31.1441  -41.9900 O.2       4 UNK        -0.5039 
     34 N          21.3971  -29.6161  -42.4798 N.am      5 UNK        -0.4663 
     35 CA         21.1400  -29.1553  -41.1108 C.3       5 UNK         0.0242 
     36 CB         19.9525  -28.1855  -41.1133 C.3       5 UNK        -0.1982 
     37 C          22.3623  -28.5048  -40.4342 C.2       5 UNK         0.5017 
     38 O          22.4736  -28.5789  -39.2106 O.2       5 UNK        -0.5012 
     39 N          23.2908  -27.9458  -41.2279 N.am      6 UNK        -0.4439 
     40 CA         24.5953  -27.4561  -40.7670 C.3       6 UNK         0.0297 
     41 CB         25.2706  -26.6662  -41.8990 C.3       6 UNK        -0.2006 
     42 C          25.5282  -28.5765  -40.2620 C.2       6 UNK         0.4892 
     43 O          26.4274  -28.2946  -39.4700 O.2       6 UNK        -0.5089 
     44 N          25.2839  -29.8187  -40.7018 N.am      7 UNK        -0.4243 
     45 CA         25.9406  -31.0423  -40.2388 C.3       7 UNK         0.0196 
     46 CB         26.4070  -31.8444  -41.4679 C.3       7 UNK        -0.2007 
     47 C          24.9955  -31.8700  -39.3436 C.2       7 UNK         0.5020 
     48 O          25.1873  -33.0801  -39.2138 O.2       7 UNK        -0.5147 
     49 N          23.9742  -31.2171  -38.7640 N.am      8 UNK        -0.4734 
     50 CA         22.9317  -31.7727  -37.8902 C.3       8 UNK         0.0238 
     51 CB         23.5389  -32.2250  -36.5448 C.3       8 UNK        -0.1912 
     52 C          22.0735  -32.8706  -38.5521 C.2       8 UNK         0.5038 
     53 O          21.5381  -33.7263  -37.8449 O.2       8 UNK        -0.5046 
     54 N          21.9584  -32.8291  -39.8875 N.am      9 UNK        -0.4200 
     55 CA         21.2469  -33.8029  -40.7325 C.3       9 UNK         0.0839 
     56 C          21.9080  -35.2143  -40.7692 C.2       9 UNK         0.5513 
     57 N          23.1666  -35.3670  -40.3706 N.am      9 UNK        -0.7519 
     58 O          21.2856  -36.1833  -41.1967 O.2       9 UNK        -0.4960 
     59 C59        19.7132  -33.8447  -40.4627 C.3       10 UNK        -0.0876 
     60 S60        18.9371  -32.2055  -40.6821 S.3       10 UNK        -0.2414 
     61 C61        17.9583  -32.4585  -42.1941 C.3       10 UNK         0.0169 
     62 H62        15.8486  -21.3853  -43.7745 H         1 UNK         0.0903 
     63 H63        16.7310  -20.6499  -45.1147 H         1 UNK         0.0903 
     64 H64        15.2283  -21.5253  -45.4205 H         1 UNK         0.0903 
     65 H65        16.8316  -23.2629  -43.0643 H         1 UNK         0.3096 
     66 H66        17.6144  -25.3809  -44.8827 H         1 UNK         0.1121 
     67 H67        18.0729  -26.6324  -42.7285 H         1 UNK         0.0849 
     68 H68        17.6163  -25.2144  -41.8251 H         1 UNK         0.0849 
     69 H69        16.0270  -27.8747  -41.1741 H         1 UNK         0.0865 
     70 H70        14.6736  -28.2922  -42.1949 H         1 UNK         0.0865 
     71 H71        16.4157  -30.3819  -41.3261 H         1 UNK         0.1346 
     72 H72        18.8680  -31.6135  -44.6099 H         1 UNK         0.1412 
     73 H73        16.8765  -27.8347  -44.7504 H         1 UNK         0.1426 
     74 H74        17.8732  -29.5464  -46.9551 H         1 UNK         0.0716 
     75 H75        19.4136  -30.1086  -46.3502 H         1 UNK         0.0716 
     76 H76        21.0243  -28.8838  -47.4577 H         1 UNK         0.0695 
     77 H77        20.8244  -27.2607  -47.9988 H         1 UNK         0.0695 
     78 H78        22.9395  -27.2770  -46.8894 H         1 UNK         0.0983 
     79 H79        21.6529  -26.0643  -44.6382 H         1 UNK         0.3095 
     80 H80        21.8868  -23.6434  -44.5419 H         1 UNK         0.0454 
     81 H81        22.4467  -22.1728  -46.4796 H         1 UNK         0.0851 
     82 H82        20.8070  -22.3303  -47.0958 H         1 UNK         0.0851 
     83 H83        21.1016  -21.5209  -45.5581 H         1 UNK         0.0851 
     84 H84        19.1736  -23.5167  -45.7101 H         1 UNK         0.2976 
     85 H85        21.6672  -29.9073  -46.0109 H         1 UNK         0.3116 
     86 H86        23.7473  -30.7245  -44.3830 H         1 UNK         0.0646 
     87 H87        22.4631  -32.2553  -45.8334 H         1 UNK         0.0847 
     88 H88        21.0413  -32.0896  -44.8047 H         1 UNK         0.0847 
     89 H89        22.4889  -32.8669  -44.1904 H         1 UNK         0.0847 
     90 H90        20.8998  -29.1434  -43.2203 H         1 UNK         0.3040 
     91 H91        20.8709  -30.0275  -40.5133 H         1 UNK         0.1015 
     92 H92        19.0648  -28.6509  -41.5376 H         1 UNK         0.0786 
     93 H93        20.1736  -27.2873  -41.6885 H         1 UNK         0.0786 
     94 H94        19.7004  -27.8716  -40.0995 H         1 UNK         0.0786 
     95 H95        23.1330  -27.9335  -42.2340 H         1 UNK         0.3172 
     96 H96        24.4196  -26.7737  -39.9329 H         1 UNK         0.0595 
     97 H97        24.6421  -25.8434  -42.2403 H         1 UNK         0.0839 
     98 H98        25.4871  -27.3007  -42.7595 H         1 UNK         0.0839 
     99 H99        26.2159  -26.2360  -41.5653 H         1 UNK         0.0839 
    100 H100       24.4947  -29.9688  -41.3216 H         1 UNK         0.2998 
    101 H101       26.8179  -30.7984  -39.6365 H         1 UNK         0.0822 
    102 H102       27.0625  -31.2491  -42.1037 H         1 UNK         0.0787 
    103 H103       26.9669  -32.7318  -41.1698 H         1 UNK         0.0787 
    104 H104       25.5639  -32.1782  -42.0743 H         1 UNK         0.0787 
    105 H105       23.8782  -30.2267  -38.9569 H         1 UNK         0.3055 
    106 H106       22.2439  -30.9518  -37.6804 H         1 UNK         0.1106 
    107 H107       24.1882  -33.0927  -36.6657 H         1 UNK         0.0828 
    108 H108       24.1244  -31.4285  -36.0856 H         1 UNK         0.0828 
    109 H109       22.7588  -32.5002  -35.8340 H         1 UNK         0.0828 
    110 H110       22.4573  -32.1108  -40.4032 H         1 UNK         0.2931 
    111 H111       21.3721  -33.4308  -41.7498 H         1 UNK         0.0412 
    112 H112       23.5888  -36.2812  -40.4089 H         1 UNK         0.3472 
    113 H113       23.6974  -34.5801  -40.0193 H         1 UNK         0.3472 
    114 H114       19.5079  -34.1946  -39.4504 H         1 UNK         0.0970 
    115 H115       19.2241  -34.5617  -41.1241 H         1 UNK         0.0970 
    116 H116       17.0225  -32.9573  -41.9386 H         1 UNK         0.0612 
    117 H117       18.4969  -33.1298  -42.8648 H         1 UNK         0.0612 
@<TRIPOS>BOND
     1    1    2 1    
     2    1   62 1    
     3    1   63 1    
     4    1   64 1    
     5    2    3 2    
     6    2    4 am   BACKBONE|DICT|INTERRES
     7    4    5 1    
     8    4   65 1    
     9    5    6 1    
    10    5   25 1    
    11    5   66 1    
    12    6    7 1    
    13    6   67 1    
    14    6   68 1    
    15    7    8 1    
    16    8    9 1    
    17    8   69 1    
    18    8   70 1    
    19    9   10 ar   
    20    9   14 ar   
    21   10   11 ar   
    22   10   71 1    
    23   11   12 ar   
    24   11   61 1    
    25   12   13 ar   
    26   12   72 1    
    27   13   14 ar   
    28   13   15 1    
    29   14   73 1    
    30   15   16 1    
    31   15   74 1    
    32   15   75 1    
    33   16   17 1    
    34   17   18 1    
    35   17   76 1    
    36   17   77 1    
    37   18   19 1    
    38   18   27 1    
    39   18   78 1    
    40   19   20 am   BACKBONE|DICT|INTERRES
    41   19   79 1    
    42   20   21 2    
    43   20   22 1    
    44   22   23 1    
    45   22   24 1    
    46   22   80 1    
    47   23   81 1    
    48   23   82 1    
    49   23   83 1    
    50   24   25 am   BACKBONE|DICT|INTERRES
    51   24   84 1    
    52   25   26 2    
    53   27   28 2    
    54   27   29 am   BACKBONE|DICT|INTERRES
    55   29   30 1    
    56   29   85 1    
    57   30   31 1    
    58   30   32 1    
    59   30   86 1    
    60   31   87 1    
    61   31   88 1    
    62   31   89 1    
    63   32   33 2    
    64   32   34 am   BACKBONE|DICT|INTERRES
    65   34   35 1    
    66   34   90 1    
    67   35   36 1    
    68   35   37 1    
    69   35   91 1    
    70   36   92 1    
    71   36   93 1    
    72   36   94 1    
    73   37   38 2    
    74   37   39 am   BACKBONE|DICT|INTERRES
    75   39   40 1    
    76   39   95 1    
    77   40   41 1    
    78   40   42 1    
    79   40   96 1    
    80   41   97 1    
    81   41   98 1    
    82   41   99 1    
    83   42   43 2    
    84   42   44 am   BACKBONE|DICT|INTERRES
    85   44   45 1    
    86   44  100 1    
    87   45   46 1    
    88   45   47 1    
    89   45  101 1    
    90   46  102 1    
    91   46  103 1    
    92   46  104 1    
    93   47   48 2    
    94   47   49 am   BACKBONE|DICT|INTERRES
    95   49   50 1    
    96   49  105 1    
    97   50   51 1    
    98   50   52 1    
    99   50  106 1    
   100   51  107 1    
   101   51  108 1    
   102   51  109 1    
   103   52   53 2    
   104   52   54 am   BACKBONE|DICT|INTERRES
   105   54   55 1    
   106   54  110 1    
   107   55   56 1    
   108   55   59 1    
   109   55  111 1    
   110   56   57 am   BACKBONE|DICT|INTERRES
   111   56   58 2    
   112   57  112 1    
   113   57  113 1    
   114   59   60 1    
   115   59  114 1    
   116   59  115 1    
   117   60   61 1    
   118   61  116 1    
   119   61  117 1    
@<TRIPOS>SUBSTRUCTURE
     1 UNK         1 GROUP             0       ****    0 ROOT    
