@<TRIPOS>MOLECULE
3R8
117   119    1
SMALL
USER_CHARGES


@<TRIPOS>ATOM
      1 CA         17.9752  -22.2112  -42.8211 C.3       0 UNK        -0.2013 
      2 C          17.4761  -23.2637  -41.8333 C.2       0 UNK         0.4866 
      3 O          17.2941  -22.9453  -40.6598 O.2       0 UNK        -0.5176 
      4 N          17.2228  -24.5157  -42.2437 N.am      1 UNK        -0.4884 
      5 CA         17.4469  -25.0897  -43.5781 C.3       1 UNK         0.0853 
      6 C6         16.7781  -26.4829  -43.6875 C.3       10 UNK        -0.0849 
      7 S7         16.2745  -26.8924  -45.3884 S.3       10 UNK        -0.2776 
      8 C8         15.7541  -28.6264  -45.1780 C.3       10 UNK         0.0316 
      9 C9         16.9465  -29.5522  -44.9843 C.ar      10 UNK        -0.0863 
     10 C10        17.2177  -30.1230  -43.7351 C.ar      10 UNK        -0.1009 
     11 C11        18.3258  -30.9606  -43.5649 C.ar      10 UNK        -0.0712 
     12 C12        19.1497  -31.2387  -44.6577 C.ar      10 UNK        -0.0894 
     13 C13        18.8892  -30.6724  -45.9079 C.ar      10 UNK        -0.0745 
     14 C14        17.7837  -29.8346  -46.0666 C.ar      10 UNK        -0.0972 
     15 C15        19.8060  -30.9532  -47.0869 C.3       10 UNK         0.0209 
     16 S16        20.9817  -29.5898  -47.3548 S.3       10 UNK        -0.2568 
     17 C17        22.0321  -29.7044  -45.8600 C.3       10 UNK        -0.0983 
     18 CA         22.0509  -28.4645  -44.9103 C.3       3 UNK         0.0876 
     19 N          21.2420  -27.3272  -45.3644 N.am      3 UNK        -0.4424 
     20 C          21.6221  -26.0492  -45.2469 C.2       2 UNK         0.4918 
     21 O          22.6811  -25.6927  -44.7305 O.2       2 UNK        -0.4875 
     22 CA         20.6372  -24.9859  -45.7613 C.3       2 UNK         0.0481 
     23 CB         20.5882  -24.9876  -47.2981 C.3       2 UNK        -0.1831 
     24 N          19.2761  -25.1036  -45.2230 N.am      2 UNK        -0.4498 
     25 C          18.9524  -25.1537  -43.9230 C.2       1 UNK         0.5027 
     26 O          19.7815  -25.2475  -43.0146 O.2       1 UNK        -0.4969 
     27 C          21.7751  -28.8204  -43.4312 C.2       3 UNK         0.5005 
     28 O          22.5785  -29.5397  -42.8358 O.2       3 UNK        -0.5279 
     29 N          20.7040  -28.2775  -42.8273 N.am      4 UNK        -0.4463 
     30 CA         20.4620  -28.3527  -41.3799 C.3       4 UNK         0.0283 
     31 CB         19.0141  -27.9740  -41.0361 C.3       4 UNK        -0.1875 
     32 C          21.4460  -27.4738  -40.5961 C.2       4 UNK         0.4949 
     33 O          21.9210  -27.8965  -39.5441 O.2       4 UNK        -0.5039 
     34 N          21.7972  -26.3056  -41.1534 N.am      5 UNK        -0.4663 
     35 CA         22.8592  -25.4283  -40.6476 C.3       5 UNK         0.0242 
     36 CB         22.8310  -24.1018  -41.4228 C.3       5 UNK        -0.1982 
     37 C          24.2593  -26.0720  -40.7113 C.2       5 UNK         0.5017 
     38 O          25.1128  -25.7439  -39.8873 O.2       5 UNK        -0.5012 
     39 N          24.4530  -26.9998  -41.6597 N.am      6 UNK        -0.4439 
     40 CA         25.6393  -27.8517  -41.7863 C.3       6 UNK         0.0297 
     41 CB         25.8375  -28.2138  -43.2687 C.3       6 UNK        -0.2006 
     42 C          25.5621  -29.1292  -40.9224 C.2       6 UNK         0.4892 
     43 O          26.5340  -29.8853  -40.9005 O.2       6 UNK        -0.5089 
     44 N          24.4258  -29.3537  -40.2423 N.am      7 UNK        -0.4243 
     45 CA         24.0941  -30.4982  -39.3860 C.3       7 UNK         0.0196 
     46 CB         25.0013  -30.5326  -38.1374 C.3       7 UNK        -0.2007 
     47 C          24.0483  -31.8455  -40.1333 C.2       7 UNK         0.5020 
     48 O          24.3444  -32.8819  -39.5360 O.2       7 UNK        -0.5147 
     49 N          23.6489  -31.8312  -41.4147 N.am      8 UNK        -0.4734 
     50 CA         23.5865  -33.0227  -42.2734 C.3       8 UNK         0.0238 
     51 CB         23.3096  -32.5946  -43.7206 C.3       8 UNK        -0.1912 
     52 C          22.5448  -34.0636  -41.8244 C.2       8 UNK         0.5038 
     53 O          22.7400  -35.2544  -42.0711 O.2       8 UNK        -0.5046 
     54 N          21.4757  -33.5978  -41.1664 N.am      9 UNK        -0.4200 
     55 CA         20.4444  -34.4369  -40.5357 C.3       9 UNK         0.0839 
     56 C          20.8577  -34.9994  -39.1421 C.2       9 UNK         0.5513 
     57 N          22.0265  -34.6762  -38.5984 N.am      9 UNK        -0.7519 
     58 O          20.1013  -35.7581  -38.5413 O.2       9 UNK        -0.4960 
     59 C59        19.0699  -33.7158  -40.4737 C.3       10 UNK        -0.0876 
     60 S60        18.3982  -33.3310  -42.1281 S.3       10 UNK        -0.2414 
     61 C61        18.6705  -31.5361  -42.1994 C.3       10 UNK         0.0169 
     62 H62        19.0374  -22.3480  -43.0223 H         1 UNK         0.0903 
     63 H63        17.4286  -22.2435  -43.7623 H         1 UNK         0.0903 
     64 H64        17.8441  -21.2122  -42.4058 H         1 UNK         0.0903 
     65 H65        16.9054  -25.1738  -41.5473 H         1 UNK         0.3096 
     66 H66        16.9621  -24.4223  -44.2931 H         1 UNK         0.1121 
     67 H67        15.8713  -26.5171  -43.0806 H         1 UNK         0.0849 
     68 H68        17.4256  -27.2688  -43.3001 H         1 UNK         0.0849 
     69 H69        15.1988  -28.9385  -46.0637 H         1 UNK         0.0865 
     70 H70        15.0579  -28.7026  -44.3412 H         1 UNK         0.0865 
     71 H71        16.5753  -29.9045  -42.8931 H         1 UNK         0.1346 
     72 H72        20.0001  -31.8924  -44.5261 H         1 UNK         0.1412 
     73 H73        17.5820  -29.3892  -47.0317 H         1 UNK         0.1426 
     74 H74        19.2093  -31.0881  -47.9903 H         1 UNK         0.0716 
     75 H75        20.3532  -31.8860  -46.9411 H         1 UNK         0.0716 
     76 H76        23.0476  -29.8899  -46.2138 H         1 UNK         0.0695 
     77 H77        21.7720  -30.6147  -45.3258 H         1 UNK         0.0695 
     78 H78        23.0914  -28.1329  -44.9057 H         1 UNK         0.0983 
     79 H79        20.3735  -27.5525  -45.8291 H         1 UNK         0.3095 
     80 H80        21.0189  -24.0138  -45.4422 H         1 UNK         0.0454 
     81 H81        20.1508  -25.9061  -47.6915 H         1 UNK         0.0851 
     82 H82        21.5899  -24.8976  -47.7211 H         1 UNK         0.0851 
     83 H83        20.0043  -24.1492  -47.6778 H         1 UNK         0.0851 
     84 H84        18.5267  -25.0770  -45.9007 H         1 UNK         0.2976 
     85 H85        20.1100  -27.6624  -43.3631 H         1 UNK         0.3116 
     86 H86        20.6221  -29.3840  -41.0607 H         1 UNK         0.0646 
     87 H87        18.2993  -28.5983  -41.5672 H         1 UNK         0.0847 
     88 H88        18.7972  -26.9318  -41.2658 H         1 UNK         0.0847 
     89 H89        18.8254  -28.1103  -39.9705 H         1 UNK         0.0847 
     90 H90        21.2930  -25.9893  -41.9775 H         1 UNK         0.3040 
     91 H91        22.6455  -25.2175  -39.5973 H         1 UNK         0.1015 
     92 H92        23.5781  -23.4074  -41.0359 H         1 UNK         0.0786 
     93 H93        21.8594  -23.6140  -41.3389 H         1 UNK         0.0786 
     94 H94        23.0399  -24.2489  -42.4828 H         1 UNK         0.0786 
     95 H95        23.6878  -27.1924  -42.2897 H         1 UNK         0.3172 
     96 H96        26.5152  -27.2886  -41.4578 H         1 UNK         0.0595 
     97 H97        25.0514  -28.8743  -43.6340 H         1 UNK         0.0839 
     98 H98        26.7852  -28.7331  -43.4168 H         1 UNK         0.0839 
     99 H99        25.8549  -27.3251  -43.8999 H         1 UNK         0.0839 
    100 H100       23.6864  -28.6654  -40.3194 H         1 UNK         0.2998 
    101 H101       23.0749  -30.3239  -39.0389 H         1 UNK         0.0822 
    102 H102       24.9976  -29.5738  -37.6188 H         1 UNK         0.0787 
    103 H103       24.6599  -31.2850  -37.4253 H         1 UNK         0.0787 
    104 H104       26.0337  -30.7730  -38.3930 H         1 UNK         0.0787 
    105 H105       23.3892  -30.9445  -41.8441 H         1 UNK         0.3055 
    106 H106       24.5658  -33.5054  -42.2387 H         1 UNK         0.1106 
    107 H107       22.3103  -32.1727  -43.8139 H         1 UNK         0.0828 
    108 H108       23.3688  -33.4464  -44.3996 H         1 UNK         0.0828 
    109 H109       24.0276  -31.8501  -44.0654 H         1 UNK         0.0828 
    110 H110       21.4172  -32.6058  -40.9977 H         1 UNK         0.2931 
    111 H111       20.3075  -35.3178  -41.1661 H         1 UNK         0.0412 
    112 H112       22.6883  -34.0779  -39.0779 H         1 UNK         0.3472 
    113 H113       22.2671  -35.0601  -37.6981 H         1 UNK         0.3472 
    114 H114       18.3316  -34.3471  -39.9755 H         1 UNK         0.0970 
    115 H115       19.1371  -32.8077  -39.8720 H         1 UNK         0.0970 
    116 H116       19.7187  -31.3278  -41.9846 H         1 UNK         0.0612 
    117 H117       18.0852  -31.0541  -41.4151 H         1 UNK         0.0612 
@<TRIPOS>BOND
     1    1    2 1    
     2    1   62 1    
     3    1   63 1    
     4    1   64 1    
     5    2    3 2    
     6    2    4 am   BACKBONE|DICT|INTERRES
     7    4    5 1    
     8    4   65 1    
     9    5    6 1    
    10    5   25 1    
    11    5   66 1    
    12    6    7 1    
    13    6   67 1    
    14    6   68 1    
    15    7    8 1    
    16    8    9 1    
    17    8   69 1    
    18    8   70 1    
    19    9   10 ar   
    20    9   14 ar   
    21   10   11 ar   
    22   10   71 1    
    23   11   12 ar   
    24   11   61 1    
    25   12   13 ar   
    26   12   72 1    
    27   13   14 ar   
    28   13   15 1    
    29   14   73 1    
    30   15   16 1    
    31   15   74 1    
    32   15   75 1    
    33   16   17 1    
    34   17   18 1    
    35   17   76 1    
    36   17   77 1    
    37   18   19 1    
    38   18   27 1    
    39   18   78 1    
    40   19   20 am   BACKBONE|DICT|INTERRES
    41   19   79 1    
    42   20   21 2    
    43   20   22 1    
    44   22   23 1    
    45   22   24 1    
    46   22   80 1    
    47   23   81 1    
    48   23   82 1    
    49   23   83 1    
    50   24   25 am   BACKBONE|DICT|INTERRES
    51   24   84 1    
    52   25   26 2    
    53   27   28 2    
    54   27   29 am   BACKBONE|DICT|INTERRES
    55   29   30 1    
    56   29   85 1    
    57   30   31 1    
    58   30   32 1    
    59   30   86 1    
    60   31   87 1    
    61   31   88 1    
    62   31   89 1    
    63   32   33 2    
    64   32   34 am   BACKBONE|DICT|INTERRES
    65   34   35 1    
    66   34   90 1    
    67   35   36 1    
    68   35   37 1    
    69   35   91 1    
    70   36   92 1    
    71   36   93 1    
    72   36   94 1    
    73   37   38 2    
    74   37   39 am   BACKBONE|DICT|INTERRES
    75   39   40 1    
    76   39   95 1    
    77   40   41 1    
    78   40   42 1    
    79   40   96 1    
    80   41   97 1    
    81   41   98 1    
    82   41   99 1    
    83   42   43 2    
    84   42   44 am   BACKBONE|DICT|INTERRES
    85   44   45 1    
    86   44  100 1    
    87   45   46 1    
    88   45   47 1    
    89   45  101 1    
    90   46  102 1    
    91   46  103 1    
    92   46  104 1    
    93   47   48 2    
    94   47   49 am   BACKBONE|DICT|INTERRES
    95   49   50 1    
    96   49  105 1    
    97   50   51 1    
    98   50   52 1    
    99   50  106 1    
   100   51  107 1    
   101   51  108 1    
   102   51  109 1    
   103   52   53 2    
   104   52   54 am   BACKBONE|DICT|INTERRES
   105   54   55 1    
   106   54  110 1    
   107   55   56 1    
   108   55   59 1    
   109   55  111 1    
   110   56   57 am   BACKBONE|DICT|INTERRES
   111   56   58 2    
   112   57  112 1    
   113   57  113 1    
   114   59   60 1    
   115   59  114 1    
   116   59  115 1    
   117   60   61 1    
   118   61  116 1    
   119   61  117 1    
@<TRIPOS>SUBSTRUCTURE
     1 UNK         1 GROUP             0       ****    0 ROOT    
