@<TRIPOS>MOLECULE
3R8
117   119    1
SMALL
USER_CHARGES


@<TRIPOS>ATOM
      1 CA         15.5045  -23.6996  -46.1655 C.3       0 UNK        -0.2013 
      2 C          16.2107  -25.0092  -45.8504 C.2       0 UNK         0.4866 
      3 O          17.4002  -25.0045  -45.5337 O.2       0 UNK        -0.5176 
      4 N          15.4880  -26.1348  -45.9198 N.am      1 UNK        -0.4884 
      5 CA         15.9831  -27.4910  -45.6495 C.3       1 UNK         0.0853 
      6 C6         15.1421  -28.5314  -46.4351 C.3       10 UNK        -0.0849 
      7 S7         15.8132  -30.2292  -46.4788 S.3       10 UNK        -0.2776 
      8 C8         17.4103  -30.0273  -47.3387 C.3       10 UNK         0.0316 
      9 C9         18.5769  -29.8002  -46.3808 C.ar      10 UNK        -0.0863 
     10 C10        18.7793  -30.6598  -45.2960 C.ar      10 UNK        -0.1009 
     11 C11        19.8735  -30.4909  -44.4442 C.ar      10 UNK        -0.0712 
     12 C12        20.7864  -29.4629  -44.6924 C.ar      10 UNK        -0.0894 
     13 C13        20.5883  -28.5841  -45.7615 C.ar      10 UNK        -0.0745 
     14 C14        19.4835  -28.7581  -46.6025 C.ar      10 UNK        -0.0972 
     15 C15        21.5789  -27.4608  -46.0280 C.3       10 UNK         0.0209 
     16 S16        21.0844  -25.9131  -45.2063 S.3       10 UNK        -0.2568 
     17 C17        21.7477  -26.1596  -43.5256 C.3       10 UNK        -0.0983 
     18 CA         20.7849  -25.6674  -42.4183 C.3       3 UNK         0.0876 
     19 N          19.5226  -26.4120  -42.4412 N.am      3 UNK        -0.4424 
     20 C          18.4088  -26.0575  -41.7901 C.2       2 UNK         0.4918 
     21 O          18.3094  -25.0415  -41.0992 O.2       2 UNK        -0.4875 
     22 CA         17.1881  -26.9581  -42.0235 C.3       2 UNK         0.0481 
     23 CB         15.9536  -26.5131  -41.2094 C.3       2 UNK        -0.1831 
     24 N          16.9052  -26.9482  -43.4558 N.am      2 UNK        -0.4498 
     25 C          16.0743  -27.7519  -44.1265 C.2       1 UNK         0.5027 
     26 O          15.3822  -28.6199  -43.5914 O.2       1 UNK        -0.4969 
     27 C          21.4743  -25.7247  -41.0362 C.2       3 UNK         0.5005 
     28 O          21.1418  -26.5676  -40.1988 O.2       3 UNK        -0.5279 
     29 N          22.4581  -24.8374  -40.8342 N.am      4 UNK        -0.4463 
     30 CA         23.2879  -24.7760  -39.6257 C.3       4 UNK         0.0283 
     31 CB         23.9901  -23.4091  -39.5693 C.3       4 UNK        -0.1875 
     32 C          24.3239  -25.9132  -39.5213 C.2       4 UNK         0.4949 
     33 O          24.8458  -26.1464  -38.4307 O.2       4 UNK        -0.5039 
     34 N          24.6071  -26.5981  -40.6349 N.am      5 UNK        -0.4663 
     35 CA         25.5465  -27.7113  -40.7432 C.3       5 UNK         0.0242 
     36 CB         26.9823  -27.1598  -40.8691 C.3       5 UNK        -0.1982 
     37 C          25.1597  -28.5849  -41.9477 C.2       5 UNK         0.5017 
     38 O          24.2052  -28.2534  -42.6545 O.2       5 UNK        -0.5012 
     39 N          25.9429  -29.6515  -42.1640 N.am      6 UNK        -0.4439 
     40 CA         25.8539  -30.6728  -43.2168 C.3       6 UNK         0.0297 
     41 CB         25.7017  -30.0639  -44.6263 C.3       6 UNK        -0.2006 
     42 C          24.7679  -31.7251  -42.9420 C.2       6 UNK         0.4892 
     43 O          23.6685  -31.3922  -42.4966 O.2       6 UNK        -0.5089 
     44 N          25.1094  -32.9882  -43.2393 N.am      7 UNK        -0.4243 
     45 CA         24.2978  -34.1947  -43.0416 C.3       7 UNK         0.0196 
     46 CB         23.1482  -34.2461  -44.0751 C.3       7 UNK        -0.2007 
     47 C          23.8503  -34.3413  -41.5726 C.2       7 UNK         0.5020 
     48 O          24.6993  -34.2976  -40.6809 O.2       7 UNK        -0.5147 
     49 N          22.5428  -34.5048  -41.3411 N.am      8 UNK        -0.4734 
     50 CA         21.9350  -34.5647  -40.0087 C.3       8 UNK         0.0238 
     51 CB         20.6422  -35.3945  -40.0984 C.3       8 UNK        -0.1912 
     52 C          21.6409  -33.1755  -39.4080 C.2       8 UNK         0.5038 
     53 O          21.2557  -33.1071  -38.2394 O.2       8 UNK        -0.5046 
     54 N          21.7838  -32.1101  -40.2061 N.am      9 UNK        -0.4200 
     55 CA         21.4873  -30.7219  -39.8282 C.3       9 UNK         0.0839 
     56 C          22.7034  -30.0231  -39.1536 C.2       9 UNK         0.5513 
     57 N          22.5923  -28.7429  -38.8302 N.am      9 UNK        -0.7519 
     58 O          23.7450  -30.6227  -38.8931 O.2       9 UNK        -0.4960 
     59 C59        20.9093  -29.9237  -41.0288 C.3       10 UNK        -0.0876 
     60 S60        19.4128  -30.7023  -41.7307 S.3       10 UNK        -0.2414 
     61 C61        20.0659  -31.4288  -43.2642 C.3       10 UNK         0.0169 
     62 H62        14.4589  -23.8528  -46.4317 H         1 UNK         0.0903 
     63 H63        15.5415  -23.0368  -45.3014 H         1 UNK         0.0903 
     64 H64        15.9971  -23.2001  -46.9993 H         1 UNK         0.0903 
     65 H65        14.5055  -26.0704  -46.1479 H         1 UNK         0.3096 
     66 H66        17.0039  -27.5415  -46.0295 H         1 UNK         0.1121 
     67 H67        14.1279  -28.5783  -46.0339 H         1 UNK         0.0849 
     68 H68        15.0319  -28.2064  -47.4711 H         1 UNK         0.0849 
     69 H69        17.6117  -30.9355  -47.9084 H         1 UNK         0.0865 
     70 H70        17.3339  -29.2216  -48.0706 H         1 UNK         0.0865 
     71 H71        18.0820  -31.4665  -45.1151 H         1 UNK         0.1346 
     72 H72        21.6511  -29.3495  -44.0535 H         1 UNK         0.1412 
     73 H73        19.3405  -28.0865  -47.4383 H         1 UNK         0.1426 
     74 H74        21.6457  -27.2787  -47.1016 H         1 UNK         0.0716 
     75 H75        22.5825  -27.7473  -45.7083 H         1 UNK         0.0716 
     76 H76        22.7044  -25.6362  -43.4827 H         1 UNK         0.0695 
     77 H77        21.9738  -27.2134  -43.3718 H         1 UNK         0.0695 
     78 H78        20.5461  -24.6191  -42.6121 H         1 UNK         0.0983 
     79 H79        19.5154  -27.2538  -42.9982 H         1 UNK         0.3095 
     80 H80        17.4622  -27.9723  -41.7257 H         1 UNK         0.0454 
     81 H81        16.1851  -26.4680  -40.1445 H         1 UNK         0.0851 
     82 H82        15.6082  -25.5239  -41.5120 H         1 UNK         0.0851 
     83 H83        15.1217  -27.2074  -41.3239 H         1 UNK         0.0851 
     84 H84        17.3866  -26.2310  -43.9951 H         1 UNK         0.2976 
     85 H85        22.6769  -24.1734  -41.5638 H         1 UNK         0.3116 
     86 H86        22.6315  -24.8558  -38.7563 H         1 UNK         0.0646 
     87 H87        24.5878  -23.3147  -38.6615 H         1 UNK         0.0847 
     88 H88        23.2697  -22.5909  -39.5649 H         1 UNK         0.0847 
     89 H89        24.6618  -23.2637  -40.4162 H         1 UNK         0.0847 
     90 H90        24.0800  -26.4199  -41.4799 H         1 UNK         0.3040 
     91 H91        25.4681  -28.3325  -39.8480 H         1 UNK         0.1015 
     92 H92        27.2404  -26.5246  -40.0214 H         1 UNK         0.0786 
     93 H93        27.1046  -26.5679  -41.7771 H         1 UNK         0.0786 
     94 H94        27.7210  -27.9611  -40.8982 H         1 UNK         0.0786 
     95 H95        26.6758  -29.8195  -41.4891 H         1 UNK         0.3172 
     96 H96        26.8193  -31.1809  -43.1900 H         1 UNK         0.0595 
     97 H97        26.4475  -29.2909  -44.8111 H         1 UNK         0.0839 
     98 H98        24.7150  -29.6246  -44.7774 H         1 UNK         0.0839 
     99 H99        25.8285  -30.8284  -45.3936 H         1 UNK         0.0839 
    100 H100       26.0461  -33.1543  -43.5802 H         1 UNK         0.2998 
    101 H101       24.9539  -35.0439  -43.2389 H         1 UNK         0.0822 
    102 H102       23.5387  -34.1884  -45.0912 H         1 UNK         0.0787 
    103 H103       22.5907  -35.1811  -44.0063 H         1 UNK         0.0787 
    104 H104       22.4444  -33.4236  -43.9526 H         1 UNK         0.0787 
    105 H105       21.9136  -34.5306  -42.1307 H         1 UNK         0.3055 
    106 H106       22.6190  -35.0718  -39.3240 H         1 UNK         0.1106 
    107 H107       19.9067  -34.9270  -40.7543 H         1 UNK         0.0828 
    108 H108       20.8393  -36.3987  -40.4739 H         1 UNK         0.0828 
    109 H109       20.1786  -35.5045  -39.1170 H         1 UNK         0.0828 
    110 H110       22.2139  -32.2276  -41.1148 H         1 UNK         0.2931 
    111 H111       20.7089  -30.7448  -39.0631 H         1 UNK         0.0412 
    112 H112       23.3701  -28.2905  -38.3762 H         1 UNK         0.3472 
    113 H113       21.7965  -28.1843  -39.1173 H         1 UNK         0.3472 
    114 H114       21.6694  -29.7755  -41.7964 H         1 UNK         0.0970 
    115 H115       20.6068  -28.9291  -40.7103 H         1 UNK         0.0970 
    116 H116       21.1198  -31.6758  -43.1458 H         1 UNK         0.0612 
    117 H117       19.5525  -32.3739  -43.4470 H         1 UNK         0.0612 
@<TRIPOS>BOND
     1    1    2 1    
     2    1   62 1    
     3    1   63 1    
     4    1   64 1    
     5    2    3 2    
     6    2    4 am   BACKBONE|DICT|INTERRES
     7    4    5 1    
     8    4   65 1    
     9    5    6 1    
    10    5   25 1    
    11    5   66 1    
    12    6    7 1    
    13    6   67 1    
    14    6   68 1    
    15    7    8 1    
    16    8    9 1    
    17    8   69 1    
    18    8   70 1    
    19    9   10 ar   
    20    9   14 ar   
    21   10   11 ar   
    22   10   71 1    
    23   11   12 ar   
    24   11   61 1    
    25   12   13 ar   
    26   12   72 1    
    27   13   14 ar   
    28   13   15 1    
    29   14   73 1    
    30   15   16 1    
    31   15   74 1    
    32   15   75 1    
    33   16   17 1    
    34   17   18 1    
    35   17   76 1    
    36   17   77 1    
    37   18   19 1    
    38   18   27 1    
    39   18   78 1    
    40   19   20 am   BACKBONE|DICT|INTERRES
    41   19   79 1    
    42   20   21 2    
    43   20   22 1    
    44   22   23 1    
    45   22   24 1    
    46   22   80 1    
    47   23   81 1    
    48   23   82 1    
    49   23   83 1    
    50   24   25 am   BACKBONE|DICT|INTERRES
    51   24   84 1    
    52   25   26 2    
    53   27   28 2    
    54   27   29 am   BACKBONE|DICT|INTERRES
    55   29   30 1    
    56   29   85 1    
    57   30   31 1    
    58   30   32 1    
    59   30   86 1    
    60   31   87 1    
    61   31   88 1    
    62   31   89 1    
    63   32   33 2    
    64   32   34 am   BACKBONE|DICT|INTERRES
    65   34   35 1    
    66   34   90 1    
    67   35   36 1    
    68   35   37 1    
    69   35   91 1    
    70   36   92 1    
    71   36   93 1    
    72   36   94 1    
    73   37   38 2    
    74   37   39 am   BACKBONE|DICT|INTERRES
    75   39   40 1    
    76   39   95 1    
    77   40   41 1    
    78   40   42 1    
    79   40   96 1    
    80   41   97 1    
    81   41   98 1    
    82   41   99 1    
    83   42   43 2    
    84   42   44 am   BACKBONE|DICT|INTERRES
    85   44   45 1    
    86   44  100 1    
    87   45   46 1    
    88   45   47 1    
    89   45  101 1    
    90   46  102 1    
    91   46  103 1    
    92   46  104 1    
    93   47   48 2    
    94   47   49 am   BACKBONE|DICT|INTERRES
    95   49   50 1    
    96   49  105 1    
    97   50   51 1    
    98   50   52 1    
    99   50  106 1    
   100   51  107 1    
   101   51  108 1    
   102   51  109 1    
   103   52   53 2    
   104   52   54 am   BACKBONE|DICT|INTERRES
   105   54   55 1    
   106   54  110 1    
   107   55   56 1    
   108   55   59 1    
   109   55  111 1    
   110   56   57 am   BACKBONE|DICT|INTERRES
   111   56   58 2    
   112   57  112 1    
   113   57  113 1    
   114   59   60 1    
   115   59  114 1    
   116   59  115 1    
   117   60   61 1    
   118   61  116 1    
   119   61  117 1    
@<TRIPOS>SUBSTRUCTURE
     1 UNK         1 GROUP             0       ****    0 ROOT    
