@<TRIPOS>MOLECULE
3R8
117   119    1
SMALL
USER_CHARGES


@<TRIPOS>ATOM
      1 CA         23.2106  -25.3520  -47.5641 C.3       0 UNK        -0.2013 
      2 C          22.1761  -26.0774  -48.4231 C.2       0 UNK         0.4866 
      3 O          22.0907  -25.8051  -49.6190 O.2       0 UNK        -0.5176 
      4 N          21.3823  -27.0108  -47.8797 N.am      1 UNK        -0.4884 
      5 CA         21.2834  -27.3814  -46.4648 C.3       1 UNK         0.0853 
      6 C6         20.5635  -28.7448  -46.2658 C.3       10 UNK        -0.0849 
      7 S7         18.9771  -28.9181  -47.1577 S.3       10 UNK        -0.2776 
      8 C8         18.3321  -30.4804  -46.4713 C.3       10 UNK         0.0316 
      9 C9         17.8719  -30.3446  -45.0243 C.ar      10 UNK        -0.0863 
     10 C10        18.4638  -31.1127  -44.0167 C.ar      10 UNK        -0.1009 
     11 C11        18.0359  -31.0012  -42.6882 C.ar      10 UNK        -0.0712 
     12 C12        16.9960  -30.1204  -42.3758 C.ar      10 UNK        -0.0894 
     13 C13        16.4075  -29.3351  -43.3709 C.ar      10 UNK        -0.0745 
     14 C14        16.8410  -29.4602  -44.6936 C.ar      10 UNK        -0.0972 
     15 C15        15.3181  -28.3336  -43.0203 C.3       10 UNK         0.0209 
     16 S16        15.9960  -26.6518  -42.8405 S.3       10 UNK        -0.2568 
     17 C17        16.8080  -26.7335  -41.2065 C.3       10 UNK        -0.0983 
     18 CA         18.3365  -26.9824  -41.2878 C.3       3 UNK         0.0876 
     19 N          19.0136  -25.9953  -42.1372 N.am      3 UNK        -0.4424 
     20 C          20.3307  -25.8700  -42.3416 C.2       2 UNK         0.4918 
     21 O          21.2058  -26.4739  -41.7154 O.2       2 UNK        -0.4875 
     22 CA         20.7487  -24.9783  -43.5119 C.3       2 UNK         0.0481 
     23 CB         21.8358  -23.9738  -43.0973 C.3       2 UNK        -0.1831 
     24 N          21.2787  -25.8768  -44.5323 N.am      2 UNK        -0.4498 
     25 C          20.6291  -26.2527  -45.6392 C.2       1 UNK         0.5027 
     26 O          19.5663  -25.7528  -46.0146 O.2       1 UNK        -0.4969 
     27 C          18.9489  -27.1048  -39.8763 C.2       3 UNK         0.5005 
     28 O          18.7351  -26.2258  -39.0393 O.2       3 UNK        -0.5279 
     29 N          19.7207  -28.1835  -39.6667 N.am      4 UNK        -0.4463 
     30 CA         20.4572  -28.5488  -38.4475 C.3       4 UNK         0.0283 
     31 CB         19.4869  -28.8052  -37.2750 C.3       4 UNK        -0.1875 
     32 C          21.6000  -27.5845  -38.0568 C.2       4 UNK         0.4949 
     33 O          22.1441  -27.7200  -36.9600 O.2       4 UNK        -0.5039 
     34 N          21.9664  -26.6549  -38.9480 N.am      5 UNK        -0.4663 
     35 CA         23.0616  -25.6986  -38.7690 C.3       5 UNK         0.0242 
     36 CB         22.5555  -24.2830  -39.0916 C.3       5 UNK        -0.1982 
     37 C          24.2596  -26.0592  -39.6586 C.2       5 UNK         0.5017 
     38 O          25.3992  -25.9753  -39.2000 O.2       5 UNK        -0.5012 
     39 N          23.9827  -26.4695  -40.9014 N.am      6 UNK        -0.4439 
     40 CA         24.9543  -26.9161  -41.8936 C.3       6 UNK         0.0297 
     41 CB         25.6740  -25.7148  -42.5396 C.3       6 UNK        -0.2006 
     42 C          24.1706  -27.7495  -42.9070 C.2       6 UNK         0.4892 
     43 O          23.6732  -27.2063  -43.8956 O.2       6 UNK        -0.5089 
     44 N          23.9904  -29.0344  -42.5927 N.am      7 UNK        -0.4243 
     45 CA         23.1256  -29.9511  -43.3241 C.3       7 UNK         0.0196 
     46 CB         21.6856  -29.7892  -42.8127 C.3       7 UNK        -0.2007 
     47 C          23.6109  -31.3926  -43.1427 C.2       7 UNK         0.5020 
     48 O          24.3729  -31.6797  -42.2167 O.2       7 UNK        -0.5147 
     49 N          23.1302  -32.2787  -44.0229 N.am      8 UNK        -0.4734 
     50 CA         23.4937  -33.6988  -44.0819 C.3       8 UNK         0.0238 
     51 CB         23.0587  -34.2595  -45.4471 C.3       8 UNK        -0.1912 
     52 C          22.9244  -34.5655  -42.9418 C.2       8 UNK         0.5038 
     53 O          23.3550  -35.7115  -42.8037 O.2       8 UNK        -0.5046 
     54 N          21.9710  -34.0331  -42.1639 N.am      9 UNK        -0.4200 
     55 CA         21.3211  -34.7314  -41.0396 C.3       9 UNK         0.0839 
     56 C          22.2553  -35.0304  -39.8294 C.2       9 UNK         0.5513 
     57 N          23.4097  -34.3852  -39.7054 N.am      9 UNK        -0.7519 
     58 O          21.9217  -35.8614  -38.9887 O.2       9 UNK        -0.4960 
     59 C59        20.0301  -34.0187  -40.5511 C.3       10 UNK        -0.0876 
     60 S60        18.8774  -33.5551  -41.8918 S.3       10 UNK        -0.2414 
     61 C61        18.7365  -31.7683  -41.5733 C.3       10 UNK         0.0169 
     62 H62        23.7939  -26.0458  -46.9597 H         1 UNK         0.0903 
     63 H63        23.9114  -24.8072  -48.1964 H         1 UNK         0.0903 
     64 H64        22.7299  -24.6282  -46.9068 H         1 UNK         0.0903 
     65 H65        20.6886  -27.4532  -48.4668 H         1 UNK         0.3096 
     66 H66        22.2994  -27.5212  -46.0931 H         1 UNK         0.1121 
     67 H67        21.2191  -29.5491  -46.6033 H         1 UNK         0.0849 
     68 H68        20.3888  -28.9322  -45.2061 H         1 UNK         0.0849 
     69 H69        17.4850  -30.8048  -47.0772 H         1 UNK         0.0865 
     70 H70        19.0920  -31.2570  -46.5716 H         1 UNK         0.0865 
     71 H71        19.2643  -31.7962  -44.2634 H         1 UNK         0.1346 
     72 H72        16.6650  -30.0193  -41.3512 H         1 UNK         0.1412 
     73 H73        16.3878  -28.8538  -45.4663 H         1 UNK         0.1426 
     74 H74        14.7955  -28.6262  -42.1083 H         1 UNK         0.0716 
     75 H75        14.5655  -28.3251  -43.8102 H         1 UNK         0.0716 
     76 H76        16.3238  -27.5064  -40.6068 H         1 UNK         0.0695 
     77 H77        16.6064  -25.7898  -40.6958 H         1 UNK         0.0695 
     78 H78        18.4843  -27.9374  -41.7923 H         1 UNK         0.0983 
     79 H79        18.3914  -25.4550  -42.7210 H         1 UNK         0.3095 
     80 H80        19.8863  -24.4206  -43.8827 H         1 UNK         0.0454 
     81 H81        22.7119  -24.4680  -42.6787 H         1 UNK         0.0851 
     82 H82        21.4582  -23.2820  -42.3439 H         1 UNK         0.0851 
     83 H83        22.1663  -23.3778  -43.9479 H         1 UNK         0.0851 
     84 H84        22.1440  -26.3568  -44.2807 H         1 UNK         0.2976 
     85 H85        19.8674  -28.8059  -40.4481 H         1 UNK         0.3116 
     86 H86        20.9453  -29.4976  -38.6753 H         1 UNK         0.0646 
     87 H87        19.0065  -27.8862  -36.9380 H         1 UNK         0.0847 
     88 H88        20.0105  -29.2282  -36.4169 H         1 UNK         0.0847 
     89 H89        18.7046  -29.5112  -37.5530 H         1 UNK         0.0847 
     90 H90        21.4826  -26.6290  -39.8407 H         1 UNK         0.3040 
     91 H91        23.4084  -25.7040  -37.7332 H         1 UNK         0.1015 
     92 H92        22.1816  -24.2081  -40.1124 H         1 UNK         0.0786 
     93 H93        23.3527  -23.5470  -38.9788 H         1 UNK         0.0786 
     94 H94        21.7475  -23.9923  -38.4199 H         1 UNK         0.0786 
     95 H95        23.0100  -26.5214  -41.1985 H         1 UNK         0.3172 
     96 H96        25.6974  -27.5571  -41.4144 H         1 UNK         0.0595 
     97 H97        24.9759  -25.0239  -43.0119 H         1 UNK         0.0839 
     98 H98        26.3693  -26.0499  -43.3100 H         1 UNK         0.0839 
     99 H99        26.2517  -25.1541  -41.8049 H         1 UNK         0.0839 
    100 H100       24.4598  -29.4388  -41.7919 H         1 UNK         0.2998 
    101 H101       23.1666  -29.7166  -44.3903 H         1 UNK         0.0822 
    102 H102       21.3028  -28.7888  -43.0088 H         1 UNK         0.0787 
    103 H103       21.0178  -30.4919  -43.3053 H         1 UNK         0.0787 
    104 H104       21.6251  -29.9636  -41.7382 H         1 UNK         0.0787 
    105 H105       22.5003  -31.9530  -44.7421 H         1 UNK         0.3055 
    106 H106       24.5818  -33.7703  -44.0145 H         1 UNK         0.1106 
    107 H107       23.3506  -35.3056  -45.5528 H         1 UNK         0.0828 
    108 H108       21.9770  -34.2097  -45.5784 H         1 UNK         0.0828 
    109 H109       23.5241  -33.7143  -46.2685 H         1 UNK         0.0828 
    110 H110       21.6652  -33.0911  -42.3487 H         1 UNK         0.2931 
    111 H111       21.0140  -35.7054  -41.4261 H         1 UNK         0.0412 
    112 H112       24.0074  -34.5877  -38.9195 H         1 UNK         0.3472 
    113 H113       23.6915  -33.7018  -40.3921 H         1 UNK         0.3472 
    114 H114       19.4856  -34.6681  -39.8627 H         1 UNK         0.0970 
    115 H115       20.2911  -33.1322  -39.9698 H         1 UNK         0.0970 
    116 H116       18.2153  -31.6313  -40.6243 H         1 UNK         0.0612 
    117 H117       19.7319  -31.3490  -41.4384 H         1 UNK         0.0612 
@<TRIPOS>BOND
     1    1    2 1    
     2    1   62 1    
     3    1   63 1    
     4    1   64 1    
     5    2    3 2    
     6    2    4 am   BACKBONE|DICT|INTERRES
     7    4    5 1    
     8    4   65 1    
     9    5    6 1    
    10    5   25 1    
    11    5   66 1    
    12    6    7 1    
    13    6   67 1    
    14    6   68 1    
    15    7    8 1    
    16    8    9 1    
    17    8   69 1    
    18    8   70 1    
    19    9   10 ar   
    20    9   14 ar   
    21   10   11 ar   
    22   10   71 1    
    23   11   12 ar   
    24   11   61 1    
    25   12   13 ar   
    26   12   72 1    
    27   13   14 ar   
    28   13   15 1    
    29   14   73 1    
    30   15   16 1    
    31   15   74 1    
    32   15   75 1    
    33   16   17 1    
    34   17   18 1    
    35   17   76 1    
    36   17   77 1    
    37   18   19 1    
    38   18   27 1    
    39   18   78 1    
    40   19   20 am   BACKBONE|DICT|INTERRES
    41   19   79 1    
    42   20   21 2    
    43   20   22 1    
    44   22   23 1    
    45   22   24 1    
    46   22   80 1    
    47   23   81 1    
    48   23   82 1    
    49   23   83 1    
    50   24   25 am   BACKBONE|DICT|INTERRES
    51   24   84 1    
    52   25   26 2    
    53   27   28 2    
    54   27   29 am   BACKBONE|DICT|INTERRES
    55   29   30 1    
    56   29   85 1    
    57   30   31 1    
    58   30   32 1    
    59   30   86 1    
    60   31   87 1    
    61   31   88 1    
    62   31   89 1    
    63   32   33 2    
    64   32   34 am   BACKBONE|DICT|INTERRES
    65   34   35 1    
    66   34   90 1    
    67   35   36 1    
    68   35   37 1    
    69   35   91 1    
    70   36   92 1    
    71   36   93 1    
    72   36   94 1    
    73   37   38 2    
    74   37   39 am   BACKBONE|DICT|INTERRES
    75   39   40 1    
    76   39   95 1    
    77   40   41 1    
    78   40   42 1    
    79   40   96 1    
    80   41   97 1    
    81   41   98 1    
    82   41   99 1    
    83   42   43 2    
    84   42   44 am   BACKBONE|DICT|INTERRES
    85   44   45 1    
    86   44  100 1    
    87   45   46 1    
    88   45   47 1    
    89   45  101 1    
    90   46  102 1    
    91   46  103 1    
    92   46  104 1    
    93   47   48 2    
    94   47   49 am   BACKBONE|DICT|INTERRES
    95   49   50 1    
    96   49  105 1    
    97   50   51 1    
    98   50   52 1    
    99   50  106 1    
   100   51  107 1    
   101   51  108 1    
   102   51  109 1    
   103   52   53 2    
   104   52   54 am   BACKBONE|DICT|INTERRES
   105   54   55 1    
   106   54  110 1    
   107   55   56 1    
   108   55   59 1    
   109   55  111 1    
   110   56   57 am   BACKBONE|DICT|INTERRES
   111   56   58 2    
   112   57  112 1    
   113   57  113 1    
   114   59   60 1    
   115   59  114 1    
   116   59  115 1    
   117   60   61 1    
   118   61  116 1    
   119   61  117 1    
@<TRIPOS>SUBSTRUCTURE
     1 UNK         1 GROUP             0       ****    0 ROOT    
