@<TRIPOS>MOLECULE
3R8
117   119    1
SMALL
USER_CHARGES


@<TRIPOS>ATOM
      1 CA         16.1268  -23.4045  -42.7878 C.3       0 UNK        -0.2013 
      2 C          16.6742  -24.7944  -43.0739 C.2       0 UNK         0.4866 
      3 O          17.4328  -24.9700  -44.0279 O.2       0 UNK        -0.5176 
      4 N          16.3018  -25.7849  -42.2533 N.am      1 UNK        -0.4884 
      5 CA         16.7237  -27.1867  -42.3627 C.3       1 UNK         0.0853 
      6 C6         15.7204  -28.1414  -41.6673 C.3       10 UNK        -0.0849 
      7 S7         14.1876  -28.2826  -42.6455 S.3       10 UNK        -0.2776 
      8 C8         14.4192  -29.8971  -43.4655 C.3       10 UNK         0.0316 
      9 C9         15.7343  -29.9905  -44.2327 C.ar      10 UNK        -0.0863 
     10 C10        16.7618  -30.8192  -43.7670 C.ar      10 UNK        -0.1009 
     11 C11        17.9622  -30.9251  -44.4743 C.ar      10 UNK        -0.0712 
     12 C12        18.1282  -30.2026  -45.6571 C.ar      10 UNK        -0.0894 
     13 C13        17.1290  -29.3407  -46.1145 C.ar      10 UNK        -0.0745 
     14 C14        15.9262  -29.2499  -45.4048 C.ar      10 UNK        -0.0972 
     15 C15        17.3466  -28.5148  -47.3750 C.3       10 UNK         0.0209 
     16 S16        18.3734  -27.0396  -47.0586 S.3       10 UNK        -0.2568 
     17 C17        20.0661  -27.6795  -47.3184 C.3       10 UNK        -0.0983 
     18 CA         21.1035  -27.1573  -46.2901 C.3       3 UNK         0.0876 
     19 N          20.6689  -27.3365  -44.8965 N.am      3 UNK        -0.4424 
     20 C          21.2323  -26.7367  -43.8355 C.2       2 UNK         0.4918 
     21 O          22.2093  -25.9909  -43.9144 O.2       2 UNK        -0.4875 
     22 CA         20.5611  -26.9831  -42.4755 C.3       2 UNK         0.0481 
     23 CB         21.0698  -26.0388  -41.3672 C.3       2 UNK        -0.1831 
     24 N          19.1176  -26.8519  -42.6434 N.am      2 UNK        -0.4498 
     25 C          18.1692  -27.3745  -41.8624 C.2       1 UNK         0.5027 
     26 O          18.3919  -27.9566  -40.8010 O.2       1 UNK        -0.4969 
     27 C          22.4891  -27.7818  -46.5724 C.2       3 UNK         0.5005 
     28 O          23.1449  -27.3912  -47.5400 O.2       3 UNK        -0.5279 
     29 N          22.9058  -28.7328  -45.7300 N.am      4 UNK        -0.4463 
     30 CA         24.2108  -29.3804  -45.7250 C.3       4 UNK         0.0283 
     31 CB         24.1026  -30.7355  -46.4458 C.3       4 UNK        -0.1875 
     32 C          24.6425  -29.5634  -44.2650 C.2       4 UNK         0.4949 
     33 O          23.8264  -29.3816  -43.3585 O.2       4 UNK        -0.5039 
     34 N          25.9175  -29.9187  -44.0586 N.am      5 UNK        -0.4663 
     35 CA         26.5681  -30.3109  -42.7934 C.3       5 UNK         0.0242 
     36 CB         25.9265  -31.6013  -42.2433 C.3       5 UNK        -0.1982 
     37 C          26.6391  -29.2422  -41.6821 C.2       5 UNK         0.5017 
     38 O          27.4081  -29.4265  -40.7384 O.2       5 UNK        -0.5012 
     39 N          25.8285  -28.1801  -41.7743 N.am      6 UNK        -0.4439 
     40 CA         25.6112  -27.0780  -40.8263 C.3       6 UNK         0.0297 
     41 CB         26.9123  -26.3155  -40.5107 C.3       6 UNK        -0.2006 
     42 C          24.8816  -27.5032  -39.5394 C.2       6 UNK         0.4892 
     43 O          23.9803  -26.7900  -39.0984 O.2       6 UNK        -0.5089 
     44 N          25.2322  -28.6700  -38.9836 N.am      7 UNK        -0.4243 
     45 CA         24.6310  -29.2963  -37.8013 C.3       7 UNK         0.0196 
     46 CB         25.6372  -30.3058  -37.2177 C.3       7 UNK        -0.2007 
     47 C          23.2522  -29.9326  -38.0869 C.2       7 UNK         0.5020 
     48 O          23.0118  -31.0810  -37.7122 O.2       7 UNK        -0.5147 
     49 N          22.3760  -29.1767  -38.7620 N.am      8 UNK        -0.4734 
     50 CA         20.9784  -29.4776  -39.1076 C.3       8 UNK         0.0238 
     51 CB         20.1167  -29.5478  -37.8293 C.3       8 UNK        -0.1912 
     52 C          20.7526  -30.7032  -40.0203 C.2       8 UNK         0.5038 
     53 O          19.6029  -31.1194  -40.1712 O.2       8 UNK        -0.5046 
     54 N          21.8303  -31.2470  -40.6103 N.am      9 UNK        -0.4200 
     55 CA         21.8684  -32.4186  -41.5105 C.3       9 UNK         0.0839 
     56 C          21.0626  -33.6727  -41.0483 C.2       9 UNK         0.5513 
     57 N          20.9948  -33.9449  -39.7505 N.am      9 UNK        -0.7519 
     58 O          20.5277  -34.4254  -41.8586 O.2       9 UNK        -0.4960 
     59 C59        21.7409  -32.0667  -43.0276 C.3       10 UNK        -0.0876 
     60 S60        20.5167  -30.7893  -43.4756 S.3       10 UNK        -0.2414 
     61 C61        19.0936  -31.8056  -43.9676 C.3       10 UNK         0.0169 
     62 H62        16.9457  -22.7111  -42.5983 H         1 UNK         0.0903 
     63 H63        15.5635  -23.0402  -43.6465 H         1 UNK         0.0903 
     64 H64        15.4666  -23.3958  -41.9207 H         1 UNK         0.0903 
     65 H65        15.6864  -25.5785  -41.4792 H         1 UNK         0.3096 
     66 H66        16.7469  -27.4490  -43.4226 H         1 UNK         0.1121 
     67 H67        16.1436  -29.1385  -41.5322 H         1 UNK         0.0849 
     68 H68        15.4766  -27.7866  -40.6644 H         1 UNK         0.0849 
     69 H69        14.3536  -30.6869  -42.7154 H         1 UNK         0.0865 
     70 H70        13.5897  -30.0659  -44.1537 H         1 UNK         0.0865 
     71 H71        16.6298  -31.3813  -42.8524 H         1 UNK         0.1346 
     72 H72        19.0532  -30.3052  -46.2036 H         1 UNK         0.1412 
     73 H73        15.1408  -28.5940  -45.7557 H         1 UNK         0.1426 
     74 H74        17.7988  -29.1279  -48.1561 H         1 UNK         0.0716 
     75 H75        16.3859  -28.1846  -47.7729 H         1 UNK         0.0716 
     76 H76        20.3666  -27.3866  -48.3263 H         1 UNK         0.0695 
     77 H77        20.0546  -28.7681  -47.3272 H         1 UNK         0.0695 
     78 H78        21.2118  -26.0824  -46.4518 H         1 UNK         0.0983 
     79 H79        19.8643  -27.9305  -44.7541 H         1 UNK         0.3095 
     80 H80        20.7910  -28.0111  -42.1891 H         1 UNK         0.0454 
     81 H81        20.5914  -26.2439  -40.4101 H         1 UNK         0.0851 
     82 H82        20.8829  -24.9936  -41.6158 H         1 UNK         0.0851 
     83 H83        22.1444  -26.1535  -41.2196 H         1 UNK         0.0851 
     84 H84        18.8087  -26.3014  -43.4417 H         1 UNK         0.2976 
     85 H85        22.3432  -28.9390  -44.9129 H         1 UNK         0.3116 
     86 H86        24.9482  -28.7489  -46.2250 H         1 UNK         0.0646 
     87 H87        23.7806  -30.6078  -47.4794 H         1 UNK         0.0847 
     88 H88        25.0634  -31.2509  -46.4696 H         1 UNK         0.0847 
     89 H89        23.3883  -31.3972  -45.9539 H         1 UNK         0.0847 
     90 H90        26.5140  -29.9860  -44.8728 H         1 UNK         0.3040 
     91 H91        27.6039  -30.5402  -43.0500 H         1 UNK         0.1015 
     92 H92        24.8994  -31.4344  -41.9192 H         1 UNK         0.0786 
     93 H93        26.4794  -31.9782  -41.3816 H         1 UNK         0.0786 
     94 H94        25.9185  -32.3931  -42.9924 H         1 UNK         0.0786 
     95 H95        25.1476  -28.2340  -42.5262 H         1 UNK         0.3172 
     96 H96        24.9465  -26.3840  -41.3436 H         1 UNK         0.0595 
     97 H97        27.6226  -26.9252  -39.9518 H         1 UNK         0.0839 
     98 H98        26.7045  -25.4310  -39.9071 H         1 UNK         0.0839 
     99 H99        27.4046  -25.9769  -41.4223 H         1 UNK         0.0839 
    100 H100       25.9941  -29.1730  -39.4287 H         1 UNK         0.2998 
    101 H101       24.4674  -28.5198  -37.0510 H         1 UNK         0.0822 
    102 H102       25.2588  -30.7511  -36.2965 H         1 UNK         0.0787 
    103 H103       25.8412  -31.1191  -37.9156 H         1 UNK         0.0787 
    104 H104       26.5858  -29.8260  -36.9758 H         1 UNK         0.0787 
    105 H105       22.6992  -28.2463  -39.0160 H         1 UNK         0.3055 
    106 H106       20.6315  -28.6224  -39.6867 H         1 UNK         0.1106 
    107 H107       20.2487  -28.6596  -37.2117 H         1 UNK         0.0828 
    108 H108       19.0557  -29.6104  -38.0754 H         1 UNK         0.0828 
    109 H109       20.3629  -30.4203  -37.2234 H         1 UNK         0.0828 
    110 H110       22.7242  -30.8308  -40.3999 H         1 UNK         0.2931 
    111 H111       22.8936  -32.7747  -41.4024 H         1 UNK         0.0412 
    112 H112       20.4846  -34.7569  -39.4406 H         1 UNK         0.3472 
    113 H113       21.4289  -33.3311  -39.0780 H         1 UNK         0.3472 
    114 H114       22.7042  -31.6906  -43.3674 H         1 UNK         0.0970 
    115 H115       21.5791  -32.9562  -43.6382 H         1 UNK         0.0970 
    116 H116       19.3919  -32.5021  -44.7523 H         1 UNK         0.0612 
    117 H117       18.7717  -32.4051  -43.1145 H         1 UNK         0.0612 
@<TRIPOS>BOND
     1    1    2 1    
     2    1   62 1    
     3    1   63 1    
     4    1   64 1    
     5    2    3 2    
     6    2    4 am   BACKBONE|DICT|INTERRES
     7    4    5 1    
     8    4   65 1    
     9    5    6 1    
    10    5   25 1    
    11    5   66 1    
    12    6    7 1    
    13    6   67 1    
    14    6   68 1    
    15    7    8 1    
    16    8    9 1    
    17    8   69 1    
    18    8   70 1    
    19    9   10 ar   
    20    9   14 ar   
    21   10   11 ar   
    22   10   71 1    
    23   11   12 ar   
    24   11   61 1    
    25   12   13 ar   
    26   12   72 1    
    27   13   14 ar   
    28   13   15 1    
    29   14   73 1    
    30   15   16 1    
    31   15   74 1    
    32   15   75 1    
    33   16   17 1    
    34   17   18 1    
    35   17   76 1    
    36   17   77 1    
    37   18   19 1    
    38   18   27 1    
    39   18   78 1    
    40   19   20 am   BACKBONE|DICT|INTERRES
    41   19   79 1    
    42   20   21 2    
    43   20   22 1    
    44   22   23 1    
    45   22   24 1    
    46   22   80 1    
    47   23   81 1    
    48   23   82 1    
    49   23   83 1    
    50   24   25 am   BACKBONE|DICT|INTERRES
    51   24   84 1    
    52   25   26 2    
    53   27   28 2    
    54   27   29 am   BACKBONE|DICT|INTERRES
    55   29   30 1    
    56   29   85 1    
    57   30   31 1    
    58   30   32 1    
    59   30   86 1    
    60   31   87 1    
    61   31   88 1    
    62   31   89 1    
    63   32   33 2    
    64   32   34 am   BACKBONE|DICT|INTERRES
    65   34   35 1    
    66   34   90 1    
    67   35   36 1    
    68   35   37 1    
    69   35   91 1    
    70   36   92 1    
    71   36   93 1    
    72   36   94 1    
    73   37   38 2    
    74   37   39 am   BACKBONE|DICT|INTERRES
    75   39   40 1    
    76   39   95 1    
    77   40   41 1    
    78   40   42 1    
    79   40   96 1    
    80   41   97 1    
    81   41   98 1    
    82   41   99 1    
    83   42   43 2    
    84   42   44 am   BACKBONE|DICT|INTERRES
    85   44   45 1    
    86   44  100 1    
    87   45   46 1    
    88   45   47 1    
    89   45  101 1    
    90   46  102 1    
    91   46  103 1    
    92   46  104 1    
    93   47   48 2    
    94   47   49 am   BACKBONE|DICT|INTERRES
    95   49   50 1    
    96   49  105 1    
    97   50   51 1    
    98   50   52 1    
    99   50  106 1    
   100   51  107 1    
   101   51  108 1    
   102   51  109 1    
   103   52   53 2    
   104   52   54 am   BACKBONE|DICT|INTERRES
   105   54   55 1    
   106   54  110 1    
   107   55   56 1    
   108   55   59 1    
   109   55  111 1    
   110   56   57 am   BACKBONE|DICT|INTERRES
   111   56   58 2    
   112   57  112 1    
   113   57  113 1    
   114   59   60 1    
   115   59  114 1    
   116   59  115 1    
   117   60   61 1    
   118   61  116 1    
   119   61  117 1    
@<TRIPOS>SUBSTRUCTURE
     1 UNK         1 GROUP             0       ****    0 ROOT    
