@<TRIPOS>MOLECULE
3R8
117   119    1
SMALL
USER_CHARGES


@<TRIPOS>ATOM
      1 CA         21.6358  -24.7025  -39.8686 C.3       0 UNK        -0.2013 
      2 C          20.3446  -24.6609  -40.6734 C.2       0 UNK         0.4866 
      3 O          19.3570  -24.0875  -40.2126 O.2       0 UNK        -0.5176 
      4 N          20.3518  -25.2604  -41.8675 N.am      1 UNK        -0.4884 
      5 CA         19.2275  -25.3101  -42.8080 C.3       1 UNK         0.0853 
      6 C6         18.7545  -26.7684  -43.0581 C.3       10 UNK        -0.0849 
      7 S7         18.2038  -27.6145  -41.5388 S.3       10 UNK        -0.2776 
      8 C8         16.9385  -28.7577  -42.1796 C.3       10 UNK         0.0316 
      9 C9         17.5330  -29.7979  -43.1194 C.ar      10 UNK        -0.0863 
     10 C10        18.2739  -30.8673  -42.6058 C.ar      10 UNK        -0.1009 
     11 C11        18.8253  -31.8256  -43.4623 C.ar      10 UNK        -0.0712 
     12 C12        18.6243  -31.7084  -44.8415 C.ar      10 UNK        -0.0894 
     13 C13        17.8912  -30.6413  -45.3695 C.ar      10 UNK        -0.0745 
     14 C14        17.3378  -29.6953  -44.5006 C.ar      10 UNK        -0.0972 
     15 C15        17.7015  -30.5217  -46.8787 C.3       10 UNK         0.0209 
     16 S16        18.2517  -28.9181  -47.5558 S.3       10 UNK        -0.2568 
     17 C17        19.9898  -28.8482  -46.9987 C.3       10 UNK        -0.0983 
     18 CA         20.6771  -27.4817  -47.2729 C.3       3 UNK         0.0876 
     19 N          19.8482  -26.3704  -46.7942 N.am      3 UNK        -0.4424 
     20 C          19.8620  -25.1070  -47.2368 C.2       2 UNK         0.4918 
     21 O          20.5605  -24.7138  -48.1702 O.2       2 UNK        -0.4875 
     22 CA         18.9774  -24.1036  -46.4651 C.3       2 UNK         0.0481 
     23 CB         17.6411  -23.8992  -47.1957 C.3       2 UNK        -0.1831 
     24 N          18.7160  -24.5036  -45.0727 N.am      2 UNK        -0.4498 
     25 C          19.6654  -24.6637  -44.1368 C.2       1 UNK         0.5027 
     26 O          20.8521  -24.3897  -44.3354 O.2       1 UNK        -0.4969 
     27 C          22.0978  -27.4718  -46.6510 C.2       3 UNK         0.5005 
     28 O          22.8322  -28.4438  -46.8347 O.2       3 UNK        -0.5279 
     29 N          22.4428  -26.4213  -45.8861 N.am      4 UNK        -0.4463 
     30 CA         23.5595  -26.2996  -44.9439 C.3       4 UNK         0.0283 
     31 CB         24.9395  -26.5957  -45.5706 C.3       4 UNK        -0.1875 
     32 C          23.2499  -27.1267  -43.6906 C.2       4 UNK         0.4949 
     33 O          22.7615  -26.5633  -42.7112 O.2       4 UNK        -0.5039 
     34 N          23.4756  -28.4457  -43.7612 N.am      5 UNK        -0.4663 
     35 CA         23.0556  -29.5097  -42.8329 C.3       5 UNK         0.0242 
     36 CB         21.5172  -29.5670  -42.7673 C.3       5 UNK        -0.1982 
     37 C          23.6040  -29.4649  -41.3954 C.2       5 UNK         0.5017 
     38 O          23.6563  -30.5152  -40.7543 O.2       5 UNK        -0.5012 
     39 N          23.8884  -28.2666  -40.8686 N.am      6 UNK        -0.4439 
     40 CA         24.1259  -27.9562  -39.4500 C.3       6 UNK         0.0297 
     41 CB         25.4501  -28.5815  -38.9632 C.3       6 UNK        -0.2006 
     42 C          22.9259  -28.3318  -38.5490 C.2       6 UNK         0.4892 
     43 O          23.1092  -28.5815  -37.3571 O.2       6 UNK        -0.5089 
     44 N          21.7281  -28.3889  -39.1563 N.am      7 UNK        -0.4243 
     45 CA         20.4573  -28.8751  -38.6108 C.3       7 UNK         0.0196 
     46 CB         19.9227  -27.9097  -37.5319 C.3       7 UNK        -0.2007 
     47 C          20.4978  -30.3463  -38.1423 C.2       7 UNK         0.5020 
     48 O          19.7527  -30.7045  -37.2283 O.2       7 UNK        -0.5147 
     49 N          21.3504  -31.1784  -38.7620 N.am      8 UNK        -0.4734 
     50 CA         21.5433  -32.5774  -38.3667 C.3       8 UNK         0.0238 
     51 CB         22.6746  -32.6685  -37.3267 C.3       8 UNK        -0.1912 
     52 C          21.8140  -33.5230  -39.5448 C.2       8 UNK         0.5038 
     53 O          21.2878  -34.6363  -39.5364 O.2       8 UNK        -0.5046 
     54 N          22.6407  -33.0957  -40.5103 N.am      9 UNK        -0.4200 
     55 CA         23.1713  -33.9186  -41.6158 C.3       9 UNK         0.0839 
     56 C          24.1023  -35.0850  -41.1568 C.2       9 UNK         0.5513 
     57 N          24.6947  -35.0258  -39.9696 N.am      9 UNK        -0.7519 
     58 O          24.3211  -36.0441  -41.8929 O.2       9 UNK        -0.4960 
     59 C59        22.0835  -34.3732  -42.6332 C.3       10 UNK        -0.0876 
     60 S60        21.3469  -32.9654  -43.5225 S.3       10 UNK        -0.2414 
     61 C61        19.6366  -32.9872  -42.9023 C.3       10 UNK         0.0169 
     62 H62        21.4869  -25.2648  -38.9475 H         1 UNK         0.0903 
     63 H63        22.4483  -25.1686  -40.4247 H         1 UNK         0.0903 
     64 H64        21.9457  -23.6918  -39.6047 H         1 UNK         0.0903 
     65 H65        21.2200  -25.6575  -42.2240 H         1 UNK         0.3096 
     66 H66        18.3872  -24.7256  -42.4268 H         1 UNK         0.1121 
     67 H67        17.9236  -26.7820  -43.7651 H         1 UNK         0.0849 
     68 H68        19.5481  -27.3636  -43.5130 H         1 UNK         0.0849 
     69 H69        16.4623  -29.2630  -41.3381 H         1 UNK         0.0865 
     70 H70        16.1503  -28.1886  -42.6751 H         1 UNK         0.0865 
     71 H71        18.4274  -30.9452  -41.5382 H         1 UNK         0.1346 
     72 H72        19.0546  -32.4473  -45.5037 H         1 UNK         0.1412 
     73 H73        16.7650  -28.8723  -44.9057 H         1 UNK         0.1426 
     74 H74        16.6449  -30.6576  -47.1124 H         1 UNK         0.0716 
     75 H75        18.2360  -31.3171  -47.4003 H         1 UNK         0.0716 
     76 H76        20.5331  -29.6572  -47.4907 H         1 UNK         0.0695 
     77 H77        20.0168  -29.0681  -45.9299 H         1 UNK         0.0695 
     78 H78        20.8038  -27.3746  -48.3524 H         1 UNK         0.0983 
     79 H79        19.2053  -26.6021  -46.0535 H         1 UNK         0.3095 
     80 H80        19.5056  -23.1481  -46.4442 H         1 UNK         0.0454 
     81 H81        17.8051  -23.5731  -48.2239 H         1 UNK         0.0851 
     82 H82        17.0344  -23.1349  -46.7100 H         1 UNK         0.0851 
     83 H83        17.0563  -24.8191  -47.2365 H         1 UNK         0.0851 
     84 H84        17.7567  -24.7212  -44.8416 H         1 UNK         0.2976 
     85 H85        21.7515  -25.6880  -45.7772 H         1 UNK         0.3116 
     86 H86        23.5704  -25.2538  -44.6322 H         1 UNK         0.0646 
     87 H87        25.0536  -27.6298  -45.8936 H         1 UNK         0.0847 
     88 H88        25.1202  -25.9585  -46.4361 H         1 UNK         0.0847 
     89 H89        25.7362  -26.3966  -44.8529 H         1 UNK         0.0847 
     90 H90        23.8646  -28.7804  -44.6339 H         1 UNK         0.3040 
     91 H91        23.4073  -30.4480  -43.2654 H         1 UNK         0.1015 
     92 H92        21.1811  -30.3837  -42.1280 H         1 UNK         0.0786 
     93 H93        21.0811  -29.7296  -43.7528 H         1 UNK         0.0786 
     94 H94        21.0901  -28.6534  -42.3564 H         1 UNK         0.0786 
     95 H95        23.7189  -27.4682  -41.4783 H         1 UNK         0.3172 
     96 H96        24.2269  -26.8719  -39.3873 H         1 UNK         0.0595 
     97 H97        25.3935  -29.6696  -38.9186 H         1 UNK         0.0839 
     98 H98        25.7034  -28.2303  -37.9622 H         1 UNK         0.0839 
     99 H99        26.2795  -28.3149  -39.6180 H         1 UNK         0.0839 
    100 H100       21.7056  -28.1449  -40.1358 H         1 UNK         0.2998 
    101 H101       19.7500  -28.8604  -39.4393 H         1 UNK         0.0822 
    102 H102       18.9207  -28.1959  -37.2098 H         1 UNK         0.0787 
    103 H103       19.8557  -26.8904  -37.9117 H         1 UNK         0.0787 
    104 H104       20.5593  -27.8995  -36.6468 H         1 UNK         0.0787 
    105 H105       21.9468  -30.8200  -39.4980 H         1 UNK         0.3055 
    106 H106       20.6279  -32.9483  -37.8989 H         1 UNK         0.1106 
    107 H107       22.4225  -32.1171  -36.4206 H         1 UNK         0.0828 
    108 H108       22.8590  -33.7032  -37.0339 H         1 UNK         0.0828 
    109 H109       23.6103  -32.2620  -37.7126 H         1 UNK         0.0828 
    110 H110       23.0431  -32.1631  -40.4533 H         1 UNK         0.2931 
    111 H111       23.8456  -33.2524  -42.1555 H         1 UNK         0.0412 
    112 H112       24.5486  -34.2356  -39.3630 H         1 UNK         0.3472 
    113 H113       25.3031  -35.7772  -39.6841 H         1 UNK         0.3472 
    114 H114       22.5161  -35.0210  -43.3974 H         1 UNK         0.0970 
    115 H115       21.3101  -34.9680  -42.1461 H         1 UNK         0.0970 
    116 H116       19.1611  -33.9277  -43.1836 H         1 UNK         0.0612 
    117 H117       19.6550  -32.9559  -41.8118 H         1 UNK         0.0612 
@<TRIPOS>BOND
     1    1    2 1    
     2    1   62 1    
     3    1   63 1    
     4    1   64 1    
     5    2    3 2    
     6    2    4 am   BACKBONE|DICT|INTERRES
     7    4    5 1    
     8    4   65 1    
     9    5    6 1    
    10    5   25 1    
    11    5   66 1    
    12    6    7 1    
    13    6   67 1    
    14    6   68 1    
    15    7    8 1    
    16    8    9 1    
    17    8   69 1    
    18    8   70 1    
    19    9   10 ar   
    20    9   14 ar   
    21   10   11 ar   
    22   10   71 1    
    23   11   12 ar   
    24   11   61 1    
    25   12   13 ar   
    26   12   72 1    
    27   13   14 ar   
    28   13   15 1    
    29   14   73 1    
    30   15   16 1    
    31   15   74 1    
    32   15   75 1    
    33   16   17 1    
    34   17   18 1    
    35   17   76 1    
    36   17   77 1    
    37   18   19 1    
    38   18   27 1    
    39   18   78 1    
    40   19   20 am   BACKBONE|DICT|INTERRES
    41   19   79 1    
    42   20   21 2    
    43   20   22 1    
    44   22   23 1    
    45   22   24 1    
    46   22   80 1    
    47   23   81 1    
    48   23   82 1    
    49   23   83 1    
    50   24   25 am   BACKBONE|DICT|INTERRES
    51   24   84 1    
    52   25   26 2    
    53   27   28 2    
    54   27   29 am   BACKBONE|DICT|INTERRES
    55   29   30 1    
    56   29   85 1    
    57   30   31 1    
    58   30   32 1    
    59   30   86 1    
    60   31   87 1    
    61   31   88 1    
    62   31   89 1    
    63   32   33 2    
    64   32   34 am   BACKBONE|DICT|INTERRES
    65   34   35 1    
    66   34   90 1    
    67   35   36 1    
    68   35   37 1    
    69   35   91 1    
    70   36   92 1    
    71   36   93 1    
    72   36   94 1    
    73   37   38 2    
    74   37   39 am   BACKBONE|DICT|INTERRES
    75   39   40 1    
    76   39   95 1    
    77   40   41 1    
    78   40   42 1    
    79   40   96 1    
    80   41   97 1    
    81   41   98 1    
    82   41   99 1    
    83   42   43 2    
    84   42   44 am   BACKBONE|DICT|INTERRES
    85   44   45 1    
    86   44  100 1    
    87   45   46 1    
    88   45   47 1    
    89   45  101 1    
    90   46  102 1    
    91   46  103 1    
    92   46  104 1    
    93   47   48 2    
    94   47   49 am   BACKBONE|DICT|INTERRES
    95   49   50 1    
    96   49  105 1    
    97   50   51 1    
    98   50   52 1    
    99   50  106 1    
   100   51  107 1    
   101   51  108 1    
   102   51  109 1    
   103   52   53 2    
   104   52   54 am   BACKBONE|DICT|INTERRES
   105   54   55 1    
   106   54  110 1    
   107   55   56 1    
   108   55   59 1    
   109   55  111 1    
   110   56   57 am   BACKBONE|DICT|INTERRES
   111   56   58 2    
   112   57  112 1    
   113   57  113 1    
   114   59   60 1    
   115   59  114 1    
   116   59  115 1    
   117   60   61 1    
   118   61  116 1    
   119   61  117 1    
@<TRIPOS>SUBSTRUCTURE
     1 UNK         1 GROUP             0       ****    0 ROOT    
