@<TRIPOS>MOLECULE
3R8
117   119    1
SMALL
USER_CHARGES


@<TRIPOS>ATOM
      1 CA         22.5372  -27.5562  -48.2467 C.3       0 UNK        -0.2013 
      2 C          21.2932  -26.8927  -47.6779 C.2       0 UNK         0.4866 
      3 O          21.0802  -25.7021  -47.8988 O.2       0 UNK        -0.5176 
      4 N          20.4807  -27.6541  -46.9328 N.am      1 UNK        -0.4884 
      5 CA         19.2284  -27.2273  -46.2886 C.3       1 UNK         0.0853 
      6 C6         18.1550  -26.7574  -47.3096 C.3       10 UNK        -0.0849 
      7 S7         16.4304  -26.9785  -46.7486 S.3       10 UNK        -0.2776 
      8 C8         16.1176  -28.7426  -47.0867 C.3       10 UNK         0.0316 
      9 C9         16.6137  -29.6444  -45.9621 C.ar      10 UNK        -0.0863 
     10 C10        17.6371  -30.5697  -46.1905 C.ar      10 UNK        -0.1009 
     11 C11        18.0670  -31.4227  -45.1680 C.ar      10 UNK        -0.0712 
     12 C12        17.4600  -31.3471  -43.9099 C.ar      10 UNK        -0.0894 
     13 C13        16.4440  -30.4184  -43.6641 C.ar      10 UNK        -0.0745 
     14 C14        16.0244  -29.5733  -44.6959 C.ar      10 UNK        -0.0972 
     15 C15        15.7648  -30.3529  -42.3008 C.3       10 UNK         0.0209 
     16 S16        16.9090  -29.9573  -40.9378 S.3       10 UNK        -0.2568 
     17 C17        17.4620  -28.2680  -41.3508 C.3       10 UNK        -0.0983 
     18 CA         18.9978  -28.1165  -41.2080 C.3       3 UNK         0.0876 
     19 N          19.5043  -27.0140  -42.0232 N.am      3 UNK        -0.4424 
     20 C          20.7911  -26.7051  -42.2318 C.2       2 UNK         0.4918 
     21 O          21.7462  -27.2896  -41.7126 O.2       2 UNK        -0.4875 
     22 CA         21.0351  -25.6166  -43.2936 C.3       2 UNK         0.0481 
     23 CB         22.4918  -25.1223  -43.3247 C.3       2 UNK        -0.1831 
     24 N          20.6810  -26.1548  -44.6081 N.am      2 UNK        -0.4498 
     25 C          19.4335  -26.2770  -45.0839 C.2       1 UNK         0.5027 
     26 O          18.4651  -25.7455  -44.5387 O.2       1 UNK        -0.4969 
     27 C          19.4257  -27.9636  -39.7356 C.2       3 UNK         0.5005 
     28 O          19.2431  -26.8883  -39.1584 O.2       3 UNK        -0.5279 
     29 N          20.0017  -29.0372  -39.1771 N.am      4 UNK        -0.4463 
     30 CA         20.5999  -29.1420  -37.8404 C.3       4 UNK         0.0283 
     31 CB         19.5276  -28.9867  -36.7414 C.3       4 UNK        -0.1875 
     32 C          21.8093  -28.2063  -37.6277 C.2       4 UNK         0.4949 
     33 O          22.1544  -27.9089  -36.4828 O.2       4 UNK        -0.5039 
     34 N          22.4375  -27.7682  -38.7249 N.am      5 UNK        -0.4663 
     35 CA         23.5928  -26.8802  -38.7491 C.3       5 UNK         0.0242 
     36 CB         23.1157  -25.4232  -38.9337 C.3       5 UNK        -0.1982 
     37 C          24.5686  -27.3822  -39.8236 C.2       5 UNK         0.5017 
     38 O          24.8997  -28.5693  -39.8234 O.2       5 UNK        -0.5012 
     39 N          25.0180  -26.4868  -40.7136 N.am      6 UNK        -0.4439 
     40 CA         26.0669  -26.7129  -41.7146 C.3       6 UNK         0.0297 
     41 CB         26.3480  -25.3943  -42.4545 C.3       6 UNK        -0.2006 
     42 C          25.8095  -27.8491  -42.7233 C.2       6 UNK         0.4892 
     43 O          26.7777  -28.3674  -43.2810 O.2       6 UNK        -0.5089 
     44 N          24.5411  -28.2259  -42.9436 N.am      7 UNK        -0.4243 
     45 CA         24.1720  -29.3420  -43.8205 C.3       7 UNK         0.0196 
     46 CB         22.7574  -29.1129  -44.3752 C.3       7 UNK        -0.2007 
     47 C          24.2669  -30.7129  -43.1266 C.2       7 UNK         0.5020 
     48 O          24.1583  -31.7289  -43.8124 O.2       7 UNK        -0.5147 
     49 N          24.4323  -30.7334  -41.7943 N.am      8 UNK        -0.4734 
     50 CA         24.4994  -31.8885  -40.8837 C.3       8 UNK         0.0238 
     51 CB         25.6638  -32.8322  -41.2430 C.3       8 UNK        -0.1912 
     52 C          23.1792  -32.6665  -40.7225 C.2       8 UNK         0.5038 
     53 O          22.8860  -33.1133  -39.6125 O.2       8 UNK        -0.5046 
     54 N          22.4064  -32.8074  -41.8049 N.am      9 UNK        -0.4200 
     55 CA         21.0401  -33.3445  -41.8229 C.3       9 UNK         0.0839 
     56 C          20.0246  -32.4774  -41.0281 C.2       9 UNK         0.5513 
     57 N          18.8785  -33.0395  -40.6698 N.am      9 UNK        -0.7519 
     58 O          20.2525  -31.3027  -40.7504 O.2       9 UNK        -0.4960 
     59 C59        20.5630  -33.6308  -43.2722 C.3       10 UNK        -0.0876 
     60 S60        20.6300  -32.1852  -44.3937 S.3       10 UNK        -0.2414 
     61 C61        19.1610  -32.4468  -45.4394 C.3       10 UNK         0.0169 
     62 H62        23.4307  -27.0554  -47.8765 H         1 UNK         0.0903 
     63 H63        22.6011  -28.6087  -47.9734 H         1 UNK         0.0903 
     64 H64        22.5343  -27.4891  -49.3345 H         1 UNK         0.0903 
     65 H65        20.7160  -28.6275  -46.7970 H         1 UNK         0.3096 
     66 H66        18.8566  -28.1374  -45.8230 H         1 UNK         0.1121 
     67 H67        18.2662  -27.3017  -48.2485 H         1 UNK         0.0849 
     68 H68        18.3066  -25.7070  -47.5638 H         1 UNK         0.0849 
     69 H69        15.0423  -28.8885  -47.1990 H         1 UNK         0.0865 
     70 H70        16.5598  -29.0216  -48.0442 H         1 UNK         0.0865 
     71 H71        18.0923  -30.6333  -47.1696 H         1 UNK         0.1346 
     72 H72        17.7806  -32.0097  -43.1182 H         1 UNK         0.1412 
     73 H73        15.2303  -28.8602  -44.5197 H         1 UNK         0.1426 
     74 H74        15.3008  -31.3185  -42.0956 H         1 UNK         0.0716 
     75 H75        14.9561  -29.6203  -42.3019 H         1 UNK         0.0716 
     76 H76        16.9265  -27.5491  -40.7276 H         1 UNK         0.0695 
     77 H77        17.1629  -28.0502  -42.3770 H         1 UNK         0.0695 
     78 H78        19.4671  -29.0119  -41.6204 H         1 UNK         0.0983 
     79 H79        18.8109  -26.4810  -42.5332 H         1 UNK         0.3095 
     80 H80        20.3964  -24.7628  -43.0580 H         1 UNK         0.0454 
     81 H81        23.1837  -25.9095  -43.6200 H         1 UNK         0.0851 
     82 H82        22.8027  -24.7581  -42.3453 H         1 UNK         0.0851 
     83 H83        22.6111  -24.2976  -44.0273 H         1 UNK         0.0851 
     84 H84        21.4147  -26.6227  -45.1172 H         1 UNK         0.2976 
     85 H85        20.0942  -29.8755  -39.7558 H         1 UNK         0.3116 
     86 H86        20.9938  -30.1572  -37.7736 H         1 UNK         0.0646 
     87 H87        18.6865  -29.6590  -36.9097 H         1 UNK         0.0847 
     88 H88        19.1401  -27.9686  -36.6945 H         1 UNK         0.0847 
     89 H89        19.9370  -29.2224  -35.7584 H         1 UNK         0.0847 
     90 H90        22.0974  -28.0611  -39.6336 H         1 UNK         0.3040 
     91 H91        24.1308  -26.9490  -37.8011 H         1 UNK         0.1015 
     92 H92        22.5792  -25.2858  -39.8731 H         1 UNK         0.0786 
     93 H93        23.9492  -24.7202  -38.9087 H         1 UNK         0.0786 
     94 H94        22.4381  -25.1340  -38.1299 H         1 UNK         0.0786 
     95 H95        24.6695  -25.5425  -40.6377 H         1 UNK         0.3172 
     96 H96        26.9700  -26.9856  -41.1646 H         1 UNK         0.0595 
     97 H97        25.4731  -25.0386  -42.9986 H         1 UNK         0.0839 
     98 H98        27.1526  -25.5178  -43.1811 H         1 UNK         0.0839 
     99 H99        26.6589  -24.6086  -41.7657 H         1 UNK         0.0839 
    100 H100       23.7924  -27.7793  -42.4265 H         1 UNK         0.2998 
    101 H101       24.8576  -29.3655  -44.6706 H         1 UNK         0.0822 
    102 H102       22.6820  -28.1451  -44.8666 H         1 UNK         0.0787 
    103 H103       22.5074  -29.8711  -45.1182 H         1 UNK         0.0787 
    104 H104       21.9998  -29.1670  -43.5929 H         1 UNK         0.0787 
    105 H105       24.5094  -29.8374  -41.3211 H         1 UNK         0.3055 
    106 H106       24.7190  -31.4629  -39.9027 H         1 UNK         0.1106 
    107 H107       25.5088  -33.3296  -42.2006 H         1 UNK         0.0828 
    108 H108       25.7756  -33.6130  -40.4897 H         1 UNK         0.0828 
    109 H109       26.6096  -32.2929  -41.2934 H         1 UNK         0.0828 
    110 H110       22.7465  -32.4177  -42.6781 H         1 UNK         0.2931 
    111 H111       21.0881  -34.3047  -41.3056 H         1 UNK         0.0412 
    112 H112       18.2025  -32.4821  -40.1716 H         1 UNK         0.3472 
    113 H113       18.6789  -34.0057  -40.8751 H         1 UNK         0.3472 
    114 H114       19.5537  -34.0450  -43.2564 H         1 UNK         0.0970 
    115 H115       21.1874  -34.4120  -43.7080 H         1 UNK         0.0970 
    116 H116       19.4811  -32.3936  -46.4810 H         1 UNK         0.0612 
    117 H117       18.7581  -33.4508  -45.3040 H         1 UNK         0.0612 
@<TRIPOS>BOND
     1    1    2 1    
     2    1   62 1    
     3    1   63 1    
     4    1   64 1    
     5    2    3 2    
     6    2    4 am   BACKBONE|DICT|INTERRES
     7    4    5 1    
     8    4   65 1    
     9    5    6 1    
    10    5   25 1    
    11    5   66 1    
    12    6    7 1    
    13    6   67 1    
    14    6   68 1    
    15    7    8 1    
    16    8    9 1    
    17    8   69 1    
    18    8   70 1    
    19    9   10 ar   
    20    9   14 ar   
    21   10   11 ar   
    22   10   71 1    
    23   11   12 ar   
    24   11   61 1    
    25   12   13 ar   
    26   12   72 1    
    27   13   14 ar   
    28   13   15 1    
    29   14   73 1    
    30   15   16 1    
    31   15   74 1    
    32   15   75 1    
    33   16   17 1    
    34   17   18 1    
    35   17   76 1    
    36   17   77 1    
    37   18   19 1    
    38   18   27 1    
    39   18   78 1    
    40   19   20 am   BACKBONE|DICT|INTERRES
    41   19   79 1    
    42   20   21 2    
    43   20   22 1    
    44   22   23 1    
    45   22   24 1    
    46   22   80 1    
    47   23   81 1    
    48   23   82 1    
    49   23   83 1    
    50   24   25 am   BACKBONE|DICT|INTERRES
    51   24   84 1    
    52   25   26 2    
    53   27   28 2    
    54   27   29 am   BACKBONE|DICT|INTERRES
    55   29   30 1    
    56   29   85 1    
    57   30   31 1    
    58   30   32 1    
    59   30   86 1    
    60   31   87 1    
    61   31   88 1    
    62   31   89 1    
    63   32   33 2    
    64   32   34 am   BACKBONE|DICT|INTERRES
    65   34   35 1    
    66   34   90 1    
    67   35   36 1    
    68   35   37 1    
    69   35   91 1    
    70   36   92 1    
    71   36   93 1    
    72   36   94 1    
    73   37   38 2    
    74   37   39 am   BACKBONE|DICT|INTERRES
    75   39   40 1    
    76   39   95 1    
    77   40   41 1    
    78   40   42 1    
    79   40   96 1    
    80   41   97 1    
    81   41   98 1    
    82   41   99 1    
    83   42   43 2    
    84   42   44 am   BACKBONE|DICT|INTERRES
    85   44   45 1    
    86   44  100 1    
    87   45   46 1    
    88   45   47 1    
    89   45  101 1    
    90   46  102 1    
    91   46  103 1    
    92   46  104 1    
    93   47   48 2    
    94   47   49 am   BACKBONE|DICT|INTERRES
    95   49   50 1    
    96   49  105 1    
    97   50   51 1    
    98   50   52 1    
    99   50  106 1    
   100   51  107 1    
   101   51  108 1    
   102   51  109 1    
   103   52   53 2    
   104   52   54 am   BACKBONE|DICT|INTERRES
   105   54   55 1    
   106   54  110 1    
   107   55   56 1    
   108   55   59 1    
   109   55  111 1    
   110   56   57 am   BACKBONE|DICT|INTERRES
   111   56   58 2    
   112   57  112 1    
   113   57  113 1    
   114   59   60 1    
   115   59  114 1    
   116   59  115 1    
   117   60   61 1    
   118   61  116 1    
   119   61  117 1    
@<TRIPOS>SUBSTRUCTURE
     1 UNK         1 GROUP             0       ****    0 ROOT    
