@<TRIPOS>MOLECULE
3R8
117   119    1
SMALL
USER_CHARGES


@<TRIPOS>ATOM
      1 CA         19.4284  -23.7366  -46.7851 C.3       0 UNK        -0.2013 
      2 C          18.9232  -25.1414  -46.4955 C.2       0 UNK         0.4866 
      3 O          18.7213  -25.4899  -45.3321 O.2       0 UNK        -0.5176 
      4 N          18.7441  -25.9625  -47.5427 N.am      1 UNK        -0.4884 
      5 CA         18.1990  -27.3329  -47.4973 C.3       1 UNK         0.0853 
      6 C6         16.7151  -27.3344  -47.0280 C.3       10 UNK        -0.0849 
      7 S7         15.7417  -28.7313  -47.6916 S.3       10 UNK        -0.2776 
      8 C8         14.5556  -29.0558  -46.3416 C.3       10 UNK         0.0316 
      9 C9         15.2366  -29.3782  -45.0164 C.ar      10 UNK        -0.0863 
     10 C10        16.0110  -30.5325  -44.8800 C.ar      10 UNK        -0.1009 
     11 C11        16.6707  -30.8212  -43.6810 C.ar      10 UNK        -0.0712 
     12 C12        16.5111  -29.9497  -42.5936 C.ar      10 UNK        -0.0894 
     13 C13        15.7409  -28.7875  -42.7162 C.ar      10 UNK        -0.0745 
     14 C14        15.1035  -28.5120  -43.9289 C.ar      10 UNK        -0.0972 
     15 C15        15.5866  -27.8152  -41.5505 C.3       10 UNK         0.0209 
     16 S16        17.1652  -27.3160  -40.7806 S.3       10 UNK        -0.2568 
     17 C17        18.1697  -26.7457  -42.1982 C.3       10 UNK        -0.0983 
     18 CA         19.5120  -27.5219  -42.2793 C.3       3 UNK         0.0876 
     19 N          19.9601  -27.6903  -43.6628 N.am      3 UNK        -0.4424 
     20 C          20.8391  -28.6234  -44.0585 C.2       2 UNK         0.4918 
     21 O          21.3070  -29.4737  -43.3003 O.2       2 UNK        -0.4875 
     22 CA         21.3031  -28.5902  -45.5318 C.3       2 UNK         0.0481 
     23 CB         21.7194  -29.9808  -46.0609 C.3       2 UNK        -0.1831 
     24 N          20.3445  -27.9357  -46.4302 N.am      2 UNK        -0.4498 
     25 C          19.0930  -28.3326  -46.7136 C.2       1 UNK         0.5027 
     26 O          18.6458  -29.4274  -46.3767 O.2       1 UNK        -0.4969 
     27 C          20.6105  -26.8653  -41.4103 C.2       3 UNK         0.5005 
     28 O          21.5534  -26.2734  -41.9446 O.2       3 UNK        -0.5279 
     29 N          20.4304  -26.9645  -40.0841 N.am      4 UNK        -0.4463 
     30 CA         21.3200  -26.5413  -38.9931 C.3       4 UNK         0.0283 
     31 CB         21.7293  -25.0590  -39.1156 C.3       4 UNK        -0.1875 
     32 C          22.5486  -27.4536  -38.8434 C.2       4 UNK         0.4949 
     33 O          22.9622  -28.1168  -39.7953 O.2       4 UNK        -0.5039 
     34 N          23.1237  -27.4660  -37.6332 N.am      5 UNK        -0.4663 
     35 CA         24.2133  -28.3582  -37.2072 C.3       5 UNK         0.0242 
     36 CB         24.4895  -28.1281  -35.7122 C.3       5 UNK        -0.1982 
     37 C          25.5206  -28.2491  -38.0157 C.2       5 UNK         0.5017 
     38 O          26.3249  -29.1803  -37.9803 O.2       5 UNK        -0.5012 
     39 N          25.7037  -27.1346  -38.7365 N.am      6 UNK        -0.4439 
     40 CA         26.8095  -26.9083  -39.6695 C.3       6 UNK         0.0297 
     41 CB         26.8141  -25.4308  -40.0943 C.3       6 UNK        -0.2006 
     42 C          26.7686  -27.8223  -40.9108 C.2       6 UNK         0.4892 
     43 O          27.8245  -28.0762  -41.4919 O.2       6 UNK        -0.5089 
     44 N          25.5718  -28.2886  -41.2945 N.am      7 UNK        -0.4243 
     45 CA         25.3458  -29.1878  -42.4291 C.3       7 UNK         0.0196 
     46 CB         24.4933  -28.4629  -43.4796 C.3       7 UNK        -0.2007 
     47 C          24.6904  -30.5071  -41.9892 C.2       7 UNK         0.5020 
     48 O          25.0135  -31.5515  -42.5567 O.2       7 UNK        -0.5147 
     49 N          23.8091  -30.4475  -40.9787 N.am      8 UNK        -0.4734 
     50 CA         23.1750  -31.5629  -40.2631 C.3       8 UNK         0.0238 
     51 CB         24.2132  -32.2548  -39.3548 C.3       8 UNK        -0.1912 
     52 C          22.4179  -32.5609  -41.1628 C.2       8 UNK         0.5038 
     53 O          22.3874  -33.7543  -40.8544 O.2       8 UNK        -0.5046 
     54 N          21.8312  -32.0606  -42.2582 N.am      9 UNK        -0.4200 
     55 CA         21.1335  -32.8312  -43.3000 C.3       9 UNK         0.0839 
     56 C          22.0493  -33.8039  -44.1042 C.2       9 UNK         0.5513 
     57 N          23.3678  -33.6394  -44.0880 N.am      9 UNK        -0.7519 
     58 O          21.5599  -34.7022  -44.7843 O.2       9 UNK        -0.4960 
     59 C59        19.8182  -33.4893  -42.7905 C.3       10 UNK        -0.0876 
     60 S60        18.6335  -32.2418  -42.1764 S.3       10 UNK        -0.2414 
     61 C61        17.5540  -32.0699  -43.6389 C.3       10 UNK         0.0169 
     62 H62        20.3768  -23.5666  -46.2761 H         1 UNK         0.0903 
     63 H63        19.5793  -23.5675  -47.8511 H         1 UNK         0.0903 
     64 H64        18.7113  -23.0003  -46.4231 H         1 UNK         0.0903 
     65 H65        18.9560  -25.6205  -48.4711 H         1 UNK         0.3096 
     66 H66        18.2217  -27.6816  -48.5313 H         1 UNK         0.1121 
     67 H67        16.2150  -26.4260  -47.3674 H         1 UNK         0.0849 
     68 H68        16.6655  -27.3024  -45.9391 H         1 UNK         0.0849 
     69 H69        13.8950  -28.1934  -46.2394 H         1 UNK         0.0865 
     70 H70        13.9181  -29.8940  -46.6263 H         1 UNK         0.0865 
     71 H71        16.1310  -31.1913  -45.7295 H         1 UNK         0.1346 
     72 H72        16.9997  -30.1505  -41.6515 H         1 UNK         0.1412 
     73 H73        14.5095  -27.6138  -44.0305 H         1 UNK         0.1426 
     74 H74        14.9572  -28.2780  -40.7895 H         1 UNK         0.0716 
     75 H75        15.0662  -26.9108  -41.8696 H         1 UNK         0.0716 
     76 H76        18.3266  -25.6677  -42.1238 H         1 UNK         0.0695 
     77 H77        17.5950  -26.8871  -43.1146 H         1 UNK         0.0695 
     78 H78        19.3519  -28.5308  -41.8902 H         1 UNK         0.0983 
     79 H79        19.6341  -26.9941  -44.3251 H         1 UNK         0.3095 
     80 H80        22.1935  -27.9606  -45.5431 H         1 UNK         0.0454 
     81 H81        22.0834  -29.9215  -47.0862 H         1 UNK         0.0851 
     82 H82        20.8918  -30.6893  -46.0401 H         1 UNK         0.0851 
     83 H83        22.5212  -30.4098  -45.4592 H         1 UNK         0.0851 
     84 H84        20.6149  -27.0214  -46.7652 H         1 UNK         0.2976 
     85 H85        19.5977  -27.4518  -39.7795 H         1 UNK         0.3116 
     86 H86        20.7277  -26.6478  -38.0828 H         1 UNK         0.0646 
     87 H87        22.4239  -24.8914  -39.9393 H         1 UNK         0.0847 
     88 H88        22.2233  -24.7129  -38.2072 H         1 UNK         0.0847 
     89 H89        20.8614  -24.4188  -39.2735 H         1 UNK         0.0847 
     90 H90        22.7317  -26.8747  -36.9135 H         1 UNK         0.3040 
     91 H91        23.8574  -29.3831  -37.3337 H         1 UNK         0.1015 
     92 H92        24.8178  -27.1067  -35.5155 H         1 UNK         0.0786 
     93 H93        25.2720  -28.7970  -35.3503 H         1 UNK         0.0786 
     94 H94        23.6016  -28.3193  -35.1091 H         1 UNK         0.0786 
     95 H95        24.9870  -26.4251  -38.6919 H         1 UNK         0.3172 
     96 H96        27.7422  -27.1147  -39.1402 H         1 UNK         0.0595 
     97 H97        25.8963  -25.1571  -40.6166 H         1 UNK         0.0839 
     98 H98        27.6461  -25.2220  -40.7686 H         1 UNK         0.0839 
     99 H99        26.9236  -24.7693  -39.2347 H         1 UNK         0.0839 
    100 H100       24.7567  -28.0442  -40.7421 H         1 UNK         0.2998 
    101 H101       26.2951  -29.4560  -42.8976 H         1 UNK         0.0822 
    102 H102       25.0343  -27.6210  -43.9115 H         1 UNK         0.0787 
    103 H103       24.2246  -29.1315  -44.2976 H         1 UNK         0.0787 
    104 H104       23.5720  -28.0751  -43.0447 H         1 UNK         0.0787 
    105 H105       23.5400  -29.5280  -40.6288 H         1 UNK         0.3055 
    106 H106       22.4175  -31.1149  -39.6179 H         1 UNK         0.1106 
    107 H107       23.7410  -32.9947  -38.7073 H         1 UNK         0.0828 
    108 H108       24.9757  -32.7709  -39.9392 H         1 UNK         0.0828 
    109 H109       24.7172  -31.5365  -38.7081 H         1 UNK         0.0828 
    110 H110       21.8841  -31.0614  -42.4380 H         1 UNK         0.2931 
    111 H111       20.8384  -32.0889  -44.0412 H         1 UNK         0.0412 
    112 H112       23.7954  -32.9075  -43.5307 H         1 UNK         0.3472 
    113 H113       23.9489  -34.2667  -44.6208 H         1 UNK         0.3472 
    114 H114       20.0262  -34.2012  -41.9908 H         1 UNK         0.0970 
    115 H115       19.3376  -34.0676  -43.5816 H         1 UNK         0.0970 
    116 H116       16.9211  -32.9552  -43.7120 H         1 UNK         0.0612 
    117 H117       18.1887  -32.0620  -44.5270 H         1 UNK         0.0612 
@<TRIPOS>BOND
     1    1    2 1    
     2    1   62 1    
     3    1   63 1    
     4    1   64 1    
     5    2    3 2    
     6    2    4 am   BACKBONE|DICT|INTERRES
     7    4    5 1    
     8    4   65 1    
     9    5    6 1    
    10    5   25 1    
    11    5   66 1    
    12    6    7 1    
    13    6   67 1    
    14    6   68 1    
    15    7    8 1    
    16    8    9 1    
    17    8   69 1    
    18    8   70 1    
    19    9   10 ar   
    20    9   14 ar   
    21   10   11 ar   
    22   10   71 1    
    23   11   12 ar   
    24   11   61 1    
    25   12   13 ar   
    26   12   72 1    
    27   13   14 ar   
    28   13   15 1    
    29   14   73 1    
    30   15   16 1    
    31   15   74 1    
    32   15   75 1    
    33   16   17 1    
    34   17   18 1    
    35   17   76 1    
    36   17   77 1    
    37   18   19 1    
    38   18   27 1    
    39   18   78 1    
    40   19   20 am   BACKBONE|DICT|INTERRES
    41   19   79 1    
    42   20   21 2    
    43   20   22 1    
    44   22   23 1    
    45   22   24 1    
    46   22   80 1    
    47   23   81 1    
    48   23   82 1    
    49   23   83 1    
    50   24   25 am   BACKBONE|DICT|INTERRES
    51   24   84 1    
    52   25   26 2    
    53   27   28 2    
    54   27   29 am   BACKBONE|DICT|INTERRES
    55   29   30 1    
    56   29   85 1    
    57   30   31 1    
    58   30   32 1    
    59   30   86 1    
    60   31   87 1    
    61   31   88 1    
    62   31   89 1    
    63   32   33 2    
    64   32   34 am   BACKBONE|DICT|INTERRES
    65   34   35 1    
    66   34   90 1    
    67   35   36 1    
    68   35   37 1    
    69   35   91 1    
    70   36   92 1    
    71   36   93 1    
    72   36   94 1    
    73   37   38 2    
    74   37   39 am   BACKBONE|DICT|INTERRES
    75   39   40 1    
    76   39   95 1    
    77   40   41 1    
    78   40   42 1    
    79   40   96 1    
    80   41   97 1    
    81   41   98 1    
    82   41   99 1    
    83   42   43 2    
    84   42   44 am   BACKBONE|DICT|INTERRES
    85   44   45 1    
    86   44  100 1    
    87   45   46 1    
    88   45   47 1    
    89   45  101 1    
    90   46  102 1    
    91   46  103 1    
    92   46  104 1    
    93   47   48 2    
    94   47   49 am   BACKBONE|DICT|INTERRES
    95   49   50 1    
    96   49  105 1    
    97   50   51 1    
    98   50   52 1    
    99   50  106 1    
   100   51  107 1    
   101   51  108 1    
   102   51  109 1    
   103   52   53 2    
   104   52   54 am   BACKBONE|DICT|INTERRES
   105   54   55 1    
   106   54  110 1    
   107   55   56 1    
   108   55   59 1    
   109   55  111 1    
   110   56   57 am   BACKBONE|DICT|INTERRES
   111   56   58 2    
   112   57  112 1    
   113   57  113 1    
   114   59   60 1    
   115   59  114 1    
   116   59  115 1    
   117   60   61 1    
   118   61  116 1    
   119   61  117 1    
@<TRIPOS>SUBSTRUCTURE
     1 UNK         1 GROUP             0       ****    0 ROOT    
