@<TRIPOS>MOLECULE
3R8
117   119    1
SMALL
USER_CHARGES


@<TRIPOS>ATOM
      1 CA         19.0505  -23.5614  -39.7068 C.3       0 UNK        -0.2013 
      2 C          18.4691  -23.8916  -41.0735 C.2       0 UNK         0.4866 
      3 O          17.8317  -23.0375  -41.6908 O.2       0 UNK        -0.5176 
      4 N          18.6758  -25.1263  -41.5467 N.am      1 UNK        -0.4884 
      5 CA         18.2364  -25.6055  -42.8609 C.3       1 UNK         0.0853 
      6 C6         18.3418  -27.1463  -42.9707 C.3       10 UNK        -0.0849 
      7 S7         17.2842  -28.0149  -41.7629 S.3       10 UNK        -0.2776 
      8 C8         16.3041  -29.1253  -42.8288 C.3       10 UNK         0.0316 
      9 C9         17.1827  -30.0819  -43.6255 C.ar      10 UNK        -0.0863 
     10 C10        17.9510  -31.0471  -42.9671 C.ar      10 UNK        -0.1009 
     11 C11        18.7893  -31.9017  -43.6883 C.ar      10 UNK        -0.0712 
     12 C12        18.8463  -31.7934  -45.0808 C.ar      10 UNK        -0.0894 
     13 C13        18.0833  -30.8337  -45.7522 C.ar      10 UNK        -0.0745 
     14 C14        17.2416  -29.9905  -45.0200 C.ar      10 UNK        -0.0972 
     15 C15        18.1928  -30.6954  -47.2656 C.3       10 UNK         0.0209 
     16 S16        18.7786  -29.0471  -47.7834 S.3       10 UNK        -0.2568 
     17 C17        20.3428  -28.8855  -46.8527 C.3       10 UNK        -0.0983 
     18 CA         20.9806  -27.4791  -46.9885 C.3       3 UNK         0.0876 
     19 N          20.0251  -26.4231  -46.6405 N.am      3 UNK        -0.4424 
     20 C          20.1319  -25.1253  -46.9520 C.2       2 UNK         0.4918 
     21 O          21.0358  -24.6566  -47.6433 O.2       2 UNK        -0.4875 
     22 CA         19.0614  -24.1865  -46.3591 C.3       2 UNK         0.0481 
     23 CB         17.9790  -23.8830  -47.4071 C.3       2 UNK        -0.1831 
     24 N          18.4246  -24.7049  -45.1387 N.am      2 UNK        -0.4498 
     25 C          19.0646  -24.9545  -43.9860 C.2       1 UNK         0.5027 
     26 O          20.2736  -24.7680  -43.8242 O.2       1 UNK        -0.4969 
     27 C          22.2872  -27.4044  -46.1614 C.2       3 UNK         0.5005 
     28 O          23.2422  -28.1039  -46.5037 O.2       3 UNK        -0.5279 
     29 N          22.3124  -26.5800  -45.0991 N.am      4 UNK        -0.4463 
     30 CA         23.3933  -26.4121  -44.1246 C.3       4 UNK         0.0283 
     31 CB         24.6677  -25.8391  -44.7881 C.3       4 UNK        -0.1875 
     32 C          23.6069  -27.6993  -43.3057 C.2       4 UNK         0.4949 
     33 O          22.6333  -28.2176  -42.7555 O.2       4 UNK        -0.5039 
     34 N          24.8635  -28.1609  -43.1940 N.am      5 UNK        -0.4663 
     35 CA         25.3100  -29.3758  -42.4902 C.3       5 UNK         0.0242 
     36 CB         24.8752  -30.6288  -43.2748 C.3       5 UNK        -0.1982 
     37 C          24.8876  -29.4241  -41.0060 C.2       5 UNK         0.5017 
     38 O          24.5745  -30.4946  -40.4798 O.2       5 UNK        -0.5012 
     39 N          24.8539  -28.2391  -40.3757 N.am      6 UNK        -0.4439 
     40 CA         24.4129  -27.9625  -39.0032 C.3       6 UNK         0.0297 
     41 CB         25.3940  -28.5845  -37.9861 C.3       6 UNK        -0.2006 
     42 C          22.9476  -28.3572  -38.7174 C.2       6 UNK         0.4892 
     43 O          22.6076  -28.5802  -37.5549 O.2       6 UNK        -0.5089 
     44 N          22.1143  -28.4710  -39.7663 N.am      7 UNK        -0.4243 
     45 CA         20.7034  -28.8944  -39.7853 C.3       7 UNK         0.0196 
     46 CB         19.8232  -27.9459  -38.9476 C.3       7 UNK        -0.2007 
     47 C          20.4548  -30.3660  -39.3943 C.2       7 UNK         0.5020 
     48 O          19.4871  -30.9562  -39.8709 O.2       7 UNK        -0.5147 
     49 N          21.3108  -30.9420  -38.5428 N.am      8 UNK        -0.4734 
     50 CA         21.2710  -32.3435  -38.1256 C.3       8 UNK         0.0238 
     51 CB         22.1446  -32.5211  -36.8732 C.3       8 UNK        -0.1912 
     52 C          21.7147  -33.3130  -39.2333 C.2       8 UNK         0.5038 
     53 O          21.2159  -34.4385  -39.2717 O.2       8 UNK        -0.5046 
     54 N          22.6404  -32.8686  -40.0966 N.am      9 UNK        -0.4200 
     55 CA         23.2190  -33.6340  -41.2148 C.3       9 UNK         0.0839 
     56 C          24.0779  -34.8632  -40.7862 C.2       9 UNK         0.5513 
     57 N          24.5727  -34.9237  -39.5554 N.am      9 UNK        -0.7519 
     58 O          24.3288  -35.7631  -41.5843 O.2       9 UNK        -0.4960 
     59 C59        22.1843  -33.9724  -42.3267 C.3       10 UNK        -0.0876 
     60 S60        21.4037  -32.4816  -43.0328 S.3       10 UNK        -0.2414 
     61 C61        19.6445  -32.9354  -42.9710 C.3       10 UNK         0.0169 
     62 H62        18.2516  -23.3064  -39.0111 H         1 UNK         0.0903 
     63 H63        19.6115  -24.3963  -39.2878 H         1 UNK         0.0903 
     64 H64        19.7226  -22.7070  -39.7822 H         1 UNK         0.0903 
     65 H65        19.2110  -25.7872  -41.0040 H         1 UNK         0.3096 
     66 H66        17.1910  -25.3157  -42.9909 H         1 UNK         0.1121 
     67 H67        18.0675  -27.4687  -43.9760 H         1 UNK         0.0849 
     68 H68        19.3718  -27.4786  -42.8216 H         1 UNK         0.0849 
     69 H69        15.6216  -29.7036  -42.2045 H         1 UNK         0.0865 
     70 H70        15.6780  -28.5246  -43.4905 H         1 UNK         0.0865 
     71 H71        17.9094  -31.1159  -41.8889 H         1 UNK         0.1346 
     72 H72        19.5052  -32.4464  -45.6369 H         1 UNK         0.1412 
     73 H73        16.6553  -29.2446  -45.5393 H         1 UNK         0.1426 
     74 H74        17.2147  -30.8795  -47.7119 H         1 UNK         0.0716 
     75 H75        18.8656  -31.4493  -47.6775 H         1 UNK         0.0716 
     76 H76        21.0295  -29.6559  -47.2088 H         1 UNK         0.0695 
     77 H77        20.1533  -29.1052  -45.8002 H         1 UNK         0.0695 
     78 H78        21.2645  -27.3366  -48.0336 H         1 UNK         0.0983 
     79 H79        19.2193  -26.7208  -46.1130 H         1 UNK         0.3095 
     80 H80        19.5579  -23.2491  -46.1000 H         1 UNK         0.0454 
     81 H81        18.4202  -23.4676  -48.3143 H         1 UNK         0.0851 
     82 H82        17.2599  -23.1521  -47.0370 H         1 UNK         0.0851 
     83 H83        17.4305  -24.7809  -47.6946 H         1 UNK         0.0851 
     84 H84        17.4322  -24.8871  -45.1962 H         1 UNK         0.2976 
     85 H85        21.4723  -26.0549  -44.8810 H         1 UNK         0.3116 
     86 H86        23.0362  -25.6653  -43.4140 H         1 UNK         0.0646 
     87 H87        25.1269  -26.5414  -45.4846 H         1 UNK         0.0847 
     88 H88        24.4399  -24.9299  -45.3447 H         1 UNK         0.0847 
     89 H89        25.4166  -25.5708  -44.0420 H         1 UNK         0.0847 
     90 H90        25.5896  -27.6473  -43.6748 H         1 UNK         0.3040 
     91 H91        26.4009  -29.3511  -42.4891 H         1 UNK         0.1015 
     92 H92        25.3370  -31.5269  -42.8647 H         1 UNK         0.0786 
     93 H93        25.1706  -30.5652  -44.3220 H         1 UNK         0.0786 
     94 H94        23.7943  -30.7646  -43.2413 H         1 UNK         0.0786 
     95 H95        25.1173  -27.4281  -40.9184 H         1 UNK         0.3172 
     96 H96        24.4577  -26.8791  -38.8843 H         1 UNK         0.0595 
     97 H97        25.3512  -29.6741  -37.9971 H         1 UNK         0.0839 
     98 H98        25.1649  -28.2616  -36.9698 H         1 UNK         0.0839 
     99 H99        26.4221  -28.2873  -38.1923 H         1 UNK         0.0839 
    100 H100       22.5079  -28.3227  -40.6909 H         1 UNK         0.2998 
    101 H101       20.3892  -28.8031  -40.8267 H         1 UNK         0.0822 
    102 H102       18.7670  -28.1884  -39.0710 H         1 UNK         0.0787 
    103 H103       19.9574  -26.9086  -39.2500 H         1 UNK         0.0787 
    104 H104       20.0450  -28.0164  -37.8825 H         1 UNK         0.0787 
    105 H105       22.0264  -30.3489  -38.1349 H         1 UNK         0.3055 
    106 H106       20.2399  -32.5938  -37.8656 H         1 UNK         0.1106 
    107 H107       21.7880  -31.9008  -36.0506 H         1 UNK         0.0828 
    108 H108       22.1273  -33.5559  -36.5282 H         1 UNK         0.0828 
    109 H109       23.1855  -32.2570  -37.0647 H         1 UNK         0.0828 
    110 H110       23.0105  -31.9324  -39.9841 H         1 UNK         0.2931 
    111 H111       23.9453  -32.9580  -41.6626 H         1 UNK         0.0412 
    112 H112       24.3930  -34.1834  -38.8966 H         1 UNK         0.3472 
    113 H113       25.1356  -35.7157  -39.2867 H         1 UNK         0.3472 
    114 H114       22.6670  -34.4977  -43.1525 H         1 UNK         0.0970 
    115 H115       21.4223  -34.6528  -41.9441 H         1 UNK         0.0970 
    116 H116       19.5020  -33.9097  -43.4408 H         1 UNK         0.0612 
    117 H117       19.3394  -33.0391  -41.9282 H         1 UNK         0.0612 
@<TRIPOS>BOND
     1    1    2 1    
     2    1   62 1    
     3    1   63 1    
     4    1   64 1    
     5    2    3 2    
     6    2    4 am   BACKBONE|DICT|INTERRES
     7    4    5 1    
     8    4   65 1    
     9    5    6 1    
    10    5   25 1    
    11    5   66 1    
    12    6    7 1    
    13    6   67 1    
    14    6   68 1    
    15    7    8 1    
    16    8    9 1    
    17    8   69 1    
    18    8   70 1    
    19    9   10 ar   
    20    9   14 ar   
    21   10   11 ar   
    22   10   71 1    
    23   11   12 ar   
    24   11   61 1    
    25   12   13 ar   
    26   12   72 1    
    27   13   14 ar   
    28   13   15 1    
    29   14   73 1    
    30   15   16 1    
    31   15   74 1    
    32   15   75 1    
    33   16   17 1    
    34   17   18 1    
    35   17   76 1    
    36   17   77 1    
    37   18   19 1    
    38   18   27 1    
    39   18   78 1    
    40   19   20 am   BACKBONE|DICT|INTERRES
    41   19   79 1    
    42   20   21 2    
    43   20   22 1    
    44   22   23 1    
    45   22   24 1    
    46   22   80 1    
    47   23   81 1    
    48   23   82 1    
    49   23   83 1    
    50   24   25 am   BACKBONE|DICT|INTERRES
    51   24   84 1    
    52   25   26 2    
    53   27   28 2    
    54   27   29 am   BACKBONE|DICT|INTERRES
    55   29   30 1    
    56   29   85 1    
    57   30   31 1    
    58   30   32 1    
    59   30   86 1    
    60   31   87 1    
    61   31   88 1    
    62   31   89 1    
    63   32   33 2    
    64   32   34 am   BACKBONE|DICT|INTERRES
    65   34   35 1    
    66   34   90 1    
    67   35   36 1    
    68   35   37 1    
    69   35   91 1    
    70   36   92 1    
    71   36   93 1    
    72   36   94 1    
    73   37   38 2    
    74   37   39 am   BACKBONE|DICT|INTERRES
    75   39   40 1    
    76   39   95 1    
    77   40   41 1    
    78   40   42 1    
    79   40   96 1    
    80   41   97 1    
    81   41   98 1    
    82   41   99 1    
    83   42   43 2    
    84   42   44 am   BACKBONE|DICT|INTERRES
    85   44   45 1    
    86   44  100 1    
    87   45   46 1    
    88   45   47 1    
    89   45  101 1    
    90   46  102 1    
    91   46  103 1    
    92   46  104 1    
    93   47   48 2    
    94   47   49 am   BACKBONE|DICT|INTERRES
    95   49   50 1    
    96   49  105 1    
    97   50   51 1    
    98   50   52 1    
    99   50  106 1    
   100   51  107 1    
   101   51  108 1    
   102   51  109 1    
   103   52   53 2    
   104   52   54 am   BACKBONE|DICT|INTERRES
   105   54   55 1    
   106   54  110 1    
   107   55   56 1    
   108   55   59 1    
   109   55  111 1    
   110   56   57 am   BACKBONE|DICT|INTERRES
   111   56   58 2    
   112   57  112 1    
   113   57  113 1    
   114   59   60 1    
   115   59  114 1    
   116   59  115 1    
   117   60   61 1    
   118   61  116 1    
   119   61  117 1    
@<TRIPOS>SUBSTRUCTURE
     1 UNK         1 GROUP             0       ****    0 ROOT    
