@<TRIPOS>MOLECULE
3R8
117   119    1
SMALL
USER_CHARGES


@<TRIPOS>ATOM
      1 CA         15.7910  -21.1550  -43.3313 C.3       0 UNK        -0.2013 
      2 C          16.5997  -22.2158  -44.0632 C.2       0 UNK         0.4866 
      3 O          17.5591  -21.8823  -44.7600 O.2       0 UNK        -0.5176 
      4 N          16.2151  -23.4894  -43.9188 N.am      1 UNK        -0.4884 
      5 CA         16.9205  -24.6460  -44.4798 C.3       1 UNK         0.0853 
      6 C6         15.9675  -25.8591  -44.6344 C.3       10 UNK        -0.0849 
      7 S7         15.3111  -26.5142  -43.0554 S.3       10 UNK        -0.2776 
      8 C8         14.9783  -28.2575  -43.4685 C.3       10 UNK         0.0316 
      9 C9         16.2494  -29.0446  -43.7612 C.ar      10 UNK        -0.0863 
     10 C10        17.0527  -29.5110  -42.7140 C.ar      10 UNK        -0.1009 
     11 C11        18.2027  -30.2597  -42.9852 C.ar      10 UNK        -0.0712 
     12 C12        18.5451  -30.5359  -44.3114 C.ar      10 UNK        -0.0894 
     13 C13        17.7608  -30.0639  -45.3666 C.ar      10 UNK        -0.0745 
     14 C14        16.6083  -29.3273  -45.0834 C.ar      10 UNK        -0.0972 
     15 C15        18.1387  -30.3668  -46.8102 C.3       10 UNK         0.0209 
     16 S16        19.1857  -29.0624  -47.5349 S.3       10 UNK        -0.2568 
     17 C17        20.8272  -29.5068  -46.8741 C.3       10 UNK        -0.0983 
     18 CA         21.7226  -28.2720  -46.5747 C.3       3 UNK         0.0876 
     19 N          21.1010  -27.3017  -45.6623 N.am      3 UNK        -0.4424 
     20 C          20.8916  -27.4615  -44.3462 C.2       2 UNK         0.4918 
     21 O          21.1630  -28.4826  -43.7147 O.2       2 UNK        -0.4875 
     22 CA         20.3065  -26.2613  -43.6009 C.3       2 UNK         0.0481 
     23 CB         21.3608  -25.1459  -43.4472 C.3       2 UNK        -0.1831 
     24 N          19.0956  -25.7683  -44.2573 N.am      2 UNK        -0.4498 
     25 C          18.1859  -24.9879  -43.6591 C.2       1 UNK         0.5027 
     26 O          18.3063  -24.5637  -42.5051 O.2       1 UNK        -0.4969 
     27 C          23.1324  -28.6461  -46.0620 C.2       3 UNK         0.5005 
     28 O          24.0457  -27.8217  -46.1474 O.2       3 UNK        -0.5279 
     29 N          23.2722  -29.8434  -45.4761 N.am      4 UNK        -0.4463 
     30 CA         24.4474  -30.3061  -44.7410 C.3       4 UNK         0.0283 
     31 CB         24.4268  -31.8432  -44.6821 C.3       4 UNK        -0.1875 
     32 C          24.5149  -29.6633  -43.3418 C.2       4 UNK         0.4949 
     33 O          24.3213  -30.3444  -42.3329 O.2       4 UNK        -0.5039 
     34 N          24.7752  -28.3492  -43.3216 N.am      5 UNK        -0.4663 
     35 CA         25.1189  -27.5059  -42.1672 C.3       5 UNK         0.0242 
     36 CB         26.4908  -27.9353  -41.6033 C.3       5 UNK        -0.1982 
     37 C          24.0629  -27.4054  -41.0468 C.2       5 UNK         0.5017 
     38 O          24.3932  -26.8961  -39.9745 O.2       5 UNK        -0.5012 
     39 N          22.8322  -27.8844  -41.2834 N.am      6 UNK        -0.4439 
     40 CA         21.6853  -27.9717  -40.3647 C.3       6 UNK         0.0297 
     41 CB         21.2499  -26.5845  -39.8489 C.3       6 UNK        -0.2006 
     42 C          21.8894  -28.9457  -39.1899 C.2       6 UNK         0.4892 
     43 O          21.0236  -29.7852  -38.9464 O.2       6 UNK        -0.5089 
     44 N          23.0121  -28.8047  -38.4757 N.am      7 UNK        -0.4243 
     45 CA         23.3809  -29.5929  -37.3012 C.3       7 UNK         0.0196 
     46 CB         24.5294  -28.8894  -36.5604 C.3       7 UNK        -0.2007 
     47 C          23.7646  -31.0410  -37.6393 C.2       7 UNK         0.5020 
     48 O          23.4596  -31.9367  -36.8514 O.2       7 UNK        -0.5147 
     49 N          24.4280  -31.2503  -38.7861 N.am      8 UNK        -0.4734 
     50 CA         24.7915  -32.5822  -39.2740 C.3       8 UNK         0.0238 
     51 CB         26.0284  -32.5079  -40.1860 C.3       8 UNK        -0.1912 
     52 C          23.5952  -33.2451  -39.9693 C.2       8 UNK         0.5038 
     53 O          23.1823  -34.3275  -39.5515 O.2       8 UNK        -0.5046 
     54 N          23.0431  -32.5675  -40.9870 N.am      9 UNK        -0.4200 
     55 CA         21.8439  -32.9810  -41.7361 C.3       9 UNK         0.0839 
     56 C          22.0105  -34.2986  -42.5609 C.2       9 UNK         0.5513 
     57 N          23.2286  -34.7301  -42.8675 N.am      9 UNK        -0.7519 
     58 O          21.0339  -34.9300  -42.9544 O.2       9 UNK        -0.4960 
     59 C59        20.5691  -32.9445  -40.8387 C.3       10 UNK        -0.0876 
     60 S60        19.0378  -32.5883  -41.7644 S.3       10 UNK        -0.2414 
     61 C61        19.0922  -30.7718  -41.8618 C.3       10 UNK         0.0169 
     62 H62        14.9645  -21.5886  -42.7684 H         1 UNK         0.0903 
     63 H63        16.4288  -20.6131  -42.6335 H         1 UNK         0.0903 
     64 H64        15.3784  -20.4399  -44.0425 H         1 UNK         0.0903 
     65 H65        15.4478  -23.7156  -43.3013 H         1 UNK         0.3096 
     66 H66        17.2604  -24.3689  -45.4808 H         1 UNK         0.1121 
     67 H67        16.4809  -26.6499  -45.1791 H         1 UNK         0.0849 
     68 H68        15.1197  -25.5821  -45.2631 H         1 UNK         0.0849 
     69 H69        14.4522  -28.7216  -42.6330 H         1 UNK         0.0865 
     70 H70        14.2926  -28.3014  -44.3162 H         1 UNK         0.0865 
     71 H71        16.7792  -29.2932  -41.6906 H         1 UNK         0.1346 
     72 H72        19.4258  -31.1287  -44.5110 H         1 UNK         0.1412 
     73 H73        15.9903  -28.9727  -45.8972 H         1 UNK         0.1426 
     74 H74        17.2341  -30.4609  -47.4130 H         1 UNK         0.0716 
     75 H75        18.6468  -31.3300  -46.8798 H         1 UNK         0.0716 
     76 H76        21.3106  -30.1567  -47.6060 H         1 UNK         0.0695 
     77 H77        20.6927  -30.1053  -45.9766 H         1 UNK         0.0695 
     78 H78        21.8790  -27.7470  -47.5186 H         1 UNK         0.0983 
     79 H79        20.9040  -26.4011  -46.0728 H         1 UNK         0.3095 
     80 H80        20.0253  -26.6185  -42.6088 H         1 UNK         0.0454 
     81 H81        21.0138  -24.3559  -42.7815 H         1 UNK         0.0851 
     82 H82        21.6095  -24.6867  -44.4042 H         1 UNK         0.0851 
     83 H83        22.2863  -25.5358  -43.0224 H         1 UNK         0.0851 
     84 H84        18.9020  -26.1410  -45.1769 H         1 UNK         0.2976 
     85 H85        22.4451  -30.4147  -45.3870 H         1 UNK         0.3116 
     86 H86        25.3471  -30.0075  -45.2833 H         1 UNK         0.0646 
     87 H87        23.5179  -32.2145  -44.2112 H         1 UNK         0.0847 
     88 H88        24.4874  -32.2790  -45.6793 H         1 UNK         0.0847 
     89 H89        25.2734  -32.2259  -44.1104 H         1 UNK         0.0847 
     90 H90        24.8137  -27.8894  -44.2268 H         1 UNK         0.3040 
     91 H91        25.2251  -26.4926  -42.5578 H         1 UNK         0.1015 
     92 H92        26.8433  -27.2388  -40.8414 H         1 UNK         0.0786 
     93 H93        27.2501  -27.9624  -42.3848 H         1 UNK         0.0786 
     94 H94        26.4471  -28.9239  -41.1446 H         1 UNK         0.0786 
     95 H95        22.6722  -28.3136  -42.1887 H         1 UNK         0.3172 
     96 H96        20.8636  -28.3675  -40.9625 H         1 UNK         0.0595 
     97 H97        21.9865  -26.1449  -39.1759 H         1 UNK         0.0839 
     98 H98        20.3134  -26.6571  -39.2945 H         1 UNK         0.0839 
     99 H99        21.0876  -25.8803  -40.6625 H         1 UNK         0.0839 
    100 H100       23.6576  -28.0769  -38.7747 H         1 UNK         0.2998 
    101 H101       22.5156  -29.6281  -36.6355 H         1 UNK         0.0822 
    102 H102       24.8172  -29.4458  -35.6672 H         1 UNK         0.0787 
    103 H103       24.2391  -27.8890  -36.2385 H         1 UNK         0.0787 
    104 H104       25.4170  -28.7952  -37.1875 H         1 UNK         0.0787 
    105 H105       24.6163  -30.4646  -39.3923 H         1 UNK         0.3055 
    106 H106       25.0594  -33.2099  -38.4204 H         1 UNK         0.1106 
    107 H107       25.8719  -31.8711  -41.0545 H         1 UNK         0.0828 
    108 H108       26.8916  -32.1206  -39.6446 H         1 UNK         0.0828 
    109 H109       26.2985  -33.4983  -40.5545 H         1 UNK         0.0828 
    110 H110       23.4847  -31.7082  -41.3048 H         1 UNK         0.2931 
    111 H111       21.7324  -32.2013  -42.4900 H         1 UNK         0.0412 
    112 H112       24.0434  -34.2306  -42.5513 H         1 UNK         0.3472 
    113 H113       23.3303  -35.5767  -43.4049 H         1 UNK         0.3472 
    114 H114       20.4493  -33.8877  -40.3029 H         1 UNK         0.0970 
    115 H115       20.6688  -32.1817  -40.0653 H         1 UNK         0.0970 
    116 H116       20.1160  -30.4447  -42.0475 H         1 UNK         0.0612 
    117 H117       18.7993  -30.3486  -40.8998 H         1 UNK         0.0612 
@<TRIPOS>BOND
     1    1    2 1    
     2    1   62 1    
     3    1   63 1    
     4    1   64 1    
     5    2    3 2    
     6    2    4 am   BACKBONE|DICT|INTERRES
     7    4    5 1    
     8    4   65 1    
     9    5    6 1    
    10    5   25 1    
    11    5   66 1    
    12    6    7 1    
    13    6   67 1    
    14    6   68 1    
    15    7    8 1    
    16    8    9 1    
    17    8   69 1    
    18    8   70 1    
    19    9   10 ar   
    20    9   14 ar   
    21   10   11 ar   
    22   10   71 1    
    23   11   12 ar   
    24   11   61 1    
    25   12   13 ar   
    26   12   72 1    
    27   13   14 ar   
    28   13   15 1    
    29   14   73 1    
    30   15   16 1    
    31   15   74 1    
    32   15   75 1    
    33   16   17 1    
    34   17   18 1    
    35   17   76 1    
    36   17   77 1    
    37   18   19 1    
    38   18   27 1    
    39   18   78 1    
    40   19   20 am   BACKBONE|DICT|INTERRES
    41   19   79 1    
    42   20   21 2    
    43   20   22 1    
    44   22   23 1    
    45   22   24 1    
    46   22   80 1    
    47   23   81 1    
    48   23   82 1    
    49   23   83 1    
    50   24   25 am   BACKBONE|DICT|INTERRES
    51   24   84 1    
    52   25   26 2    
    53   27   28 2    
    54   27   29 am   BACKBONE|DICT|INTERRES
    55   29   30 1    
    56   29   85 1    
    57   30   31 1    
    58   30   32 1    
    59   30   86 1    
    60   31   87 1    
    61   31   88 1    
    62   31   89 1    
    63   32   33 2    
    64   32   34 am   BACKBONE|DICT|INTERRES
    65   34   35 1    
    66   34   90 1    
    67   35   36 1    
    68   35   37 1    
    69   35   91 1    
    70   36   92 1    
    71   36   93 1    
    72   36   94 1    
    73   37   38 2    
    74   37   39 am   BACKBONE|DICT|INTERRES
    75   39   40 1    
    76   39   95 1    
    77   40   41 1    
    78   40   42 1    
    79   40   96 1    
    80   41   97 1    
    81   41   98 1    
    82   41   99 1    
    83   42   43 2    
    84   42   44 am   BACKBONE|DICT|INTERRES
    85   44   45 1    
    86   44  100 1    
    87   45   46 1    
    88   45   47 1    
    89   45  101 1    
    90   46  102 1    
    91   46  103 1    
    92   46  104 1    
    93   47   48 2    
    94   47   49 am   BACKBONE|DICT|INTERRES
    95   49   50 1    
    96   49  105 1    
    97   50   51 1    
    98   50   52 1    
    99   50  106 1    
   100   51  107 1    
   101   51  108 1    
   102   51  109 1    
   103   52   53 2    
   104   52   54 am   BACKBONE|DICT|INTERRES
   105   54   55 1    
   106   54  110 1    
   107   55   56 1    
   108   55   59 1    
   109   55  111 1    
   110   56   57 am   BACKBONE|DICT|INTERRES
   111   56   58 2    
   112   57  112 1    
   113   57  113 1    
   114   59   60 1    
   115   59  114 1    
   116   59  115 1    
   117   60   61 1    
   118   61  116 1    
   119   61  117 1    
@<TRIPOS>SUBSTRUCTURE
     1 UNK         1 GROUP             0       ****    0 ROOT    
