@<TRIPOS>MOLECULE
3R8
117   119    1
SMALL
USER_CHARGES


@<TRIPOS>ATOM
      1 CA         14.4281  -22.0136  -45.1377 C.3       0 UNK        -0.2013 
      2 C          14.5696  -23.5259  -45.2301 C.2       0 UNK         0.4866 
      3 O          13.7098  -24.2454  -44.7229 O.2       0 UNK        -0.5176 
      4 N          15.6412  -23.9973  -45.8839 N.am      1 UNK        -0.4884 
      5 CA         16.0353  -25.4016  -46.0547 C.3       1 UNK         0.0853 
      6 C6         14.9562  -26.2761  -46.7517 C.3       10 UNK        -0.0849 
      7 S7         15.6887  -27.5808  -47.7974 S.3       10 UNK        -0.2776 
      8 C8         15.4314  -29.0962  -46.8123 C.3       10 UNK         0.0316 
      9 C9         16.6373  -29.4665  -45.9541 C.ar      10 UNK        -0.0863 
     10 C10        16.4996  -29.6384  -44.5713 C.ar      10 UNK        -0.1009 
     11 C11        17.5831  -30.0446  -43.7837 C.ar      10 UNK        -0.0712 
     12 C12        18.8055  -30.3030  -44.4119 C.ar      10 UNK        -0.0894 
     13 C13        18.9752  -30.1010  -45.7814 C.ar      10 UNK        -0.0745 
     14 C14        17.8833  -29.6903  -46.5502 C.ar      10 UNK        -0.0972 
     15 C15        20.3341  -30.3437  -46.4260 C.3       10 UNK         0.0209 
     16 S16        21.4968  -28.9661  -46.1348 S.3       10 UNK        -0.2568 
     17 C17        22.1635  -29.3429  -44.4735 C.3       10 UNK        -0.0983 
     18 CA         21.9175  -28.2284  -43.4158 C.3       3 UNK         0.0876 
     19 N          20.5084  -27.8406  -43.2881 N.am      3 UNK        -0.4424 
     20 C          19.9778  -26.6864  -43.7001 C.2       2 UNK         0.4918 
     21 O          20.5931  -25.8102  -44.3113 O.2       2 UNK        -0.4875 
     22 CA         18.5153  -26.4493  -43.3193 C.3       2 UNK         0.0481 
     23 CB         18.4006  -25.5271  -42.0925 C.3       2 UNK        -0.1831 
     24 N          17.8304  -25.8639  -44.4639 N.am      2 UNK        -0.4498 
     25 C          16.5248  -25.9964  -44.7191 C.2       1 UNK         0.5027 
     26 O          15.7296  -26.5348  -43.9455 O.2       1 UNK        -0.4969 
     27 C          22.4417  -28.6216  -42.0168 C.2       3 UNK         0.5005 
     28 O          23.3001  -29.5003  -41.8960 O.2       3 UNK        -0.5279 
     29 N          21.8863  -27.9902  -40.9697 N.am      4 UNK        -0.4463 
     30 CA         22.1386  -28.2970  -39.5619 C.3       4 UNK         0.0283 
     31 CB         21.1273  -27.5530  -38.6758 C.3       4 UNK        -0.1875 
     32 C          23.5802  -27.9895  -39.1357 C.2       4 UNK         0.4949 
     33 O          24.2319  -28.8402  -38.5322 O.2       4 UNK        -0.5039 
     34 N          24.0668  -26.7973  -39.5031 N.am      5 UNK        -0.4663 
     35 CA         25.4445  -26.3644  -39.2505 C.3       5 UNK         0.0242 
     36 CB         25.5382  -24.8421  -39.4448 C.3       5 UNK        -0.1982 
     37 C          26.4752  -27.0851  -40.1378 C.2       5 UNK         0.5017 
     38 O          27.6448  -27.1603  -39.7603 O.2       5 UNK        -0.5012 
     39 N          26.0277  -27.5832  -41.2985 N.am      6 UNK        -0.4439 
     40 CA         26.8516  -28.2980  -42.2686 C.3       6 UNK         0.0297 
     41 CB         26.2154  -28.2054  -43.6654 C.3       6 UNK        -0.2006 
     42 C          27.0846  -29.7600  -41.8624 C.2       6 UNK         0.4892 
     43 O          28.2395  -30.1865  -41.8170 O.2       6 UNK        -0.5089 
     44 N          26.0013  -30.5058  -41.5976 N.am      7 UNK        -0.4243 
     45 CA         26.0577  -31.9532  -41.3716 C.3       7 UNK         0.0196 
     46 CB         26.1887  -32.6849  -42.7263 C.3       7 UNK        -0.2007 
     47 C          24.8749  -32.4814  -40.5432 C.2       7 UNK         0.5020 
     48 O          24.4992  -33.6415  -40.7169 O.2       7 UNK        -0.5147 
     49 N          24.2858  -31.6474  -39.6704 N.am      8 UNK        -0.4734 
     50 CA         23.1520  -31.9766  -38.7849 C.3       8 UNK         0.0238 
     51 CB         23.5904  -32.9878  -37.7030 C.3       8 UNK        -0.1912 
     52 C          21.8805  -32.4340  -39.5359 C.2       8 UNK         0.5038 
     53 O          21.0916  -33.2018  -38.9823 O.2       8 UNK        -0.5046 
     54 N          21.7255  -31.9804  -40.7889 N.am      9 UNK        -0.4200 
     55 CA         20.7331  -32.4561  -41.7690 C.3       9 UNK         0.0839 
     56 C          20.9110  -33.9462  -42.2030 C.2       9 UNK         0.5513 
     57 N          22.0506  -34.5849  -41.9659 N.am      9 UNK        -0.7519 
     58 O          20.0126  -34.5306  -42.8029 O.2       9 UNK        -0.4960 
     59 C59        19.2600  -32.1139  -41.3881 C.3       10 UNK        -0.0876 
     60 S60        18.9227  -30.3208  -41.2679 S.3       10 UNK        -0.2414 
     61 C61        17.3908  -30.1715  -42.2678 C.3       10 UNK         0.0169 
     62 H62        14.4140  -21.7017  -44.0936 H         1 UNK         0.0903 
     63 H63        15.2466  -21.4936  -45.6352 H         1 UNK         0.0903 
     64 H64        13.4943  -21.6954  -45.6005 H         1 UNK         0.0903 
     65 H65        16.2979  -23.3291  -46.2649 H         1 UNK         0.3096 
     66 H66        16.8976  -25.3617  -46.7232 H         1 UNK         0.1121 
     67 H67        14.2381  -26.6940  -46.0439 H         1 UNK         0.0849 
     68 H68        14.3616  -25.6541  -47.4225 H         1 UNK         0.0849 
     69 H69        14.5297  -29.0004  -46.2058 H         1 UNK         0.0865 
     70 H70        15.2400  -29.9213  -47.4997 H         1 UNK         0.0865 
     71 H71        15.5434  -29.4495  -44.1020 H         1 UNK         0.1346 
     72 H72        19.6476  -30.6391  -43.8371 H         1 UNK         0.1412 
     73 H73        17.9979  -29.5528  -47.6170 H         1 UNK         0.1426 
     74 H74        20.2160  -30.4689  -47.5033 H         1 UNK         0.0716 
     75 H75        20.7627  -31.2788  -46.0623 H         1 UNK         0.0716 
     76 H76        21.7772  -30.3003  -44.1305 H         1 UNK         0.0695 
     77 H77        23.2351  -29.5024  -44.5979 H         1 UNK         0.0695 
     78 H78        22.5078  -27.3593  -43.7143 H         1 UNK         0.0983 
     79 H79        19.9170  -28.5013  -42.8009 H         1 UNK         0.3095 
     80 H80        18.0567  -27.4089  -43.0802 H         1 UNK         0.0454 
     81 H81        18.8454  -24.5491  -42.2807 H         1 UNK         0.0851 
     82 H82        17.3595  -25.3714  -41.8096 H         1 UNK         0.0851 
     83 H83        18.9071  -25.9583  -41.2284 H         1 UNK         0.0851 
     84 H84        18.4403  -25.4136  -45.1347 H         1 UNK         0.2976 
     85 H85        21.2009  -27.2742  -41.1587 H         1 UNK         0.3116 
     86 H86        21.9658  -29.3640  -39.4309 H         1 UNK         0.0646 
     87 H87        21.2912  -27.7821  -37.6218 H         1 UNK         0.0847 
     88 H88        20.1041  -27.8466  -38.9120 H         1 UNK         0.0847 
     89 H89        21.2011  -26.4708  -38.7886 H         1 UNK         0.0847 
     90 H90        23.4631  -26.1537  -39.9943 H         1 UNK         0.3040 
     91 H91        25.6935  -26.5939  -38.2115 H         1 UNK         0.1015 
     92 H92        24.8640  -24.3135  -38.7706 H         1 UNK         0.0786 
     93 H93        25.2928  -24.5480  -40.4662 H         1 UNK         0.0786 
     94 H94        26.5474  -24.4838  -39.2365 H         1 UNK         0.0786 
     95 H95        25.0431  -27.5004  -41.4996 H         1 UNK         0.3172 
     96 H96        27.8263  -27.8073  -42.3210 H         1 UNK         0.0595 
     97 H97        26.1156  -27.1691  -43.9887 H         1 UNK         0.0839 
     98 H98        25.2277  -28.6627  -43.6953 H         1 UNK         0.0839 
     99 H99        26.8311  -28.7166  -44.4068 H         1 UNK         0.0839 
    100 H100       25.0727  -30.0934  -41.6700 H         1 UNK         0.2998 
    101 H101       26.9455  -32.1788  -40.7769 H         1 UNK         0.0822 
    102 H102       27.0672  -32.3538  -43.2799 H         1 UNK         0.0787 
    103 H103       26.2915  -33.7621  -42.5888 H         1 UNK         0.0787 
    104 H104       25.3136  -32.5160  -43.3550 H         1 UNK         0.0787 
    105 H105       24.6413  -30.7020  -39.5764 H         1 UNK         0.3055 
    106 H106       22.8793  -31.0620  -38.2606 H         1 UNK         0.1106 
    107 H107       23.8071  -33.9687  -38.1271 H         1 UNK         0.0828 
    108 H108       24.4813  -32.6446  -37.1774 H         1 UNK         0.0828 
    109 H109       22.8093  -33.1248  -36.9541 H         1 UNK         0.0828 
    110 H110       22.4260  -31.3441  -41.1498 H         1 UNK         0.2931 
    111 H111       20.9723  -31.9053  -42.6749 H         1 UNK         0.0412 
    112 H112       22.1444  -35.5414  -42.2677 H         1 UNK         0.3472 
    113 H113       22.8241  -34.1365  -41.4825 H         1 UNK         0.3472 
    114 H114       18.9869  -32.5834  -40.4424 H         1 UNK         0.0970 
    115 H115       18.5759  -32.5325  -42.1280 H         1 UNK         0.0970 
    116 H116       16.7351  -31.0175  -42.0576 H         1 UNK         0.0612 
    117 H117       16.8609  -29.2855  -41.9146 H         1 UNK         0.0612 
@<TRIPOS>BOND
     1    1    2 1    
     2    1   62 1    
     3    1   63 1    
     4    1   64 1    
     5    2    3 2    
     6    2    4 am   BACKBONE|DICT|INTERRES
     7    4    5 1    
     8    4   65 1    
     9    5    6 1    
    10    5   25 1    
    11    5   66 1    
    12    6    7 1    
    13    6   67 1    
    14    6   68 1    
    15    7    8 1    
    16    8    9 1    
    17    8   69 1    
    18    8   70 1    
    19    9   10 ar   
    20    9   14 ar   
    21   10   11 ar   
    22   10   71 1    
    23   11   12 ar   
    24   11   61 1    
    25   12   13 ar   
    26   12   72 1    
    27   13   14 ar   
    28   13   15 1    
    29   14   73 1    
    30   15   16 1    
    31   15   74 1    
    32   15   75 1    
    33   16   17 1    
    34   17   18 1    
    35   17   76 1    
    36   17   77 1    
    37   18   19 1    
    38   18   27 1    
    39   18   78 1    
    40   19   20 am   BACKBONE|DICT|INTERRES
    41   19   79 1    
    42   20   21 2    
    43   20   22 1    
    44   22   23 1    
    45   22   24 1    
    46   22   80 1    
    47   23   81 1    
    48   23   82 1    
    49   23   83 1    
    50   24   25 am   BACKBONE|DICT|INTERRES
    51   24   84 1    
    52   25   26 2    
    53   27   28 2    
    54   27   29 am   BACKBONE|DICT|INTERRES
    55   29   30 1    
    56   29   85 1    
    57   30   31 1    
    58   30   32 1    
    59   30   86 1    
    60   31   87 1    
    61   31   88 1    
    62   31   89 1    
    63   32   33 2    
    64   32   34 am   BACKBONE|DICT|INTERRES
    65   34   35 1    
    66   34   90 1    
    67   35   36 1    
    68   35   37 1    
    69   35   91 1    
    70   36   92 1    
    71   36   93 1    
    72   36   94 1    
    73   37   38 2    
    74   37   39 am   BACKBONE|DICT|INTERRES
    75   39   40 1    
    76   39   95 1    
    77   40   41 1    
    78   40   42 1    
    79   40   96 1    
    80   41   97 1    
    81   41   98 1    
    82   41   99 1    
    83   42   43 2    
    84   42   44 am   BACKBONE|DICT|INTERRES
    85   44   45 1    
    86   44  100 1    
    87   45   46 1    
    88   45   47 1    
    89   45  101 1    
    90   46  102 1    
    91   46  103 1    
    92   46  104 1    
    93   47   48 2    
    94   47   49 am   BACKBONE|DICT|INTERRES
    95   49   50 1    
    96   49  105 1    
    97   50   51 1    
    98   50   52 1    
    99   50  106 1    
   100   51  107 1    
   101   51  108 1    
   102   51  109 1    
   103   52   53 2    
   104   52   54 am   BACKBONE|DICT|INTERRES
   105   54   55 1    
   106   54  110 1    
   107   55   56 1    
   108   55   59 1    
   109   55  111 1    
   110   56   57 am   BACKBONE|DICT|INTERRES
   111   56   58 2    
   112   57  112 1    
   113   57  113 1    
   114   59   60 1    
   115   59  114 1    
   116   59  115 1    
   117   60   61 1    
   118   61  116 1    
   119   61  117 1    
@<TRIPOS>SUBSTRUCTURE
     1 UNK         1 GROUP             0       ****    0 ROOT    
