@<TRIPOS>MOLECULE
3R8
117   119    1
SMALL
USER_CHARGES


@<TRIPOS>ATOM
      1 CA         14.7954  -25.5810  -40.8882 C.3       0 UNK        -0.2013 
      2 C          15.0023  -25.8080  -42.3782 C.2       0 UNK         0.4866 
      3 O          14.0363  -26.0519  -43.1010 O.2       0 UNK        -0.5176 
      4 N          16.2525  -25.7267  -42.8424 N.am      1 UNK        -0.4884 
      5 CA         16.6583  -25.8689  -44.2393 C.3       1 UNK         0.0853 
      6 C6         16.6483  -27.3461  -44.7132 C.3       10 UNK        -0.0849 
      7 S7         16.4644  -27.5000  -46.5244 S.3       10 UNK        -0.2776 
      8 C8         16.3214  -29.3046  -46.7216 C.3       10 UNK         0.0316 
      9 C9         17.5490  -30.0217  -46.1825 C.ar      10 UNK        -0.0863 
     10 C10        17.5067  -30.6329  -44.9255 C.ar      10 UNK        -0.1009 
     11 C11        18.6443  -31.2490  -44.3995 C.ar      10 UNK        -0.0712 
     12 C12        19.8186  -31.2791  -45.1545 C.ar      10 UNK        -0.0894 
     13 C13        19.8829  -30.6456  -46.3987 C.ar      10 UNK        -0.0745 
     14 C14        18.7388  -30.0328  -46.9172 C.ar      10 UNK        -0.0972 
     15 C15        21.2016  -30.5858  -47.1571 C.3       10 UNK         0.0209 
     16 S16        21.9610  -28.9262  -47.0925 S.3       10 UNK        -0.2568 
     17 C17        22.2405  -28.6833  -45.3029 C.3       10 UNK        -0.0983 
     18 CA         22.2409  -27.1937  -44.8785 C.3       3 UNK         0.0876 
     19 N          21.0753  -26.4448  -45.3627 N.am      3 UNK        -0.4424 
     20 C          21.0392  -25.1079  -45.4619 C.2       2 UNK         0.4918 
     21 O          21.9688  -24.3693  -45.1343 O.2       2 UNK        -0.4875 
     22 CA         19.7647  -24.4772  -46.0491 C.3       2 UNK         0.0481 
     23 CB         19.8500  -24.4349  -47.5829 C.3       2 UNK        -0.1831 
     24 N          18.5231  -25.1438  -45.6528 N.am      2 UNK        -0.4498 
     25 C          18.0337  -25.1939  -44.4078 C.2       1 UNK         0.5027 
     26 O          18.6138  -24.7270  -43.4233 O.2       1 UNK        -0.4969 
     27 C          22.3815  -27.0606  -43.3506 C.2       3 UNK         0.5005 
     28 O          23.4432  -26.6621  -42.8686 O.2       3 UNK        -0.5279 
     29 N          21.2984  -27.3867  -42.6259 N.am      4 UNK        -0.4463 
     30 CA         21.1459  -27.3096  -41.1687 C.3       4 UNK         0.0283 
     31 CB         20.9191  -25.8419  -40.7429 C.3       4 UNK        -0.1875 
     32 C          22.2986  -28.0082  -40.4201 C.2       4 UNK         0.4949 
     33 O          22.4114  -29.2328  -40.4885 O.2       4 UNK        -0.5039 
     34 N          23.1513  -27.2230  -39.7498 N.am      5 UNK        -0.4663 
     35 CA         24.3221  -27.6814  -39.0009 C.3       5 UNK         0.0242 
     36 CB         24.8770  -26.5085  -38.1768 C.3       5 UNK        -0.1982 
     37 C          25.4337  -28.3005  -39.8681 C.2       5 UNK         0.5017 
     38 O          26.2331  -29.0673  -39.3313 O.2       5 UNK        -0.5012 
     39 N          25.4742  -27.9835  -41.1731 N.am      6 UNK        -0.4439 
     40 CA         26.4380  -28.5620  -42.1171 C.3       6 UNK         0.0297 
     41 CB         26.4810  -27.7319  -43.4101 C.3       6 UNK        -0.2006 
     42 C          26.1345  -30.0364  -42.4321 C.2       6 UNK         0.4892 
     43 O          27.0682  -30.8206  -42.6040 O.2       6 UNK        -0.5089 
     44 N          24.8415  -30.3841  -42.4843 N.am      7 UNK        -0.4243 
     45 CA         24.3626  -31.7599  -42.6338 C.3       7 UNK         0.0196 
     46 CB         23.0550  -31.7513  -43.4366 C.3       7 UNK        -0.2007 
     47 C          24.1449  -32.4506  -41.2784 C.2       7 UNK         0.5020 
     48 O          24.1663  -33.6799  -41.2284 O.2       7 UNK        -0.5147 
     49 N          23.9236  -31.6532  -40.2224 N.am      8 UNK        -0.4734 
     50 CA         23.5346  -32.0439  -38.8645 C.3       8 UNK         0.0238 
     51 CB         24.6239  -32.9008  -38.1845 C.3       8 UNK        -0.1912 
     52 C          22.1396  -32.6923  -38.8604 C.2       8 UNK         0.5038 
     53 O          21.9834  -33.8204  -38.3888 O.2       8 UNK        -0.5046 
     54 N          21.1648  -31.9644  -39.4254 N.am      9 UNK        -0.4200 
     55 CA         19.7521  -32.3598  -39.5496 C.3       9 UNK         0.0839 
     56 C          19.0975  -32.7526  -38.1957 C.2       9 UNK         0.5513 
     57 N          18.2702  -33.7892  -38.1830 N.am      9 UNK        -0.7519 
     58 O          19.2943  -32.0945  -37.1756 O.2       9 UNK        -0.4960 
     59 C59        18.9025  -31.2560  -40.2317 C.3       10 UNK        -0.0876 
     60 S60        19.5340  -30.7313  -41.8582 S.3       10 UNK        -0.2414 
     61 C61        18.6254  -31.8257  -42.9932 C.3       10 UNK         0.0169 
     62 H62        14.3582  -26.4677  -40.4311 H         1 UNK         0.0903 
     63 H63        15.7315  -25.3623  -40.3756 H         1 UNK         0.0903 
     64 H64        14.1166  -24.7441  -40.7260 H         1 UNK         0.0903 
     65 H65        17.0166  -25.4582  -42.2328 H         1 UNK         0.3096 
     66 H66        15.9496  -25.2932  -44.8395 H         1 UNK         0.1121 
     67 H67        15.8121  -27.8829  -44.2634 H         1 UNK         0.0849 
     68 H68        17.5487  -27.8656  -44.3805 H         1 UNK         0.0849 
     69 H69        15.4170  -29.6533  -46.2208 H         1 UNK         0.0865 
     70 H70        16.1942  -29.5397  -47.7792 H         1 UNK         0.0865 
     71 H71        16.5972  -30.5981  -44.3413 H         1 UNK         0.1346 
     72 H72        20.6979  -31.7517  -44.7450 H         1 UNK         0.1412 
     73 H73        18.7847  -29.5335  -47.8756 H         1 UNK         0.1426 
     74 H74        21.9092  -31.3175  -46.7639 H         1 UNK         0.0716 
     75 H75        21.0306  -30.8558  -48.2000 H         1 UNK         0.0716 
     76 H76        21.4859  -29.2310  -44.7407 H         1 UNK         0.0695 
     77 H77        23.1995  -29.1390  -45.0514 H         1 UNK         0.0695 
     78 H78        23.1296  -26.7367  -45.3206 H         1 UNK         0.0983 
     79 H79        20.2861  -26.9849  -45.6853 H         1 UNK         0.3095 
     80 H80        19.7129  -23.4484  -45.6874 H         1 UNK         0.0454 
     81 H81        19.8714  -25.4359  -48.0152 H         1 UNK         0.0851 
     82 H82        19.0034  -23.9005  -48.0140 H         1 UNK         0.0851 
     83 H83        20.7548  -23.9205  -47.9094 H         1 UNK         0.0851 
     84 H84        17.9872  -25.5861  -46.3886 H         1 UNK         0.2976 
     85 H85        20.4923  -27.7371  -43.1224 H         1 UNK         0.3116 
     86 H86        20.2428  -27.8675  -40.9185 H         1 UNK         0.0646 
     87 H87        21.7459  -25.1935  -41.0347 H         1 UNK         0.0847 
     88 H88        20.0168  -25.4408  -41.2036 H         1 UNK         0.0847 
     89 H89        20.7861  -25.7559  -39.6636 H         1 UNK         0.0847 
     90 H90        22.9990  -26.2253  -39.7823 H         1 UNK         0.3040 
     91 H91        23.9887  -28.4576  -38.3085 H         1 UNK         0.1015 
     92 H92        25.2099  -25.6888  -38.8148 H         1 UNK         0.0786 
     93 H93        25.7324  -26.8222  -37.5765 H         1 UNK         0.0786 
     94 H94        24.1281  -26.1170  -37.4879 H         1 UNK         0.0786 
     95 H95        24.7685  -27.3599  -41.5582 H         1 UNK         0.3172 
     96 H96        27.4283  -28.5152  -41.6587 H         1 UNK         0.0595 
     97 H97        27.2784  -28.0817  -44.0671 H         1 UNK         0.0839 
     98 H98        26.6706  -26.6787  -43.2027 H         1 UNK         0.0839 
     99 H99        25.5493  -27.8018  -43.9717 H         1 UNK         0.0839 
    100 H100       24.1452  -29.6729  -42.3107 H         1 UNK         0.2998 
    101 H101       25.0956  -32.3501  -43.1882 H         1 UNK         0.0822 
    102 H102       22.6204  -32.7507  -43.4896 H         1 UNK         0.0787 
    103 H103       22.3112  -31.0940  -42.9850 H         1 UNK         0.0787 
    104 H104       23.2259  -31.4229  -44.4609 H         1 UNK         0.0787 
    105 H105       23.8315  -30.6619  -40.4116 H         1 UNK         0.3055 
    106 H106       23.4434  -31.1202  -38.2909 H         1 UNK         0.1106 
    107 H107       25.5899  -32.3967  -38.2015 H         1 UNK         0.0828 
    108 H108       24.3733  -33.0872  -37.1396 H         1 UNK         0.0828 
    109 H109       24.7431  -33.8720  -38.6647 H         1 UNK         0.0828 
    110 H110       21.4040  -31.0604  -39.8151 H         1 UNK         0.2931 
    111 H111       19.7399  -33.2385  -40.1972 H         1 UNK         0.0412 
    112 H112       17.8225  -34.0486  -37.3177 H         1 UNK         0.3472 
    113 H113       18.0943  -34.3281  -39.0177 H         1 UNK         0.3472 
    114 H114       17.8666  -31.5812  -40.3428 H         1 UNK         0.0970 
    115 H115       18.8657  -30.3686  -39.5970 H         1 UNK         0.0970 
    116 H116       19.0817  -32.8165  -42.9859 H         1 UNK         0.0612 
    117 H117       17.5974  -31.9489  -42.6497 H         1 UNK         0.0612 
@<TRIPOS>BOND
     1    1    2 1    
     2    1   62 1    
     3    1   63 1    
     4    1   64 1    
     5    2    3 2    
     6    2    4 am   BACKBONE|DICT|INTERRES
     7    4    5 1    
     8    4   65 1    
     9    5    6 1    
    10    5   25 1    
    11    5   66 1    
    12    6    7 1    
    13    6   67 1    
    14    6   68 1    
    15    7    8 1    
    16    8    9 1    
    17    8   69 1    
    18    8   70 1    
    19    9   10 ar   
    20    9   14 ar   
    21   10   11 ar   
    22   10   71 1    
    23   11   12 ar   
    24   11   61 1    
    25   12   13 ar   
    26   12   72 1    
    27   13   14 ar   
    28   13   15 1    
    29   14   73 1    
    30   15   16 1    
    31   15   74 1    
    32   15   75 1    
    33   16   17 1    
    34   17   18 1    
    35   17   76 1    
    36   17   77 1    
    37   18   19 1    
    38   18   27 1    
    39   18   78 1    
    40   19   20 am   BACKBONE|DICT|INTERRES
    41   19   79 1    
    42   20   21 2    
    43   20   22 1    
    44   22   23 1    
    45   22   24 1    
    46   22   80 1    
    47   23   81 1    
    48   23   82 1    
    49   23   83 1    
    50   24   25 am   BACKBONE|DICT|INTERRES
    51   24   84 1    
    52   25   26 2    
    53   27   28 2    
    54   27   29 am   BACKBONE|DICT|INTERRES
    55   29   30 1    
    56   29   85 1    
    57   30   31 1    
    58   30   32 1    
    59   30   86 1    
    60   31   87 1    
    61   31   88 1    
    62   31   89 1    
    63   32   33 2    
    64   32   34 am   BACKBONE|DICT|INTERRES
    65   34   35 1    
    66   34   90 1    
    67   35   36 1    
    68   35   37 1    
    69   35   91 1    
    70   36   92 1    
    71   36   93 1    
    72   36   94 1    
    73   37   38 2    
    74   37   39 am   BACKBONE|DICT|INTERRES
    75   39   40 1    
    76   39   95 1    
    77   40   41 1    
    78   40   42 1    
    79   40   96 1    
    80   41   97 1    
    81   41   98 1    
    82   41   99 1    
    83   42   43 2    
    84   42   44 am   BACKBONE|DICT|INTERRES
    85   44   45 1    
    86   44  100 1    
    87   45   46 1    
    88   45   47 1    
    89   45  101 1    
    90   46  102 1    
    91   46  103 1    
    92   46  104 1    
    93   47   48 2    
    94   47   49 am   BACKBONE|DICT|INTERRES
    95   49   50 1    
    96   49  105 1    
    97   50   51 1    
    98   50   52 1    
    99   50  106 1    
   100   51  107 1    
   101   51  108 1    
   102   51  109 1    
   103   52   53 2    
   104   52   54 am   BACKBONE|DICT|INTERRES
   105   54   55 1    
   106   54  110 1    
   107   55   56 1    
   108   55   59 1    
   109   55  111 1    
   110   56   57 am   BACKBONE|DICT|INTERRES
   111   56   58 2    
   112   57  112 1    
   113   57  113 1    
   114   59   60 1    
   115   59  114 1    
   116   59  115 1    
   117   60   61 1    
   118   61  116 1    
   119   61  117 1    
@<TRIPOS>SUBSTRUCTURE
     1 UNK         1 GROUP             0       ****    0 ROOT    
