@<TRIPOS>MOLECULE
3R8
117   119    1
SMALL
USER_CHARGES


@<TRIPOS>ATOM
      1 CA         15.3630  -22.1496  -46.8967 C.3       0 UNK        -0.2013 
      2 C          15.8729  -23.5053  -46.4297 C.2       0 UNK         0.4866 
      3 O          16.0278  -23.7114  -45.2256 O.2       0 UNK        -0.5176 
      4 N          16.1204  -24.4225  -47.3772 N.am      1 UNK        -0.4884 
      5 CA         16.6714  -25.7739  -47.1901 C.3       1 UNK         0.0853 
      6 C6         15.8729  -26.6153  -46.1539 C.3       10 UNK        -0.0849 
      7 S7         15.9712  -28.4160  -46.4410 S.3       10 UNK        -0.2776 
      8 C8         15.1297  -29.0609  -44.9595 C.3       10 UNK         0.0316 
      9 C9         16.0250  -29.0488  -43.7261 C.ar      10 UNK        -0.0863 
     10 C10        16.7952  -30.1712  -43.4028 C.ar      10 UNK        -0.1009 
     11 C11        17.5724  -30.1904  -42.2398 C.ar      10 UNK        -0.0712 
     12 C12        17.5888  -29.0664  -41.4074 C.ar      10 UNK        -0.0894 
     13 C13        16.8380  -27.9301  -41.7276 C.ar      10 UNK        -0.0745 
     14 C14        16.0490  -27.9348  -42.8812 C.ar      10 UNK        -0.0972 
     15 C15        16.8352  -26.7118  -40.8099 C.3       10 UNK         0.0209 
     16 S16        18.5009  -26.0406  -40.4937 S.3       10 UNK        -0.2568 
     17 C17        19.0429  -25.5073  -42.1568 C.3       10 UNK        -0.0983 
     18 CA         20.0409  -26.5065  -42.8026 C.3       3 UNK         0.0876 
     19 N          19.9820  -26.4557  -44.2652 N.am      3 UNK        -0.4424 
     20 C          20.2556  -27.4845  -45.0772 C.2       2 UNK         0.4918 
     21 O          20.5056  -28.6237  -44.6854 O.2       2 UNK        -0.4875 
     22 CA         20.1966  -27.1894  -46.5859 C.3       2 UNK         0.0481 
     23 CB         20.7530  -28.3459  -47.4375 C.3       2 UNK        -0.1831 
     24 N          18.8135  -26.9319  -46.9794 N.am      2 UNK        -0.4498 
     25 C          18.1862  -25.7548  -46.8777 C.2       1 UNK         0.5027 
     26 O          18.7594  -24.7143  -46.5422 O.2       1 UNK        -0.4969 
     27 C          21.4972  -26.3721  -42.2894 C.2       3 UNK         0.5005 
     28 O          22.4404  -26.4241  -43.0817 O.2       3 UNK        -0.5279 
     29 N          21.6444  -26.2292  -40.9632 N.am      4 UNK        -0.4463 
     30 CA         22.8453  -26.4823  -40.1528 C.3       4 UNK         0.0283 
     31 CB         24.0822  -25.6901  -40.6296 C.3       4 UNK        -0.1875 
     32 C          23.0766  -27.9998  -40.0786 C.2       4 UNK         0.4949 
     33 O          24.0948  -28.5108  -40.5499 O.2       4 UNK        -0.5039 
     34 N          22.0689  -28.6914  -39.5243 N.am      5 UNK        -0.4663 
     35 CA         21.8805  -30.1453  -39.5472 C.3       5 UNK         0.0242 
     36 CB         20.6364  -30.5082  -38.7213 C.3       5 UNK        -0.1982 
     37 C          23.0810  -30.9792  -39.0817 C.2       5 UNK         0.5017 
     38 O          23.3273  -32.0379  -39.6581 O.2       5 UNK        -0.5012 
     39 N          23.8245  -30.4705  -38.0903 N.am      6 UNK        -0.4439 
     40 CA         25.0418  -31.0833  -37.5498 C.3       6 UNK         0.0297 
     41 CB         25.5342  -30.2553  -36.3518 C.3       6 UNK        -0.2006 
     42 C          26.1738  -31.2608  -38.5809 C.2       6 UNK         0.4892 
     43 O          27.0097  -32.1465  -38.3961 O.2       6 UNK        -0.5089 
     44 N          26.1786  -30.4332  -39.6345 N.am      7 UNK        -0.4243 
     45 CA         27.1105  -30.5194  -40.7560 C.3       7 UNK         0.0196 
     46 CB         27.7550  -29.1413  -40.9836 C.3       7 UNK        -0.2007 
     47 C          26.4014  -30.9957  -42.0315 C.2       7 UNK         0.5020 
     48 O          26.9454  -31.8425  -42.7405 O.2       7 UNK        -0.5147 
     49 N          25.2266  -30.4234  -42.3271 N.am      8 UNK        -0.4734 
     50 CA         24.5456  -30.5901  -43.6121 C.3       8 UNK         0.0238 
     51 CB         23.6759  -29.3535  -43.8781 C.3       8 UNK        -0.1912 
     52 C          23.6930  -31.8620  -43.7251 C.2       8 UNK         0.5038 
     53 O          23.6122  -32.4177  -44.8221 O.2       8 UNK        -0.5046 
     54 N          23.0514  -32.2784  -42.6266 N.am      9 UNK        -0.4200 
     55 CA         22.0636  -33.3723  -42.6133 C.3       9 UNK         0.0839 
     56 C          22.6239  -34.6707  -41.9778 C.2       9 UNK         0.5513 
     57 N          23.4778  -34.5880  -40.9658 N.am      9 UNK        -0.7519 
     58 O          22.2861  -35.7674  -42.4157 O.2       9 UNK        -0.4960 
     59 C59        20.7330  -32.9537  -41.9313 C.3       10 UNK        -0.0876 
     60 S60        19.9852  -31.4687  -42.6888 S.3       10 UNK        -0.2414 
     61 C61        18.3657  -31.4360  -41.8666 C.3       10 UNK         0.0169 
     62 H62        14.3917  -21.9399  -46.4495 H         1 UNK         0.0903 
     63 H63        16.0549  -21.3648  -46.5922 H         1 UNK         0.0903 
     64 H64        15.2541  -22.1036  -47.9801 H         1 UNK         0.0903 
     65 H65        15.9843  -24.1584  -48.3438 H         1 UNK         0.3096 
     66 H66        16.5663  -26.2496  -48.1670 H         1 UNK         0.1121 
     67 H67        14.8158  -26.3465  -46.1903 H         1 UNK         0.0849 
     68 H68        16.2067  -26.3826  -45.1428 H         1 UNK         0.0849 
     69 H69        14.2191  -28.4887  -44.7745 H         1 UNK         0.0865 
     70 H70        14.8025  -30.0817  -45.1634 H         1 UNK         0.0865 
     71 H71        16.7782  -31.0391  -44.0479 H         1 UNK         0.1346 
     72 H72        18.1829  -29.0726  -40.5055 H         1 UNK         0.1412 
     73 H73        15.4399  -27.0725  -43.1145 H         1 UNK         0.1426 
     74 H74        16.3868  -26.9947  -39.8567 H         1 UNK         0.0716 
     75 H75        16.2095  -25.9160  -41.2173 H         1 UNK         0.0716 
     76 H76        18.1532  -25.4066  -42.7816 H         1 UNK         0.0695 
     77 H77        19.4714  -24.5052  -42.0940 H         1 UNK         0.0695 
     78 H78        19.7255  -27.5127  -42.5170 H         1 UNK         0.0983 
     79 H79        19.7854  -25.5561  -44.6841 H         1 UNK         0.3095 
     80 H80        20.8096  -26.3070  -46.7814 H         1 UNK         0.0454 
     81 H81        21.7865  -28.5654  -47.1664 H         1 UNK         0.0851 
     82 H82        20.1791  -29.2635  -47.3016 H         1 UNK         0.0851 
     83 H83        20.7424  -28.0978  -48.4988 H         1 UNK         0.0851 
     84 H84        18.2522  -27.7474  -47.1894 H         1 UNK         0.2976 
     85 H85        20.7840  -26.1297  -40.4366 H         1 UNK         0.3116 
     86 H86        22.6146  -26.1434  -39.1417 H         1 UNK         0.0646 
     87 H87        24.8962  -25.7828  -39.9100 H         1 UNK         0.0847 
     88 H88        23.8588  -24.6288  -40.7349 H         1 UNK         0.0847 
     89 H89        24.4645  -26.0503  -41.5848 H         1 UNK         0.0847 
     90 H90        21.2956  -28.1627  -39.1478 H         1 UNK         0.3040 
     91 H91        21.6942  -30.4109  -40.5880 H         1 UNK         0.1015 
     92 H92        19.7444  -30.0170  -39.1057 H         1 UNK         0.0786 
     93 H93        20.7499  -30.2220  -37.6748 H         1 UNK         0.0786 
     94 H94        20.4470  -31.5823  -38.7445 H         1 UNK         0.0786 
     95 H95        23.5432  -29.5839  -37.6972 H         1 UNK         0.3172 
     96 H96        24.7733  -32.0788  -37.1903 H         1 UNK         0.0595 
     97 H97        24.7786  -30.1995  -35.5680 H         1 UNK         0.0839 
     98 H98        25.7940  -29.2369  -36.6441 H         1 UNK         0.0839 
     99 H99        26.4247  -30.7030  -35.9079 H         1 UNK         0.0839 
    100 H100       25.4342  -29.7485  -39.7183 H         1 UNK         0.2998 
    101 H101       27.9096  -31.2316  -40.5388 H         1 UNK         0.0822 
    102 H102       28.3213  -28.8222  -40.1086 H         1 UNK         0.0787 
    103 H103       28.4473  -29.1679  -41.8262 H         1 UNK         0.0787 
    104 H104       27.0091  -28.3738  -41.1962 H         1 UNK         0.0787 
    105 H105       24.8435  -29.7205  -41.6979 H         1 UNK         0.3055 
    106 H106       25.3010  -30.6371  -44.4004 H         1 UNK         0.1106 
    107 H107       22.8830  -29.2498  -43.1358 H         1 UNK         0.0828 
    108 H108       24.2663  -28.4373  -43.8645 H         1 UNK         0.0828 
    109 H109       23.1953  -29.4147  -44.8554 H         1 UNK         0.0828 
    110 H110       23.2378  -31.8328  -41.7384 H         1 UNK         0.2931 
    111 H111       21.8042  -33.6317  -43.6417 H         1 UNK         0.0412 
    112 H112       23.8482  -35.4315  -40.5581 H         1 UNK         0.3472 
    113 H113       23.6704  -33.6881  -40.5365 H         1 UNK         0.3472 
    114 H114       20.0089  -33.7684  -41.9940 H         1 UNK         0.0970 
    115 H115       20.8882  -32.7671  -40.8681 H         1 UNK         0.0970 
    116 H116       18.5080  -31.4823  -40.7861 H         1 UNK         0.0612 
    117 H117       17.8044  -32.3300  -42.1424 H         1 UNK         0.0612 
@<TRIPOS>BOND
     1    1    2 1    
     2    1   62 1    
     3    1   63 1    
     4    1   64 1    
     5    2    3 2    
     6    2    4 am   BACKBONE|DICT|INTERRES
     7    4    5 1    
     8    4   65 1    
     9    5    6 1    
    10    5   25 1    
    11    5   66 1    
    12    6    7 1    
    13    6   67 1    
    14    6   68 1    
    15    7    8 1    
    16    8    9 1    
    17    8   69 1    
    18    8   70 1    
    19    9   10 ar   
    20    9   14 ar   
    21   10   11 ar   
    22   10   71 1    
    23   11   12 ar   
    24   11   61 1    
    25   12   13 ar   
    26   12   72 1    
    27   13   14 ar   
    28   13   15 1    
    29   14   73 1    
    30   15   16 1    
    31   15   74 1    
    32   15   75 1    
    33   16   17 1    
    34   17   18 1    
    35   17   76 1    
    36   17   77 1    
    37   18   19 1    
    38   18   27 1    
    39   18   78 1    
    40   19   20 am   BACKBONE|DICT|INTERRES
    41   19   79 1    
    42   20   21 2    
    43   20   22 1    
    44   22   23 1    
    45   22   24 1    
    46   22   80 1    
    47   23   81 1    
    48   23   82 1    
    49   23   83 1    
    50   24   25 am   BACKBONE|DICT|INTERRES
    51   24   84 1    
    52   25   26 2    
    53   27   28 2    
    54   27   29 am   BACKBONE|DICT|INTERRES
    55   29   30 1    
    56   29   85 1    
    57   30   31 1    
    58   30   32 1    
    59   30   86 1    
    60   31   87 1    
    61   31   88 1    
    62   31   89 1    
    63   32   33 2    
    64   32   34 am   BACKBONE|DICT|INTERRES
    65   34   35 1    
    66   34   90 1    
    67   35   36 1    
    68   35   37 1    
    69   35   91 1    
    70   36   92 1    
    71   36   93 1    
    72   36   94 1    
    73   37   38 2    
    74   37   39 am   BACKBONE|DICT|INTERRES
    75   39   40 1    
    76   39   95 1    
    77   40   41 1    
    78   40   42 1    
    79   40   96 1    
    80   41   97 1    
    81   41   98 1    
    82   41   99 1    
    83   42   43 2    
    84   42   44 am   BACKBONE|DICT|INTERRES
    85   44   45 1    
    86   44  100 1    
    87   45   46 1    
    88   45   47 1    
    89   45  101 1    
    90   46  102 1    
    91   46  103 1    
    92   46  104 1    
    93   47   48 2    
    94   47   49 am   BACKBONE|DICT|INTERRES
    95   49   50 1    
    96   49  105 1    
    97   50   51 1    
    98   50   52 1    
    99   50  106 1    
   100   51  107 1    
   101   51  108 1    
   102   51  109 1    
   103   52   53 2    
   104   52   54 am   BACKBONE|DICT|INTERRES
   105   54   55 1    
   106   54  110 1    
   107   55   56 1    
   108   55   59 1    
   109   55  111 1    
   110   56   57 am   BACKBONE|DICT|INTERRES
   111   56   58 2    
   112   57  112 1    
   113   57  113 1    
   114   59   60 1    
   115   59  114 1    
   116   59  115 1    
   117   60   61 1    
   118   61  116 1    
   119   61  117 1    
@<TRIPOS>SUBSTRUCTURE
     1 UNK         1 GROUP             0       ****    0 ROOT    
