@<TRIPOS>MOLECULE
3R8
117   119    1
SMALL
USER_CHARGES


@<TRIPOS>ATOM
      1 CA         15.1997  -22.5485  -44.1282 C.3       0 UNK        -0.2013 
      2 C          16.2905  -23.6034  -44.0237 C.2       0 UNK         0.4866 
      3 O          17.2387  -23.4239  -43.2582 O.2       0 UNK        -0.5176 
      4 N          16.1646  -24.6937  -44.7944 N.am      1 UNK        -0.4884 
      5 CA         17.0566  -25.8624  -44.8796 C.3       1 UNK         0.0853 
      6 C6         17.2530  -26.6162  -43.5382 C.3       10 UNK        -0.0849 
      7 S7         15.7340  -27.3898  -42.8832 S.3       10 UNK        -0.2776 
      8 C8         15.7397  -29.0593  -43.6300 C.3       10 UNK         0.0316 
      9 C9         17.0892  -29.7608  -43.5339 C.ar      10 UNK        -0.0863 
     10 C10        17.5806  -30.2062  -42.3024 C.ar      10 UNK        -0.1009 
     11 C11        18.8440  -30.8011  -42.2180 C.ar      10 UNK        -0.0712 
     12 C12        19.6139  -30.9518  -43.3760 C.ar      10 UNK        -0.0894 
     13 C13        19.1227  -30.5338  -44.6141 C.ar      10 UNK        -0.0745 
     14 C14        17.8589  -29.9429  -44.6866 C.ar      10 UNK        -0.0972 
     15 C15        19.9357  -30.7387  -45.8828 C.3       10 UNK         0.0209 
     16 S16        20.4818  -29.1591  -46.6011 S.3       10 UNK        -0.2568 
     17 C17        22.1197  -28.8820  -45.8408 C.3       10 UNK        -0.0983 
     18 CA         22.1907  -27.7446  -44.7865 C.3       3 UNK         0.0876 
     19 N          21.4060  -26.5598  -45.1684 N.am      3 UNK        -0.4424 
     20 C          21.5545  -25.3255  -44.6696 C.2       2 UNK         0.4918 
     21 O          22.3819  -25.0457  -43.8029 O.2       2 UNK        -0.4875 
     22 CA         20.5751  -24.2410  -45.1540 C.3       2 UNK         0.0481 
     23 CB         20.8481  -23.8316  -46.6144 C.3       2 UNK        -0.1831 
     24 N          19.1687  -24.5994  -44.9210 N.am      2 UNK        -0.4498 
     25 C          18.4310  -25.5519  -45.5080 C.2       1 UNK         0.5027 
     26 O          18.8145  -26.2151  -46.4703 O.2       1 UNK        -0.4969 
     27 C          21.9458  -28.2351  -43.3393 C.2       3 UNK         0.5005 
     28 O          22.6994  -29.0822  -42.8513 O.2       3 UNK        -0.5279 
     29 N          20.9630  -27.6460  -42.6413 N.am      4 UNK        -0.4463 
     30 CA         20.7757  -27.7791  -41.1952 C.3       4 UNK         0.0283 
     31 CB         19.4119  -27.2083  -40.7816 C.3       4 UNK        -0.1875 
     32 C          21.8991  -27.1210  -40.3768 C.2       4 UNK         0.4949 
     33 O          22.1687  -27.5837  -39.2700 O.2       4 UNK        -0.5039 
     34 N          22.5698  -26.0981  -40.9326 N.am      5 UNK        -0.4663 
     35 CA         23.7422  -25.4610  -40.3186 C.3       5 UNK         0.0242 
     36 CB         24.0598  -24.1475  -41.0503 C.3       5 UNK        -0.1982 
     37 C          24.9747  -26.3831  -40.3025 C.2       5 UNK         0.5017 
     38 O          25.7895  -26.2912  -39.3844 O.2       5 UNK        -0.5012 
     39 N          25.0652  -27.2735  -41.3001 N.am      6 UNK        -0.4439 
     40 CA         26.0526  -28.3520  -41.3787 C.3       6 UNK         0.0297 
     41 CB         26.2864  -28.7003  -42.8590 C.3       6 UNK        -0.2006 
     42 C          25.6206  -29.6080  -40.5963 C.2       6 UNK         0.4892 
     43 O          26.4432  -30.5069  -40.4190 O.2       6 UNK        -0.5089 
     44 N          24.3465  -29.6578  -40.1717 N.am      7 UNK        -0.4243 
     45 CA         23.6525  -30.7748  -39.5201 C.3       7 UNK         0.0196 
     46 CB         24.2176  -31.0228  -38.1060 C.3       7 UNK        -0.2007 
     47 C          23.6289  -32.0449  -40.3920 C.2       7 UNK         0.5020 
     48 O          23.7393  -33.1555  -39.8697 O.2       7 UNK        -0.5147 
     49 N          23.4848  -31.8626  -41.7140 N.am      8 UNK        -0.4734 
     50 CA         23.6218  -32.9240  -42.7204 C.3       8 UNK         0.0238 
     51 CB         23.6402  -32.2886  -44.1180 C.3       8 UNK        -0.1912 
     52 C          22.5566  -34.0336  -42.6437 C.2       8 UNK         0.5038 
     53 O          22.7920  -35.1257  -43.1620 O.2       8 UNK        -0.5046 
     54 N          21.4200  -33.7396  -42.0017 N.am      9 UNK        -0.4200 
     55 CA         20.3442  -34.6933  -41.7073 C.3       9 UNK         0.0839 
     56 C          20.6065  -35.5945  -40.4639 C.2       9 UNK         0.5513 
     57 N          21.6712  -35.3876  -39.6956 N.am      9 UNK        -0.7519 
     58 O          19.8352  -36.5141  -40.2025 O.2       9 UNK        -0.4960 
     59 C59        18.9579  -33.9953  -41.6776 C.3       10 UNK        -0.0876 
     60 S60        18.6868  -32.8294  -40.2914 S.3       10 UNK        -0.2414 
     61 C61        19.3957  -31.2545  -40.8741 C.3       10 UNK         0.0169 
     62 H62        14.7308  -22.3982  -43.1562 H         1 UNK         0.0903 
     63 H63        15.6260  -21.5991  -44.4513 H         1 UNK         0.0903 
     64 H64        14.4231  -22.8312  -44.8387 H         1 UNK         0.0903 
     65 H65        15.3630  -24.7455  -45.4086 H         1 UNK         0.3096 
     66 H66        16.5686  -26.5537  -45.5692 H         1 UNK         0.1121 
     67 H67        17.6189  -25.9332  -42.7718 H         1 UNK         0.0849 
     68 H68        18.0325  -27.3719  -43.6299 H         1 UNK         0.0849 
     69 H69        14.9824  -29.6693  -43.1356 H         1 UNK         0.0865 
     70 H70        15.4246  -28.9759  -44.6713 H         1 UNK         0.0865 
     71 H71        16.9892  -30.0706  -41.4071 H         1 UNK         0.1346 
     72 H72        20.5949  -31.3983  -43.3157 H         1 UNK         0.1412 
     73 H73        17.4859  -29.6075  -45.6450 H         1 UNK         0.1426 
     74 H74        20.7895  -31.3943  -45.7116 H         1 UNK         0.0716 
     75 H75        19.3100  -31.2501  -46.6157 H         1 UNK         0.0716 
     76 H76        22.5194  -29.8172  -45.4506 H         1 UNK         0.0695 
     77 H77        22.7866  -28.6225  -46.6643 H         1 UNK         0.0695 
     78 H78        23.2331  -27.4180  -44.7715 H         1 UNK         0.0983 
     79 H79        20.6655  -26.7175  -45.8467 H         1 UNK         0.3095 
     80 H80        20.7528  -23.3593  -44.5362 H         1 UNK         0.0454 
     81 H81        20.7364  -24.6640  -47.3094 H         1 UNK         0.0851 
     82 H82        20.1746  -23.0367  -46.9342 H         1 UNK         0.0851 
     83 H83        21.8663  -23.4568  -46.7256 H         1 UNK         0.0851 
     84 H84        18.7104  -24.0995  -44.1602 H         1 UNK         0.2976 
     85 H85        20.3938  -26.9642  -43.1177 H         1 UNK         0.3116 
     86 H86        20.7895  -28.8420  -40.9545 H         1 UNK         0.0646 
     87 H87        19.2637  -27.2975  -39.7044 H         1 UNK         0.0847 
     88 H88        18.5947  -27.7485  -41.2566 H         1 UNK         0.0847 
     89 H89        19.3198  -26.1516  -41.0343 H         1 UNK         0.0847 
     90 H90        22.3059  -25.7664  -41.8546 H         1 UNK         0.3040 
     91 H91        23.4957  -25.2236  -39.2811 H         1 UNK         0.1015 
     92 H92        23.2026  -23.4739  -41.0492 H         1 UNK         0.0786 
     93 H93        24.3488  -24.3208  -42.0875 H         1 UNK         0.0786 
     94 H94        24.8850  -23.6228  -40.5667 H         1 UNK         0.0786 
     95 H95        24.3413  -27.2726  -42.0042 H         1 UNK         0.3172 
     96 H96        26.9980  -28.0065  -40.9551 H         1 UNK         0.0595 
     97 H97        27.0522  -29.4705  -42.9618 H         1 UNK         0.0839 
     98 H98        26.6261  -27.8318  -43.4233 H         1 UNK         0.0839 
     99 H99        25.3815  -29.0791  -43.3355 H         1 UNK         0.0839 
    100 H100       23.7675  -28.8510  -40.3586 H         1 UNK         0.2998 
    101 H101       22.6126  -30.4643  -39.4089 H         1 UNK         0.0822 
    102 H102       24.2078  -30.1095  -37.5110 H         1 UNK         0.0787 
    103 H103       23.6219  -31.7635  -37.5711 H         1 UNK         0.0787 
    104 H104       25.2430  -31.3923  -38.1383 H         1 UNK         0.0787 
    105 H105       23.3704  -30.9148  -42.0623 H         1 UNK         0.3055 
    106 H106       24.5882  -33.4055  -42.5539 H         1 UNK         0.1106 
    107 H107       23.8134  -33.0407  -44.8890 H         1 UNK         0.0828 
    108 H108       22.6925  -31.8041  -44.3430 H         1 UNK         0.0828 
    109 H109       24.4305  -31.5431  -44.2087 H         1 UNK         0.0828 
    110 H110       21.3403  -32.8347  -41.5667 H         1 UNK         0.2931 
    111 H111       20.3027  -35.3895  -42.5473 H         1 UNK         0.0412 
    112 H112       21.8246  -35.9873  -38.9006 H         1 UNK         0.3472 
    113 H113       22.3246  -34.6369  -39.8895 H         1 UNK         0.3472 
    114 H114       18.7731  -33.4925  -42.6265 H         1 UNK         0.0970 
    115 H115       18.1756  -34.7538  -41.6147 H         1 UNK         0.0970 
    116 H116       20.4817  -31.3369  -40.9118 H         1 UNK         0.0612 
    117 H117       19.1827  -30.4902  -40.1254 H         1 UNK         0.0612 
@<TRIPOS>BOND
     1    1    2 1    
     2    1   62 1    
     3    1   63 1    
     4    1   64 1    
     5    2    3 2    
     6    2    4 am   BACKBONE|DICT|INTERRES
     7    4    5 1    
     8    4   65 1    
     9    5    6 1    
    10    5   25 1    
    11    5   66 1    
    12    6    7 1    
    13    6   67 1    
    14    6   68 1    
    15    7    8 1    
    16    8    9 1    
    17    8   69 1    
    18    8   70 1    
    19    9   10 ar   
    20    9   14 ar   
    21   10   11 ar   
    22   10   71 1    
    23   11   12 ar   
    24   11   61 1    
    25   12   13 ar   
    26   12   72 1    
    27   13   14 ar   
    28   13   15 1    
    29   14   73 1    
    30   15   16 1    
    31   15   74 1    
    32   15   75 1    
    33   16   17 1    
    34   17   18 1    
    35   17   76 1    
    36   17   77 1    
    37   18   19 1    
    38   18   27 1    
    39   18   78 1    
    40   19   20 am   BACKBONE|DICT|INTERRES
    41   19   79 1    
    42   20   21 2    
    43   20   22 1    
    44   22   23 1    
    45   22   24 1    
    46   22   80 1    
    47   23   81 1    
    48   23   82 1    
    49   23   83 1    
    50   24   25 am   BACKBONE|DICT|INTERRES
    51   24   84 1    
    52   25   26 2    
    53   27   28 2    
    54   27   29 am   BACKBONE|DICT|INTERRES
    55   29   30 1    
    56   29   85 1    
    57   30   31 1    
    58   30   32 1    
    59   30   86 1    
    60   31   87 1    
    61   31   88 1    
    62   31   89 1    
    63   32   33 2    
    64   32   34 am   BACKBONE|DICT|INTERRES
    65   34   35 1    
    66   34   90 1    
    67   35   36 1    
    68   35   37 1    
    69   35   91 1    
    70   36   92 1    
    71   36   93 1    
    72   36   94 1    
    73   37   38 2    
    74   37   39 am   BACKBONE|DICT|INTERRES
    75   39   40 1    
    76   39   95 1    
    77   40   41 1    
    78   40   42 1    
    79   40   96 1    
    80   41   97 1    
    81   41   98 1    
    82   41   99 1    
    83   42   43 2    
    84   42   44 am   BACKBONE|DICT|INTERRES
    85   44   45 1    
    86   44  100 1    
    87   45   46 1    
    88   45   47 1    
    89   45  101 1    
    90   46  102 1    
    91   46  103 1    
    92   46  104 1    
    93   47   48 2    
    94   47   49 am   BACKBONE|DICT|INTERRES
    95   49   50 1    
    96   49  105 1    
    97   50   51 1    
    98   50   52 1    
    99   50  106 1    
   100   51  107 1    
   101   51  108 1    
   102   51  109 1    
   103   52   53 2    
   104   52   54 am   BACKBONE|DICT|INTERRES
   105   54   55 1    
   106   54  110 1    
   107   55   56 1    
   108   55   59 1    
   109   55  111 1    
   110   56   57 am   BACKBONE|DICT|INTERRES
   111   56   58 2    
   112   57  112 1    
   113   57  113 1    
   114   59   60 1    
   115   59  114 1    
   116   59  115 1    
   117   60   61 1    
   118   61  116 1    
   119   61  117 1    
@<TRIPOS>SUBSTRUCTURE
     1 UNK         1 GROUP             0       ****    0 ROOT    
