@<TRIPOS>MOLECULE
3R8
117   119    1
SMALL
USER_CHARGES


@<TRIPOS>ATOM
      1 CA         19.5946  -22.0273  -44.7113 C.3       0 UNK        -0.2013 
      2 C          20.0372  -23.1994  -45.5748 C.2       0 UNK         0.4866 
      3 O          21.0849  -23.1227  -46.2180 O.2       0 UNK        -0.5176 
      4 N          19.2409  -24.2750  -45.6001 N.am      1 UNK        -0.4884 
      5 CA         19.5270  -25.5284  -46.3066 C.3       1 UNK         0.0853 
      6 C6         18.2444  -26.1350  -46.9436 C.3       10 UNK        -0.0849 
      7 S7         16.8919  -26.4382  -45.7532 S.3       10 UNK        -0.2776 
      8 C8         16.2214  -28.0553  -46.2781 C.3       10 UNK         0.0316 
      9 C9         16.4045  -29.1128  -45.1981 C.ar      10 UNK        -0.0863 
     10 C10        17.1220  -30.2869  -45.4491 C.ar      10 UNK        -0.1009 
     11 C11        17.2918  -31.2450  -44.4415 C.ar      10 UNK        -0.0712 
     12 C12        16.7354  -31.0210  -43.1779 C.ar      10 UNK        -0.0894 
     13 C13        16.0351  -29.8423  -42.9126 C.ar      10 UNK        -0.0745 
     14 C14        15.8465  -28.9098  -43.9342 C.ar      10 UNK        -0.0972 
     15 C15        15.5341  -29.5338  -41.5098 C.3       10 UNK         0.0209 
     16 S16        16.8922  -29.1527  -40.3476 S.3       10 UNK        -0.2568 
     17 C17        18.0319  -28.1020  -41.3235 C.3       10 UNK        -0.0983 
     18 CA         19.3444  -28.8678  -41.6626 C.3       3 UNK         0.0876 
     19 N          19.7846  -28.6354  -43.0475 N.am      3 UNK        -0.4424 
     20 C          20.8316  -29.2137  -43.6598 C.2       2 UNK         0.4918 
     21 O          21.5956  -30.0175  -43.1185 O.2       2 UNK        -0.4875 
     22 CA         21.0895  -28.8679  -45.1405 C.3       2 UNK         0.0481 
     23 CB         20.9485  -30.1199  -46.0243 C.3       2 UNK        -0.1831 
     24 N          20.2602  -27.8035  -45.7133 N.am      2 UNK        -0.4498 
     25 C          20.3410  -26.4996  -45.4161 C.2       1 UNK         0.5027 
     26 O          21.0485  -26.0623  -44.5060 O.2       1 UNK        -0.4969 
     27 C          20.4309  -28.5815  -40.6021 C.2       3 UNK         0.5005 
     28 O          21.4781  -28.0201  -40.9227 O.2       3 UNK        -0.5279 
     29 N          20.1399  -28.9408  -39.3431 N.am      4 UNK        -0.4463 
     30 CA         21.0273  -28.9504  -38.1677 C.3       4 UNK         0.0283 
     31 CB         20.1945  -29.3133  -36.9273 C.3       4 UNK        -0.1875 
     32 C          21.8687  -27.6866  -37.8862 C.2       4 UNK         0.4949 
     33 O          22.8733  -27.7931  -37.1831 O.2       4 UNK        -0.5039 
     34 N          21.4795  -26.5288  -38.4380 N.am      5 UNK        -0.4663 
     35 CA         22.2880  -25.3039  -38.4514 C.3       5 UNK         0.0242 
     36 CB         21.4318  -24.1377  -38.9709 C.3       5 UNK        -0.1982 
     37 C          23.5774  -25.4428  -39.2879 C.2       5 UNK         0.5017 
     38 O          24.5963  -24.8532  -38.9264 O.2       5 UNK        -0.5012 
     39 N          23.5081  -26.2280  -40.3705 N.am      6 UNK        -0.4439 
     40 CA         24.6355  -26.6398  -41.2077 C.3       6 UNK         0.0297 
     41 CB         24.2396  -26.5082  -42.6886 C.3       6 UNK        -0.2006 
     42 C          25.0444  -28.0896  -40.8968 C.2       6 UNK         0.4892 
     43 O          26.2392  -28.3863  -40.8920 O.2       6 UNK        -0.5089 
     44 N          24.0462  -28.9507  -40.6390 N.am      7 UNK        -0.4243 
     45 CA         24.1348  -30.3826  -40.3333 C.3       7 UNK         0.0196 
     46 CB         24.8144  -30.6102  -38.9665 C.3       7 UNK        -0.2007 
     47 C          24.7778  -31.1901  -41.4753 C.2       7 UNK         0.5020 
     48 O          25.6422  -32.0334  -41.2285 O.2       7 UNK        -0.5147 
     49 N          24.3548  -30.9022  -42.7129 N.am      8 UNK        -0.4734 
     50 CA         24.8423  -31.5749  -43.9173 C.3       8 UNK         0.0238 
     51 CB         24.7554  -30.6206  -45.1180 C.3       8 UNK        -0.1912 
     52 C          24.0906  -32.8875  -44.1858 C.2       8 UNK         0.5038 
     53 O          24.7212  -33.8524  -44.6204 O.2       8 UNK        -0.5046 
     54 N          22.7786  -32.9115  -43.9127 N.am      9 UNK        -0.4200 
     55 CA         21.9513  -34.1277  -43.9349 C.3       9 UNK         0.0839 
     56 C          21.9061  -34.8226  -42.5457 C.2       9 UNK         0.5513 
     57 N          21.5009  -36.0848  -42.5011 N.am      9 UNK        -0.7519 
     58 O          22.2213  -34.2367  -41.5113 O.2       9 UNK        -0.4960 
     59 C59        20.5398  -33.8692  -44.5288 C.3       10 UNK        -0.0876 
     60 S60        19.5609  -32.6127  -43.6436 S.3       10 UNK        -0.2414 
     61 C61        18.0883  -32.5143  -44.7091 C.3       10 UNK         0.0169 
     62 H62        18.6427  -22.2208  -44.2170 H         1 UNK         0.0903 
     63 H63        20.3406  -21.8258  -43.9429 H         1 UNK         0.0903 
     64 H64        19.4833  -21.1317  -45.3219 H         1 UNK         0.0903 
     65 H65        18.4004  -24.2881  -45.0390 H         1 UNK         0.3096 
     66 H66        20.1965  -25.3015  -47.1397 H         1 UNK         0.1121 
     67 H67        18.4745  -27.0379  -47.5102 H         1 UNK         0.0849 
     68 H68        17.8597  -25.4353  -47.6876 H         1 UNK         0.0849 
     69 H69        15.1547  -27.9408  -46.4756 H         1 UNK         0.0865 
     70 H70        16.6657  -28.3765  -47.2207 H         1 UNK         0.0865 
     71 H71        17.5484  -30.4549  -46.4283 H         1 UNK         0.1346 
     72 H72        16.8859  -31.7447  -42.3884 H         1 UNK         0.1412 
     73 H73        15.3038  -27.9957  -43.7337 H         1 UNK         0.1426 
     74 H74        14.9678  -30.3849  -41.1292 H         1 UNK         0.0716 
     75 H75        14.8425  -28.6900  -41.5258 H         1 UNK         0.0716 
     76 H76        17.5311  -27.7555  -42.2257 H         1 UNK         0.0695 
     77 H77        18.2248  -27.1851  -40.7623 H         1 UNK         0.0695 
     78 H78        19.1558  -29.9430  -41.6191 H         1 UNK         0.0983 
     79 H79        19.2371  -27.9814  -43.5845 H         1 UNK         0.3095 
     80 H80        22.1269  -28.5332  -45.1972 H         1 UNK         0.0454 
     81 H81        21.5323  -30.9549  -45.6380 H         1 UNK         0.0851 
     82 H82        21.2948  -29.9312  -47.0404 H         1 UNK         0.0851 
     83 H83        19.9157  -30.4588  -46.0786 H         1 UNK         0.0851 
     84 H84        19.6295  -28.0850  -46.4488 H         1 UNK         0.2976 
     85 H85        19.2195  -29.3316  -39.1894 H         1 UNK         0.3116 
     86 H86        21.7419  -29.7580  -38.3346 H         1 UNK         0.0646 
     87 H87        19.4174  -28.5726  -36.7345 H         1 UNK         0.0847 
     88 H88        19.7136  -30.2852  -37.0388 H         1 UNK         0.0847 
     89 H89        20.8201  -29.3681  -36.0349 H         1 UNK         0.0847 
     90 H90        20.6444  -26.5331  -39.0051 H         1 UNK         0.3040 
     91 H91        22.5855  -25.0832  -37.4237 H         1 UNK         0.1015 
     92 H92        22.0010  -23.2069  -38.9715 H         1 UNK         0.0786 
     93 H93        20.5545  -23.9787  -38.3436 H         1 UNK         0.0786 
     94 H94        21.0893  -24.3108  -39.9921 H         1 UNK         0.0786 
     95 H95        22.6256  -26.7025  -40.5580 H         1 UNK         0.3172 
     96 H96        25.4981  -25.9960  -41.0240 H         1 UNK         0.0595 
     97 H97        23.3736  -27.1249  -42.9349 H         1 UNK         0.0839 
     98 H98        25.0571  -26.8172  -43.3413 H         1 UNK         0.0839 
     99 H99        23.9928  -25.4772  -42.9422 H         1 UNK         0.0839 
    100 H100       23.0944  -28.5972  -40.7359 H         1 UNK         0.2998 
    101 H101       23.1070  -30.7408  -40.2553 H         1 UNK         0.0822 
    102 H102       24.7708  -31.6615  -38.6795 H         1 UNK         0.0787 
    103 H103       24.3243  -30.0386  -38.1786 H         1 UNK         0.0787 
    104 H104       25.8656  -30.3209  -38.9844 H         1 UNK         0.0787 
    105 H105       23.5772  -30.2585  -42.8227 H         1 UNK         0.3055 
    106 H106       25.8960  -31.8292  -43.7784 H         1 UNK         0.1106 
    107 H107       23.7355  -30.2926  -45.3033 H         1 UNK         0.0828 
    108 H108       25.3675  -29.7324  -44.9606 H         1 UNK         0.0828 
    109 H109       25.1139  -31.1041  -46.0278 H         1 UNK         0.0828 
    110 H110       22.3411  -32.0887  -43.5157 H         1 UNK         0.2931 
    111 H111       22.4269  -34.8453  -44.6065 H         1 UNK         0.0412 
    112 H112       21.4590  -36.5532  -41.6091 H         1 UNK         0.3472 
    113 H113       21.2429  -36.5824  -43.3392 H         1 UNK         0.3472 
    114 H114       20.6471  -33.5470  -45.5656 H         1 UNK         0.0970 
    115 H115       19.9640  -34.7955  -44.5680 H         1 UNK         0.0970 
    116 H116       17.4570  -33.3861  -44.5326 H         1 UNK         0.0612 
    117 H117       18.3953  -32.5569  -45.7552 H         1 UNK         0.0612 
@<TRIPOS>BOND
     1    1    2 1    
     2    1   62 1    
     3    1   63 1    
     4    1   64 1    
     5    2    3 2    
     6    2    4 am   BACKBONE|DICT|INTERRES
     7    4    5 1    
     8    4   65 1    
     9    5    6 1    
    10    5   25 1    
    11    5   66 1    
    12    6    7 1    
    13    6   67 1    
    14    6   68 1    
    15    7    8 1    
    16    8    9 1    
    17    8   69 1    
    18    8   70 1    
    19    9   10 ar   
    20    9   14 ar   
    21   10   11 ar   
    22   10   71 1    
    23   11   12 ar   
    24   11   61 1    
    25   12   13 ar   
    26   12   72 1    
    27   13   14 ar   
    28   13   15 1    
    29   14   73 1    
    30   15   16 1    
    31   15   74 1    
    32   15   75 1    
    33   16   17 1    
    34   17   18 1    
    35   17   76 1    
    36   17   77 1    
    37   18   19 1    
    38   18   27 1    
    39   18   78 1    
    40   19   20 am   BACKBONE|DICT|INTERRES
    41   19   79 1    
    42   20   21 2    
    43   20   22 1    
    44   22   23 1    
    45   22   24 1    
    46   22   80 1    
    47   23   81 1    
    48   23   82 1    
    49   23   83 1    
    50   24   25 am   BACKBONE|DICT|INTERRES
    51   24   84 1    
    52   25   26 2    
    53   27   28 2    
    54   27   29 am   BACKBONE|DICT|INTERRES
    55   29   30 1    
    56   29   85 1    
    57   30   31 1    
    58   30   32 1    
    59   30   86 1    
    60   31   87 1    
    61   31   88 1    
    62   31   89 1    
    63   32   33 2    
    64   32   34 am   BACKBONE|DICT|INTERRES
    65   34   35 1    
    66   34   90 1    
    67   35   36 1    
    68   35   37 1    
    69   35   91 1    
    70   36   92 1    
    71   36   93 1    
    72   36   94 1    
    73   37   38 2    
    74   37   39 am   BACKBONE|DICT|INTERRES
    75   39   40 1    
    76   39   95 1    
    77   40   41 1    
    78   40   42 1    
    79   40   96 1    
    80   41   97 1    
    81   41   98 1    
    82   41   99 1    
    83   42   43 2    
    84   42   44 am   BACKBONE|DICT|INTERRES
    85   44   45 1    
    86   44  100 1    
    87   45   46 1    
    88   45   47 1    
    89   45  101 1    
    90   46  102 1    
    91   46  103 1    
    92   46  104 1    
    93   47   48 2    
    94   47   49 am   BACKBONE|DICT|INTERRES
    95   49   50 1    
    96   49  105 1    
    97   50   51 1    
    98   50   52 1    
    99   50  106 1    
   100   51  107 1    
   101   51  108 1    
   102   51  109 1    
   103   52   53 2    
   104   52   54 am   BACKBONE|DICT|INTERRES
   105   54   55 1    
   106   54  110 1    
   107   55   56 1    
   108   55   59 1    
   109   55  111 1    
   110   56   57 am   BACKBONE|DICT|INTERRES
   111   56   58 2    
   112   57  112 1    
   113   57  113 1    
   114   59   60 1    
   115   59  114 1    
   116   59  115 1    
   117   60   61 1    
   118   61  116 1    
   119   61  117 1    
@<TRIPOS>SUBSTRUCTURE
     1 UNK         1 GROUP             0       ****    0 ROOT    
