@<TRIPOS>MOLECULE
3R8
117   119    1
SMALL
USER_CHARGES


@<TRIPOS>ATOM
      1 CA         16.5299  -26.9255  -50.3184 C.3       0 UNK        -0.2013 
      2 C          17.0591  -26.8889  -48.8928 C.2       0 UNK         0.4866 
      3 O          18.2399  -27.1605  -48.6681 O.2       0 UNK        -0.5176 
      4 N          16.1998  -26.5512  -47.9227 N.am      1 UNK        -0.4884 
      5 CA         16.5271  -26.4612  -46.4952 C.3       1 UNK         0.0853 
      6 C6         15.2737  -26.6329  -45.5997 C.3       10 UNK        -0.0849 
      7 S7         14.6876  -28.3604  -45.6214 S.3       10 UNK        -0.2776 
      8 C8         14.5058  -28.7356  -43.8448 C.3       10 UNK         0.0316 
      9 C9         15.8280  -28.7456  -43.0826 C.ar      10 UNK        -0.0863 
     10 C10        16.7729  -29.7506  -43.3150 C.ar      10 UNK        -0.1009 
     11 C11        17.9550  -29.8040  -42.5682 C.ar      10 UNK        -0.0712 
     12 C12        18.1744  -28.8552  -41.5655 C.ar      10 UNK        -0.0894 
     13 C13        17.2579  -27.8198  -41.3455 C.ar      10 UNK        -0.0745 
     14 C14        16.0849  -27.7767  -42.1063 C.ar      10 UNK        -0.0972 
     15 C15        17.5029  -26.7597  -40.2719 C.3       10 UNK         0.0209 
     16 S16        19.2274  -26.1589  -40.1904 S.3       10 UNK        -0.2568 
     17 C17        19.4115  -25.2452  -41.7617 C.3       10 UNK        -0.0983 
     18 CA         19.9861  -26.1342  -42.8961 C.3       3 UNK         0.0876 
     19 N          19.7529  -25.6202  -44.2395 N.am      3 UNK        -0.4424 
     20 C          20.0750  -24.4269  -44.7544 C.2       2 UNK         0.4918 
     21 O          20.6944  -23.5503  -44.1527 O.2       2 UNK        -0.4875 
     22 CA         19.5960  -24.1664  -46.2002 C.3       2 UNK         0.0481 
     23 CB         20.7808  -24.2202  -47.1777 C.3       2 UNK        -0.1831 
     24 N          18.5704  -25.1245  -46.6362 N.am      2 UNK        -0.4498 
     25 C          17.3099  -25.1687  -46.1810 C.2       1 UNK         0.5027 
     26 O          16.7947  -24.2719  -45.5111 O.2       1 UNK        -0.4969 
     27 C          21.4481  -26.5728  -42.7076 C.2       3 UNK         0.5005 
     28 O          22.2534  -25.8626  -42.1016 O.2       3 UNK        -0.5279 
     29 N          21.7545  -27.7736  -43.2189 N.am      4 UNK        -0.4463 
     30 CA         23.0288  -28.4788  -43.0627 C.3       4 UNK         0.0283 
     31 CB         23.1431  -29.5367  -44.1757 C.3       4 UNK        -0.1875 
     32 C          23.1830  -29.0915  -41.6548 C.2       4 UNK         0.4949 
     33 O          23.4166  -30.2940  -41.5228 O.2       4 UNK        -0.5039 
     34 N          23.0520  -28.2532  -40.6190 N.am      5 UNK        -0.4663 
     35 CA         23.1449  -28.6240  -39.2013 C.3       5 UNK         0.0242 
     36 CB         22.6825  -27.4369  -38.3423 C.3       5 UNK        -0.1982 
     37 C          24.5466  -29.0914  -38.7667 C.2       5 UNK         0.5017 
     38 O          24.6686  -29.7929  -37.7627 O.2       5 UNK        -0.5012 
     39 N          25.5728  -28.7015  -39.5326 N.am      6 UNK        -0.4439 
     40 CA         26.9628  -29.1249  -39.3617 C.3       6 UNK         0.0297 
     41 CB         27.8816  -27.9834  -39.8320 C.3       6 UNK        -0.2006 
     42 C          27.2950  -30.4306  -40.1123 C.2       6 UNK         0.4892 
     43 O          28.4296  -30.8978  -40.0001 O.2       6 UNK        -0.5089 
     44 N          26.3432  -30.9822  -40.8791 N.am      7 UNK        -0.4243 
     45 CA         26.5353  -32.1560  -41.7261 C.3       7 UNK         0.0196 
     46 CB         26.9012  -31.7080  -43.1572 C.3       7 UNK        -0.2007 
     47 C          25.2986  -33.0593  -41.6345 C.2       7 UNK         0.5020 
     48 O          25.1112  -33.7050  -40.6032 O.2       7 UNK        -0.5147 
     49 N          24.4895  -33.1059  -42.7028 N.am      8 UNK        -0.4734 
     50 CA         23.3556  -34.0202  -42.8972 C.3       8 UNK         0.0238 
     51 CB         22.7144  -33.7426  -44.2669 C.3       8 UNK        -0.1912 
     52 C          22.2797  -34.0023  -41.7959 C.2       8 UNK         0.5038 
     53 O          21.6719  -35.0450  -41.5478 O.2       8 UNK        -0.5046 
     54 N          22.0761  -32.8437  -41.1602 N.am      9 UNK        -0.4200 
     55 CA         21.1749  -32.6537  -40.0130 C.3       9 UNK         0.0839 
     56 C          21.9491  -32.2991  -38.7112 C.2       9 UNK         0.5513 
     57 N          23.2572  -32.5107  -38.6348 N.am      9 UNK        -0.7519 
     58 O          21.3550  -31.8291  -37.7445 O.2       9 UNK        -0.4960 
     59 C59        20.0484  -31.6338  -40.3328 C.3       10 UNK        -0.0876 
     60 S60        18.9364  -32.2321  -41.6544 S.3       10 UNK        -0.2414 
     61 C61        19.0003  -30.8731  -42.8598 C.3       10 UNK         0.0169 
     62 H62        16.6563  -27.9228  -50.7390 H         1 UNK         0.0903 
     63 H63        15.4721  -26.6682  -50.3679 H         1 UNK         0.0903 
     64 H64        17.0805  -26.2206  -50.9408 H         1 UNK         0.0903 
     65 H65        15.2444  -26.3274  -48.1642 H         1 UNK         0.3096 
     66 H66        17.2031  -27.2845  -46.2502 H         1 UNK         0.1121 
     67 H67        15.4936  -26.3540  -44.5678 H         1 UNK         0.0849 
     68 H68        14.4668  -25.9728  -45.9229 H         1 UNK         0.0849 
     69 H69        13.8071  -28.0236  -43.4023 H         1 UNK         0.0865 
     70 H70        14.0366  -29.7153  -43.7436 H         1 UNK         0.0865 
     71 H71        16.5824  -30.4947  -44.0767 H         1 UNK         0.1346 
     72 H72        19.0772  -28.9006  -40.9741 H         1 UNK         0.1412 
     73 H73        15.3586  -26.9961  -41.9236 H         1 UNK         0.1426 
     74 H74        17.2414  -27.1879  -39.3036 H         1 UNK         0.0716 
     75 H75        16.8432  -25.9027  -40.4166 H         1 UNK         0.0716 
     76 H76        18.4343  -24.8543  -42.0497 H         1 UNK         0.0695 
     77 H77        20.0449  -24.3734  -41.5897 H         1 UNK         0.0695 
     78 H78        19.3995  -27.0473  -42.8947 H         1 UNK         0.0983 
     79 H79        19.2777  -26.2566  -44.8604 H         1 UNK         0.3095 
     80 H80        19.1676  -23.1625  -46.2325 H         1 UNK         0.0454 
     81 H81        21.2504  -25.2045  -47.1914 H         1 UNK         0.0851 
     82 H82        20.4672  -23.9836  -48.1946 H         1 UNK         0.0851 
     83 H83        21.5487  -23.4965  -46.9007 H         1 UNK         0.0851 
     84 H84        18.8626  -25.8648  -47.2687 H         1 UNK         0.2976 
     85 H85        21.0324  -28.2837  -43.7058 H         1 UNK         0.3116 
     86 H86        23.8433  -27.7635  -43.1953 H         1 UNK         0.0646 
     87 H87        22.3616  -30.2928  -44.0962 H         1 UNK         0.0847 
     88 H88        24.1013  -30.0526  -44.1289 H         1 UNK         0.0847 
     89 H89        23.0731  -29.0834  -45.1646 H         1 UNK         0.0847 
     90 H90        22.8495  -27.2799  -40.8317 H         1 UNK         0.3040 
     91 H91        22.4604  -29.4556  -39.0284 H         1 UNK         0.1015 
     92 H92        21.6539  -27.1591  -38.5717 H         1 UNK         0.0786 
     93 H93        23.3103  -26.5583  -38.4959 H         1 UNK         0.0786 
     94 H94        22.7193  -27.6845  -37.2804 H         1 UNK         0.0786 
     95 H95        25.3690  -28.1116  -40.3264 H         1 UNK         0.3172 
     96 H96        27.1590  -29.3011  -38.3020 H         1 UNK         0.0595 
     97 H97        27.6850  -27.0628  -39.2821 H         1 UNK         0.0839 
     98 H98        27.7562  -27.7744  -40.8951 H         1 UNK         0.0839 
     99 H99        28.9314  -28.2335  -39.6718 H         1 UNK         0.0839 
    100 H100       25.4085  -30.5885  -40.8785 H         1 UNK         0.2998 
    101 H101       27.3631  -32.7577  -41.3441 H         1 UNK         0.0822 
    102 H102       27.8599  -31.1889  -43.1657 H         1 UNK         0.0787 
    103 H103       26.9986  -32.5622  -43.8290 H         1 UNK         0.0787 
    104 H104       26.1613  -31.0282  -43.5780 H         1 UNK         0.0787 
    105 H105       24.7219  -32.5146  -43.4869 H         1 UNK         0.3055 
    106 H106       23.7666  -35.0319  -42.9139 H         1 UNK         0.1106 
    107 H107       22.3064  -32.7331  -44.3234 H         1 UNK         0.0828 
    108 H108       23.4335  -33.8630  -45.0773 H         1 UNK         0.0828 
    109 H109       21.8935  -34.4345  -44.4609 H         1 UNK         0.0828 
    110 H110       22.6470  -32.0388  -41.4048 H         1 UNK         0.2931 
    111 H111       20.6851  -33.5993  -39.7750 H         1 UNK         0.0412 
    112 H112       23.7697  -32.9364  -39.4001 H         1 UNK         0.3472 
    113 H113       23.7466  -32.2385  -37.7966 H         1 UNK         0.3472 
    114 H114       20.4885  -30.6734  -40.6022 H         1 UNK         0.0970 
    115 H115       19.4276  -31.4484  -39.4545 H         1 UNK         0.0970 
    116 H116       19.9988  -30.4348  -42.8802 H         1 UNK         0.0612 
    117 H117       18.8375  -31.2916  -43.8542 H         1 UNK         0.0612 
@<TRIPOS>BOND
     1    1    2 1    
     2    1   62 1    
     3    1   63 1    
     4    1   64 1    
     5    2    3 2    
     6    2    4 am   BACKBONE|DICT|INTERRES
     7    4    5 1    
     8    4   65 1    
     9    5    6 1    
    10    5   25 1    
    11    5   66 1    
    12    6    7 1    
    13    6   67 1    
    14    6   68 1    
    15    7    8 1    
    16    8    9 1    
    17    8   69 1    
    18    8   70 1    
    19    9   10 ar   
    20    9   14 ar   
    21   10   11 ar   
    22   10   71 1    
    23   11   12 ar   
    24   11   61 1    
    25   12   13 ar   
    26   12   72 1    
    27   13   14 ar   
    28   13   15 1    
    29   14   73 1    
    30   15   16 1    
    31   15   74 1    
    32   15   75 1    
    33   16   17 1    
    34   17   18 1    
    35   17   76 1    
    36   17   77 1    
    37   18   19 1    
    38   18   27 1    
    39   18   78 1    
    40   19   20 am   BACKBONE|DICT|INTERRES
    41   19   79 1    
    42   20   21 2    
    43   20   22 1    
    44   22   23 1    
    45   22   24 1    
    46   22   80 1    
    47   23   81 1    
    48   23   82 1    
    49   23   83 1    
    50   24   25 am   BACKBONE|DICT|INTERRES
    51   24   84 1    
    52   25   26 2    
    53   27   28 2    
    54   27   29 am   BACKBONE|DICT|INTERRES
    55   29   30 1    
    56   29   85 1    
    57   30   31 1    
    58   30   32 1    
    59   30   86 1    
    60   31   87 1    
    61   31   88 1    
    62   31   89 1    
    63   32   33 2    
    64   32   34 am   BACKBONE|DICT|INTERRES
    65   34   35 1    
    66   34   90 1    
    67   35   36 1    
    68   35   37 1    
    69   35   91 1    
    70   36   92 1    
    71   36   93 1    
    72   36   94 1    
    73   37   38 2    
    74   37   39 am   BACKBONE|DICT|INTERRES
    75   39   40 1    
    76   39   95 1    
    77   40   41 1    
    78   40   42 1    
    79   40   96 1    
    80   41   97 1    
    81   41   98 1    
    82   41   99 1    
    83   42   43 2    
    84   42   44 am   BACKBONE|DICT|INTERRES
    85   44   45 1    
    86   44  100 1    
    87   45   46 1    
    88   45   47 1    
    89   45  101 1    
    90   46  102 1    
    91   46  103 1    
    92   46  104 1    
    93   47   48 2    
    94   47   49 am   BACKBONE|DICT|INTERRES
    95   49   50 1    
    96   49  105 1    
    97   50   51 1    
    98   50   52 1    
    99   50  106 1    
   100   51  107 1    
   101   51  108 1    
   102   51  109 1    
   103   52   53 2    
   104   52   54 am   BACKBONE|DICT|INTERRES
   105   54   55 1    
   106   54  110 1    
   107   55   56 1    
   108   55   59 1    
   109   55  111 1    
   110   56   57 am   BACKBONE|DICT|INTERRES
   111   56   58 2    
   112   57  112 1    
   113   57  113 1    
   114   59   60 1    
   115   59  114 1    
   116   59  115 1    
   117   60   61 1    
   118   61  116 1    
   119   61  117 1    
@<TRIPOS>SUBSTRUCTURE
     1 UNK         1 GROUP             0       ****    0 ROOT    
