@<TRIPOS>MOLECULE
3R8
117   119    1
SMALL
USER_CHARGES


@<TRIPOS>ATOM
      1 CA         17.2765  -25.3299  -40.6667 C.3       0 UNK        -0.2013 
      2 C          17.5352  -25.7105  -42.1165 C.2       0 UNK         0.4866 
      3 O          18.6797  -25.9870  -42.4773 O.2       0 UNK        -0.5176 
      4 N          16.4831  -25.7252  -42.9503 N.am      1 UNK        -0.4884 
      5 CA         16.5371  -26.0301  -44.3885 C.3       1 UNK         0.0853 
      6 C6         17.0355  -27.4833  -44.6372 C.3       10 UNK        -0.0849 
      7 S7         16.5870  -28.2098  -46.2532 S.3       10 UNK        -0.2776 
      8 C8         16.9935  -29.9733  -45.9902 C.3       10 UNK         0.0316 
      9 C9         18.3350  -30.1541  -45.2909 C.ar      10 UNK        -0.0863 
     10 C10        18.3763  -30.4781  -43.9311 C.ar      10 UNK        -0.1009 
     11 C11        19.5961  -30.5474  -43.2531 C.ar      10 UNK        -0.0712 
     12 C12        20.7833  -30.2993  -43.9490 C.ar      10 UNK        -0.0894 
     13 C13        20.7575  -30.0097  -45.3173 C.ar      10 UNK        -0.0745 
     14 C14        19.5300  -29.9443  -45.9846 C.ar      10 UNK        -0.0972 
     15 C15        22.0558  -29.7673  -46.0745 C.3       10 UNK         0.0209 
     16 S16        22.1810  -28.0685  -46.7161 S.3       10 UNK        -0.2568 
     17 C17        22.3150  -27.1043  -45.1738 C.3       10 UNK        -0.0983 
     18 CA         21.9655  -25.6138  -45.3969 C.3       3 UNK         0.0876 
     19 N          20.5993  -25.4412  -45.8968 N.am      3 UNK        -0.4424 
     20 C          20.1659  -24.3710  -46.5761 C.2       2 UNK         0.4918 
     21 O          20.8494  -23.3692  -46.7884 O.2       2 UNK        -0.4875 
     22 CA         18.7351  -24.4394  -47.1405 C.3       2 UNK         0.0481 
     23 CB         18.7585  -24.9595  -48.5866 C.3       2 UNK        -0.1831 
     24 N          17.8543  -25.2909  -46.3388 N.am      2 UNK        -0.4498 
     25 C          17.3329  -24.9430  -45.1566 C.2       1 UNK         0.5027 
     26 O          17.4556  -23.8121  -44.6768 O.2       1 UNK        -0.4969 
     27 C          22.2426  -24.8015  -44.1184 C.2       3 UNK         0.5005 
     28 O          23.3910  -24.4062  -43.9077 O.2       3 UNK        -0.5279 
     29 N          21.2168  -24.5911  -43.2767 N.am      4 UNK        -0.4463 
     30 CA         21.2348  -23.9523  -41.9507 C.3       4 UNK         0.0283 
     31 CB         21.7581  -22.5033  -42.0050 C.3       4 UNK        -0.1875 
     32 C          21.9675  -24.7850  -40.8821 C.2       4 UNK         0.4949 
     33 O          21.4102  -25.0181  -39.8092 O.2       4 UNK        -0.5039 
     34 N          23.1878  -25.2333  -41.1954 N.am      5 UNK        -0.4663 
     35 CA         23.9518  -26.2113  -40.4244 C.3       5 UNK         0.0242 
     36 CB         25.4351  -26.0971  -40.8111 C.3       5 UNK        -0.1982 
     37 C          23.4356  -27.6352  -40.6921 C.2       5 UNK         0.5017 
     38 O          22.9516  -27.9188  -41.7911 O.2       5 UNK        -0.5012 
     39 N          23.5746  -28.5114  -39.6904 N.am      6 UNK        -0.4439 
     40 CA         23.2077  -29.9243  -39.7763 C.3       6 UNK         0.0297 
     41 CB         23.1379  -30.5161  -38.3585 C.3       6 UNK        -0.2006 
     42 C          24.2019  -30.7143  -40.6420 C.2       6 UNK         0.4892 
     43 O          25.4122  -30.5277  -40.5017 O.2       6 UNK        -0.5089 
     44 N          23.6702  -31.6193  -41.4700 N.am      7 UNK        -0.4243 
     45 CA         24.4248  -32.5799  -42.2743 C.3       7 UNK         0.0196 
     46 CB         24.0849  -32.3695  -43.7617 C.3       7 UNK        -0.2007 
     47 C          24.0664  -33.9845  -41.7704 C.2       7 UNK         0.5020 
     48 O          23.4137  -34.7506  -42.4798 O.2       7 UNK        -0.5147 
     49 N          24.4388  -34.2547  -40.5090 N.am      8 UNK        -0.4734 
     50 CA         24.0494  -35.4216  -39.6981 C.3       8 UNK         0.0238 
     51 CB         24.5942  -36.7348  -40.3010 C.3       8 UNK        -0.1912 
     52 C          22.5319  -35.4733  -39.4119 C.2       8 UNK         0.5038 
     53 O          21.9680  -36.5578  -39.2561 O.2       8 UNK        -0.5046 
     54 N          21.9064  -34.2904  -39.3479 N.am      9 UNK        -0.4200 
     55 CA         20.4651  -34.0865  -39.1303 C.3       9 UNK         0.0839 
     56 C          19.9945  -34.2926  -37.6608 C.2       9 UNK         0.5513 
     57 N          20.8849  -34.4474  -36.6881 N.am      9 UNK        -0.7519 
     58 O          18.7946  -34.3168  -37.4002 O.2       9 UNK        -0.4960 
     59 C59        19.9950  -32.7104  -39.6773 C.3       10 UNK        -0.0876 
     60 S60        20.3607  -32.4990  -41.4521 S.3       10 UNK        -0.2414 
     61 C61        19.6247  -30.8656  -41.7656 C.3       10 UNK         0.0169 
     62 H62        17.8519  -24.4423  -40.4050 H         1 UNK         0.0903 
     63 H63        16.2234  -25.1206  -40.4802 H         1 UNK         0.0903 
     64 H64        17.5846  -26.1408  -40.0073 H         1 UNK         0.0903 
     65 H65        15.5744  -25.4518  -42.6017 H         1 UNK         0.3096 
     66 H66        15.5094  -25.9585  -44.7484 H         1 UNK         0.1121 
     67 H67        18.1179  -27.5435  -44.5084 H         1 UNK         0.0849 
     68 H68        16.6124  -28.1376  -43.8732 H         1 UNK         0.0849 
     69 H69        16.1944  -30.4381  -45.4106 H         1 UNK         0.0865 
     70 H70        17.0080  -30.4859  -46.9531 H         1 UNK         0.0865 
     71 H71        17.4539  -30.6448  -43.3916 H         1 UNK         0.1346 
     72 H72        21.7274  -30.3344  -43.4230 H         1 UNK         0.1412 
     73 H73        19.5041  -29.6950  -47.0369 H         1 UNK         0.1426 
     74 H74        22.1145  -30.4658  -46.9103 H         1 UNK         0.0716 
     75 H75        22.9215  -29.9698  -45.4431 H         1 UNK         0.0716 
     76 H76        21.6617  -27.5350  -44.4127 H         1 UNK         0.0695 
     77 H77        23.3349  -27.2133  -44.7988 H         1 UNK         0.0695 
     78 H78        22.6475  -25.2278  -46.1585 H         1 UNK         0.0983 
     79 H79        19.9807  -26.2300  -45.7862 H         1 UNK         0.3095 
     80 H80        18.3293  -23.4256  -47.1511 H         1 UNK         0.0454 
     81 H81        19.3879  -24.3298  -49.2171 H         1 UNK         0.0851 
     82 H82        19.1515  -25.9754  -48.6460 H         1 UNK         0.0851 
     83 H83        17.7605  -24.9590  -49.0251 H         1 UNK         0.0851 
     84 H84        17.6743  -26.2282  -46.6789 H         1 UNK         0.2976 
     85 H85        20.3291  -25.0280  -43.5016 H         1 UNK         0.3116 
     86 H86        20.1901  -23.8994  -41.6417 H         1 UNK         0.0646 
     87 H87        21.6420  -22.0155  -41.0365 H         1 UNK         0.0847 
     88 H88        21.2068  -21.9106  -42.7349 H         1 UNK         0.0847 
     89 H89        22.8160  -22.4542  -42.2630 H         1 UNK         0.0847 
     90 H90        23.5302  -25.0121  -42.1270 H         1 UNK         0.3040 
     91 H91        23.8427  -25.9853  -39.3612 H         1 UNK         0.1015 
     92 H92        25.8224  -25.0985  -40.6076 H         1 UNK         0.0786 
     93 H93        25.5921  -26.3083  -41.8699 H         1 UNK         0.0786 
     94 H94        26.0441  -26.8028  -40.2443 H         1 UNK         0.0786 
     95 H95        24.0305  -28.2141  -38.8398 H         1 UNK         0.3172 
     96 H96        22.2155  -29.9918  -40.2234 H         1 UNK         0.0595 
     97 H97        24.0978  -30.4475  -37.8446 H         1 UNK         0.0839 
     98 H98        22.8597  -31.5694  -38.3812 H         1 UNK         0.0839 
     99 H99        22.3946  -30.0009  -37.7496 H         1 UNK         0.0839 
    100 H100       22.6640  -31.7259  -41.5012 H         1 UNK         0.2998 
    101 H101       25.5014  -32.4464  -42.1474 H         1 UNK         0.0822 
    102 H102       24.3767  -31.3727  -44.0916 H         1 UNK         0.0787 
    103 H103       24.6163  -33.0867  -44.3886 H         1 UNK         0.0787 
    104 H104       23.0185  -32.4909  -43.9572 H         1 UNK         0.0787 
    105 H105       24.9842  -33.5532  -40.0251 H         1 UNK         0.3055 
    106 H106       24.5270  -35.2908  -38.7255 H         1 UNK         0.1106 
    107 H107       24.0982  -36.9903  -41.2378 H         1 UNK         0.0828 
    108 H108       25.6648  -36.6695  -40.4944 H         1 UNK         0.0828 
    109 H109       24.4408  -37.5710  -39.6177 H         1 UNK         0.0828 
    110 H110       22.4549  -33.4600  -39.4963 H         1 UNK         0.2931 
    111 H111       19.9467  -34.8530  -39.7100 H         1 UNK         0.0412 
    112 H112       20.5633  -34.5835  -35.7423 H         1 UNK         0.3472 
    113 H113       21.8717  -34.4378  -36.8882 H         1 UNK         0.3472 
    114 H114       20.4543  -31.8937  -39.1182 H         1 UNK         0.0970 
    115 H115       18.9166  -32.6007  -39.5453 H         1 UNK         0.0970 
    116 H116       20.1867  -30.0934  -41.2408 H         1 UNK         0.0612 
    117 H117       18.6151  -30.8450  -41.3522 H         1 UNK         0.0612 
@<TRIPOS>BOND
     1    1    2 1    
     2    1   62 1    
     3    1   63 1    
     4    1   64 1    
     5    2    3 2    
     6    2    4 am   BACKBONE|DICT|INTERRES
     7    4    5 1    
     8    4   65 1    
     9    5    6 1    
    10    5   25 1    
    11    5   66 1    
    12    6    7 1    
    13    6   67 1    
    14    6   68 1    
    15    7    8 1    
    16    8    9 1    
    17    8   69 1    
    18    8   70 1    
    19    9   10 ar   
    20    9   14 ar   
    21   10   11 ar   
    22   10   71 1    
    23   11   12 ar   
    24   11   61 1    
    25   12   13 ar   
    26   12   72 1    
    27   13   14 ar   
    28   13   15 1    
    29   14   73 1    
    30   15   16 1    
    31   15   74 1    
    32   15   75 1    
    33   16   17 1    
    34   17   18 1    
    35   17   76 1    
    36   17   77 1    
    37   18   19 1    
    38   18   27 1    
    39   18   78 1    
    40   19   20 am   BACKBONE|DICT|INTERRES
    41   19   79 1    
    42   20   21 2    
    43   20   22 1    
    44   22   23 1    
    45   22   24 1    
    46   22   80 1    
    47   23   81 1    
    48   23   82 1    
    49   23   83 1    
    50   24   25 am   BACKBONE|DICT|INTERRES
    51   24   84 1    
    52   25   26 2    
    53   27   28 2    
    54   27   29 am   BACKBONE|DICT|INTERRES
    55   29   30 1    
    56   29   85 1    
    57   30   31 1    
    58   30   32 1    
    59   30   86 1    
    60   31   87 1    
    61   31   88 1    
    62   31   89 1    
    63   32   33 2    
    64   32   34 am   BACKBONE|DICT|INTERRES
    65   34   35 1    
    66   34   90 1    
    67   35   36 1    
    68   35   37 1    
    69   35   91 1    
    70   36   92 1    
    71   36   93 1    
    72   36   94 1    
    73   37   38 2    
    74   37   39 am   BACKBONE|DICT|INTERRES
    75   39   40 1    
    76   39   95 1    
    77   40   41 1    
    78   40   42 1    
    79   40   96 1    
    80   41   97 1    
    81   41   98 1    
    82   41   99 1    
    83   42   43 2    
    84   42   44 am   BACKBONE|DICT|INTERRES
    85   44   45 1    
    86   44  100 1    
    87   45   46 1    
    88   45   47 1    
    89   45  101 1    
    90   46  102 1    
    91   46  103 1    
    92   46  104 1    
    93   47   48 2    
    94   47   49 am   BACKBONE|DICT|INTERRES
    95   49   50 1    
    96   49  105 1    
    97   50   51 1    
    98   50   52 1    
    99   50  106 1    
   100   51  107 1    
   101   51  108 1    
   102   51  109 1    
   103   52   53 2    
   104   52   54 am   BACKBONE|DICT|INTERRES
   105   54   55 1    
   106   54  110 1    
   107   55   56 1    
   108   55   59 1    
   109   55  111 1    
   110   56   57 am   BACKBONE|DICT|INTERRES
   111   56   58 2    
   112   57  112 1    
   113   57  113 1    
   114   59   60 1    
   115   59  114 1    
   116   59  115 1    
   117   60   61 1    
   118   61  116 1    
   119   61  117 1    
@<TRIPOS>SUBSTRUCTURE
     1 UNK         1 GROUP             0       ****    0 ROOT    
