@<TRIPOS>MOLECULE
3R8
117   119    1
SMALL
USER_CHARGES


@<TRIPOS>ATOM
      1 CA         14.1876  -22.3118  -43.6061 C.3       0 UNK        -0.2013 
      2 C          14.7435  -23.4455  -44.4548 C.2       0 UNK         0.4866 
      3 O          14.8923  -23.2869  -45.6670 O.2       0 UNK        -0.5176 
      4 N          15.0448  -24.5913  -43.8305 N.am      1 UNK        -0.4884 
      5 CA         15.6549  -25.7578  -44.4766 C.3       1 UNK         0.0853 
      6 C6         15.4765  -27.0304  -43.6079 C.3       10 UNK        -0.0849 
      7 S7         15.3849  -28.5694  -44.5870 S.3       10 UNK        -0.2776 
      8 C8         17.1010  -29.1839  -44.5877 C.3       10 UNK         0.0316 
      9 C9         17.5780  -29.6342  -43.2154 C.ar      10 UNK        -0.0863 
     10 C10        17.3535  -30.9459  -42.7895 C.ar      10 UNK        -0.1009 
     11 C11        17.8583  -31.3876  -41.5627 C.ar      10 UNK        -0.0712 
     12 C12        18.5705  -30.5009  -40.7495 C.ar      10 UNK        -0.0894 
     13 C13        18.8051  -29.1883  -41.1671 C.ar      10 UNK        -0.0745 
     14 C14        18.3000  -28.7602  -42.3976 C.ar      10 UNK        -0.0972 
     15 C15        19.6203  -28.2441  -40.2968 C.3       10 UNK         0.0209 
     16 S16        21.3131  -28.0330  -40.9393 S.3       10 UNK        -0.2568 
     17 C17        21.1050  -26.6686  -42.1334 C.3       10 UNK        -0.0983 
     18 CA         21.2302  -27.1249  -43.6157 C.3       3 UNK         0.0876 
     19 N          20.2932  -26.3900  -44.4672 N.am      3 UNK        -0.4424 
     20 C          19.9545  -26.7154  -45.7191 C.2       2 UNK         0.4918 
     21 O          20.3371  -27.7396  -46.2861 O.2       2 UNK        -0.4875 
     22 CA         18.9909  -25.7476  -46.4345 C.3       2 UNK         0.0481 
     23 CB         19.0169  -25.9284  -47.9632 C.3       2 UNK        -0.1831 
     24 N          17.6112  -25.8990  -45.9632 N.am      2 UNK        -0.4498 
     25 C          17.1422  -25.4763  -44.7811 C.2       1 UNK         0.5027 
     26 O          17.8367  -24.9008  -43.9380 O.2       1 UNK        -0.4969 
     27 C          22.6628  -26.9552  -44.1670 C.2       3 UNK         0.5005 
     28 O          23.2045  -25.8490  -44.0978 O.2       3 UNK        -0.5279 
     29 N          23.2342  -28.0238  -44.7438 N.am      4 UNK        -0.4463 
     30 CA         24.5748  -28.0170  -45.3487 C.3       4 UNK         0.0283 
     31 CB         24.7726  -29.2967  -46.1766 C.3       4 UNK        -0.1875 
     32 C          25.7064  -27.8675  -44.3156 C.2       4 UNK         0.4949 
     33 O          26.7312  -27.2532  -44.6121 O.2       4 UNK        -0.5039 
     34 N          25.4811  -28.4174  -43.1211 N.am      5 UNK        -0.4663 
     35 CA         26.2966  -28.2968  -41.9201 C.3       5 UNK         0.0242 
     36 CB         27.4989  -29.2559  -41.9796 C.3       5 UNK        -0.1982 
     37 C          25.3698  -28.6095  -40.7402 C.2       5 UNK         0.5017 
     38 O          24.3543  -29.2812  -40.9456 O.2       5 UNK        -0.5012 
     39 N          25.7206  -28.1098  -39.5475 N.am      6 UNK        -0.4439 
     40 CA         24.9205  -28.1481  -38.3166 C.3       6 UNK         0.0297 
     41 CB         25.7506  -27.5691  -37.1574 C.3       6 UNK        -0.2006 
     42 C          24.3773  -29.5467  -37.9658 C.2       6 UNK         0.4892 
     43 O          25.1320  -30.3910  -37.4798 O.2       6 UNK        -0.5089 
     44 N          23.0822  -29.7489  -38.2510 N.am      7 UNK        -0.4243 
     45 CA         22.3017  -30.9807  -38.0785 C.3       7 UNK         0.0196 
     46 CB         22.1884  -31.3579  -36.5859 C.3       7 UNK        -0.2007 
     47 C          22.7684  -32.1629  -38.9552 C.2       7 UNK         0.5020 
     48 O          22.4224  -33.3064  -38.6553 O.2       7 UNK        -0.5147 
     49 N          23.5172  -31.8859  -40.0328 N.am      8 UNK        -0.4734 
     50 CA         23.9556  -32.8904  -41.0091 C.3       8 UNK         0.0238 
     51 CB         25.2490  -32.4107  -41.6858 C.3       8 UNK        -0.1912 
     52 C          22.8815  -33.1930  -42.0680 C.2       8 UNK         0.5038 
     53 O          22.9676  -34.2287  -42.7283 O.2       8 UNK        -0.5046 
     54 N          21.9092  -32.2830  -42.2164 N.am      9 UNK        -0.4200 
     55 CA         20.7672  -32.3515  -43.1440 C.3       9 UNK         0.0839 
     56 C          21.1295  -32.1932  -44.6505 C.2       9 UNK         0.5513 
     57 N          22.3488  -31.8019  -45.0018 N.am      9 UNK        -0.7519 
     58 O          20.2834  -32.3958  -45.5173 O.2       9 UNK        -0.4960 
     59 C59        19.8191  -33.5629  -42.8819 C.3       10 UNK        -0.0876 
     60 S60        19.2866  -33.7207  -41.1385 S.3       10 UNK        -0.2414 
     61 C61        17.6912  -32.8394  -41.1423 C.3       10 UNK         0.0169 
     62 H62        14.8414  -21.4422  -43.6677 H         1 UNK         0.0903 
     63 H63        13.2007  -22.0223  -43.9663 H         1 UNK         0.0903 
     64 H64        14.0962  -22.5935  -42.5573 H         1 UNK         0.0903 
     65 H65        14.9371  -24.6505  -42.8277 H         1 UNK         0.3096 
     66 H66        15.1293  -25.9063  -45.4232 H         1 UNK         0.1121 
     67 H67        16.2270  -27.0989  -42.8212 H         1 UNK         0.0849 
     68 H68        14.5245  -26.9758  -43.0769 H         1 UNK         0.0849 
     69 H69        17.1669  -30.0212  -45.2844 H         1 UNK         0.0865 
     70 H70        17.7696  -28.4249  -44.9862 H         1 UNK         0.0865 
     71 H71        16.8139  -31.6311  -43.4290 H         1 UNK         0.1346 
     72 H72        18.9713  -30.8490  -39.8073 H         1 UNK         0.1412 
     73 H73        18.4858  -27.7487  -42.7279 H         1 UNK         0.1426 
     74 H74        19.6873  -28.6364  -39.2809 H         1 UNK         0.0716 
     75 H75        19.1167  -27.2805  -40.2097 H         1 UNK         0.0716 
     76 H76        21.8211  -25.8836  -41.8830 H         1 UNK         0.0695 
     77 H77        20.1308  -26.2109  -41.9573 H         1 UNK         0.0695 
     78 H78        20.9543  -28.1802  -43.6798 H         1 UNK         0.0983 
     79 H79        19.8842  -25.5513  -44.0734 H         1 UNK         0.3095 
     80 H80        19.3226  -24.7296  -46.2188 H         1 UNK         0.0454 
     81 H81        20.0305  -25.8187  -48.3513 H         1 UNK         0.0851 
     82 H82        18.3990  -25.1817  -48.4620 H         1 UNK         0.0851 
     83 H83        18.6595  -26.9145  -48.2628 H         1 UNK         0.0851 
     84 H84        16.9809  -26.3826  -46.5873 H         1 UNK         0.2976 
     85 H85        22.7052  -28.8815  -44.8178 H         1 UNK         0.3116 
     86 H86        24.6319  -27.1629  -46.0271 H         1 UNK         0.0646 
     87 H87        24.7506  -30.1907  -45.5530 H         1 UNK         0.0847 
     88 H88        24.0047  -29.3986  -46.9436 H         1 UNK         0.0847 
     89 H89        25.7370  -29.2828  -46.6863 H         1 UNK         0.0847 
     90 H90        24.5894  -28.8656  -42.9455 H         1 UNK         0.3040 
     91 H91        26.6459  -27.2658  -41.8297 H         1 UNK         0.1015 
     92 H92        28.0868  -29.2072  -41.0623 H         1 UNK         0.0786 
     93 H93        28.1661  -29.0023  -42.8035 H         1 UNK         0.0786 
     94 H94        27.1868  -30.2908  -42.1137 H         1 UNK         0.0786 
     95 H95        26.5933  -27.6055  -39.4859 H         1 UNK         0.3172 
     96 H96        24.0688  -27.4824  -38.4727 H         1 UNK         0.0595 
     97 H97        26.6648  -28.1403  -36.9902 H         1 UNK         0.0839 
     98 H98        25.1834  -27.5847  -36.2257 H         1 UNK         0.0839 
     99 H99        26.0310  -26.5325  -37.3453 H         1 UNK         0.0839 
    100 H100       22.5924  -28.9971  -38.7186 H         1 UNK         0.2998 
    101 H101       21.2967  -30.7417  -38.4292 H         1 UNK         0.0822 
    102 H102       21.4793  -32.1737  -36.4397 H         1 UNK         0.0787 
    103 H103       21.8369  -30.5163  -35.9891 H         1 UNK         0.0787 
    104 H104       23.1452  -31.6839  -36.1770 H         1 UNK         0.0787 
    105 H105       23.7733  -30.9186  -40.2233 H         1 UNK         0.3055 
    106 H106       24.1724  -33.8250  -40.4865 H         1 UNK         0.1106 
    107 H107       26.0207  -32.1858  -40.9495 H         1 UNK         0.0828 
    108 H108       25.6485  -33.1777  -42.3506 H         1 UNK         0.0828 
    109 H109       25.0824  -31.5164  -42.2864 H         1 UNK         0.0828 
    110 H110       21.9433  -31.4635  -41.6285 H         1 UNK         0.2931 
    111 H111       20.2037  -31.4458  -42.9293 H         1 UNK         0.0412 
    112 H112       23.0634  -31.6833  -44.3038 H         1 UNK         0.3472 
    113 H113       22.5685  -31.7116  -45.9810 H         1 UNK         0.3472 
    114 H114       18.9298  -33.4957  -43.5109 H         1 UNK         0.0970 
    115 H115       20.3117  -34.4933  -43.1681 H         1 UNK         0.0970 
    116 H116       17.2614  -32.8781  -40.1405 H         1 UNK         0.0612 
    117 H117       16.9938  -33.3612  -41.7995 H         1 UNK         0.0612 
@<TRIPOS>BOND
     1    1    2 1    
     2    1   62 1    
     3    1   63 1    
     4    1   64 1    
     5    2    3 2    
     6    2    4 am   BACKBONE|DICT|INTERRES
     7    4    5 1    
     8    4   65 1    
     9    5    6 1    
    10    5   25 1    
    11    5   66 1    
    12    6    7 1    
    13    6   67 1    
    14    6   68 1    
    15    7    8 1    
    16    8    9 1    
    17    8   69 1    
    18    8   70 1    
    19    9   10 ar   
    20    9   14 ar   
    21   10   11 ar   
    22   10   71 1    
    23   11   12 ar   
    24   11   61 1    
    25   12   13 ar   
    26   12   72 1    
    27   13   14 ar   
    28   13   15 1    
    29   14   73 1    
    30   15   16 1    
    31   15   74 1    
    32   15   75 1    
    33   16   17 1    
    34   17   18 1    
    35   17   76 1    
    36   17   77 1    
    37   18   19 1    
    38   18   27 1    
    39   18   78 1    
    40   19   20 am   BACKBONE|DICT|INTERRES
    41   19   79 1    
    42   20   21 2    
    43   20   22 1    
    44   22   23 1    
    45   22   24 1    
    46   22   80 1    
    47   23   81 1    
    48   23   82 1    
    49   23   83 1    
    50   24   25 am   BACKBONE|DICT|INTERRES
    51   24   84 1    
    52   25   26 2    
    53   27   28 2    
    54   27   29 am   BACKBONE|DICT|INTERRES
    55   29   30 1    
    56   29   85 1    
    57   30   31 1    
    58   30   32 1    
    59   30   86 1    
    60   31   87 1    
    61   31   88 1    
    62   31   89 1    
    63   32   33 2    
    64   32   34 am   BACKBONE|DICT|INTERRES
    65   34   35 1    
    66   34   90 1    
    67   35   36 1    
    68   35   37 1    
    69   35   91 1    
    70   36   92 1    
    71   36   93 1    
    72   36   94 1    
    73   37   38 2    
    74   37   39 am   BACKBONE|DICT|INTERRES
    75   39   40 1    
    76   39   95 1    
    77   40   41 1    
    78   40   42 1    
    79   40   96 1    
    80   41   97 1    
    81   41   98 1    
    82   41   99 1    
    83   42   43 2    
    84   42   44 am   BACKBONE|DICT|INTERRES
    85   44   45 1    
    86   44  100 1    
    87   45   46 1    
    88   45   47 1    
    89   45  101 1    
    90   46  102 1    
    91   46  103 1    
    92   46  104 1    
    93   47   48 2    
    94   47   49 am   BACKBONE|DICT|INTERRES
    95   49   50 1    
    96   49  105 1    
    97   50   51 1    
    98   50   52 1    
    99   50  106 1    
   100   51  107 1    
   101   51  108 1    
   102   51  109 1    
   103   52   53 2    
   104   52   54 am   BACKBONE|DICT|INTERRES
   105   54   55 1    
   106   54  110 1    
   107   55   56 1    
   108   55   59 1    
   109   55  111 1    
   110   56   57 am   BACKBONE|DICT|INTERRES
   111   56   58 2    
   112   57  112 1    
   113   57  113 1    
   114   59   60 1    
   115   59  114 1    
   116   59  115 1    
   117   60   61 1    
   118   61  116 1    
   119   61  117 1    
@<TRIPOS>SUBSTRUCTURE
     1 UNK         1 GROUP             0       ****    0 ROOT    
