@<TRIPOS>MOLECULE
3R8
117   119    1
SMALL
USER_CHARGES


@<TRIPOS>ATOM
      1 CA         20.2905  -24.7885  -39.5539 C.3       0 UNK        -0.2013 
      2 C          19.3358  -24.9636  -40.7240 C.2       0 UNK         0.4866 
      3 O          18.2140  -24.4581  -40.6760 O.2       0 UNK        -0.5176 
      4 N          19.7796  -25.6632  -41.7729 N.am      1 UNK        -0.4884 
      5 CA         19.0485  -25.8709  -43.0238 C.3       1 UNK         0.0853 
      6 C6         18.7391  -27.3728  -43.2575 C.3       10 UNK        -0.0849 
      7 S7         17.5742  -28.0509  -42.0260 S.3       10 UNK        -0.2776 
      8 C8         16.3359  -28.8924  -43.0694 C.3       10 UNK         0.0316 
      9 C9         16.9592  -29.9742  -43.9426 C.ar      10 UNK        -0.0863 
     10 C10        17.6037  -31.0691  -43.3569 C.ar      10 UNK        -0.1009 
     11 C11        18.2271  -32.0330  -44.1539 C.ar      10 UNK        -0.0712 
     12 C12        18.1823  -31.9118  -45.5445 C.ar      10 UNK        -0.0894 
     13 C13        17.5418  -30.8226  -46.1414 C.ar      10 UNK        -0.0745 
     14 C14        16.9196  -29.8636  -45.3367 C.ar      10 UNK        -0.0972 
     15 C15        17.5832  -30.6547  -47.6539 C.3       10 UNK         0.0209 
     16 S16        18.6457  -29.2626  -48.1694 S.3       10 UNK        -0.2568 
     17 C17        20.2089  -29.6019  -47.2808 C.3       10 UNK        -0.0983 
     18 CA         21.1782  -28.3937  -47.2646 C.3       3 UNK         0.0876 
     19 N          20.5115  -27.1684  -46.8201 N.am      3 UNK        -0.4424 
     20 C          20.9173  -25.9225  -47.0957 C.2       2 UNK         0.4918 
     21 O          21.9421  -25.6538  -47.7225 O.2       2 UNK        -0.4875 
     22 CA         20.0147  -24.7816  -46.5850 C.3       2 UNK         0.0481 
     23 CB         18.9991  -24.3792  -47.6661 C.3       2 UNK        -0.1831 
     24 N          19.3015  -25.1324  -45.3505 N.am      2 UNK        -0.4498 
     25 C          19.9120  -25.3171  -44.1718 C.2       1 UNK         0.5027 
     26 O          21.1156  -25.1081  -43.9995 O.2       1 UNK        -0.4969 
     27 C          22.4198  -28.7347  -46.4136 C.2       3 UNK         0.5005 
     28 O          23.3376  -29.3730  -46.9325 O.2       3 UNK        -0.5279 
     29 N          22.4294  -28.3375  -45.1319 N.am      4 UNK        -0.4463 
     30 CA         23.4852  -28.6529  -44.1730 C.3       4 UNK         0.0283 
     31 CB         23.2848  -30.0673  -43.5987 C.3       4 UNK        -0.1875 
     32 C          23.4816  -27.6230  -43.0422 C.2       4 UNK         0.4949 
     33 O          22.4258  -27.3565  -42.4588 O.2       4 UNK        -0.5039 
     34 N          24.6752  -27.1078  -42.7202 N.am      5 UNK        -0.4663 
     35 CA         24.9250  -26.2036  -41.5965 C.3       5 UNK         0.0242 
     36 CB         26.3975  -25.7641  -41.6127 C.3       5 UNK        -0.1982 
     37 C          24.5745  -26.8686  -40.2564 C.2       5 UNK         0.5017 
     38 O          24.8707  -28.0510  -40.0673 O.2       5 UNK        -0.5012 
     39 N          23.9087  -26.1059  -39.3783 N.am      6 UNK        -0.4439 
     40 CA         23.3654  -26.5203  -38.0753 C.3       6 UNK         0.0297 
     41 CB         24.5098  -26.8610  -37.0966 C.3       6 UNK        -0.2006 
     42 C          22.3112  -27.6503  -38.1402 C.2       6 UNK         0.4892 
     43 O          21.9722  -28.2025  -37.0928 O.2       6 UNK        -0.5089 
     44 N          21.8140  -27.9705  -39.3489 N.am      7 UNK        -0.4243 
     45 CA         20.9084  -29.0795  -39.6734 C.3       7 UNK         0.0196 
     46 CB         19.5115  -28.8469  -39.0604 C.3       7 UNK        -0.2007 
     47 C          21.5103  -30.4491  -39.2987 C.2       7 UNK         0.5020 
     48 O          20.8023  -31.3123  -38.7784 O.2       7 UNK        -0.5147 
     49 N          22.8185  -30.6162  -39.5531 N.am      8 UNK        -0.4734 
     50 CA         23.6368  -31.7640  -39.1350 C.3       8 UNK         0.0238 
     51 CB         25.0885  -31.5318  -39.5841 C.3       8 UNK        -0.1912 
     52 C          23.1442  -33.1452  -39.6079 C.2       8 UNK         0.5038 
     53 O          23.4177  -34.1406  -38.9357 O.2       8 UNK        -0.5046 
     54 N          22.4273  -33.1812  -40.7364 N.am      9 UNK        -0.4200 
     55 CA         21.7349  -34.3661  -41.2632 C.3       9 UNK         0.0839 
     56 C          20.4310  -34.7572  -40.5061 C.2       9 UNK         0.5513 
     57 N          19.9162  -33.9535  -39.5833 N.am      9 UNK        -0.7519 
     58 O          19.8793  -35.8256  -40.7570 O.2       9 UNK        -0.4960 
     59 C59        21.5128  -34.2638  -42.7956 C.3       10 UNK        -0.0876 
     60 S60        20.7465  -32.6958  -43.3314 S.3       10 UNK        -0.2414 
     61 C61        19.0040  -33.1731  -43.5202 C.3       10 UNK         0.0169 
     62 H62        21.3175  -25.0009  -39.8444 H         1 UNK         0.0903 
     63 H63        20.2524  -23.7640  -39.1845 H         1 UNK         0.0903 
     64 H64        20.0131  -25.4564  -38.7389 H         1 UNK         0.0903 
     65 H65        20.7347  -26.0029  -41.8043 H         1 UNK         0.3096 
     66 H66        18.1118  -25.3088  -43.0207 H         1 UNK         0.1121 
     67 H67        19.6536  -27.9687  -43.2205 H         1 UNK         0.0849 
     68 H68        18.3181  -27.5257  -44.2519 H         1 UNK         0.0849 
     69 H69        15.5800  -29.3453  -42.4264 H         1 UNK         0.0865 
     70 H70        15.8165  -28.1487  -43.6757 H         1 UNK         0.0865 
     71 H71        17.6543  -31.1481  -42.2792 H         1 UNK         0.1346 
     72 H72        18.6864  -32.6447  -46.1597 H         1 UNK         0.1412 
     73 H73        16.4377  -29.0135  -45.8004 H         1 UNK         0.1426 
     74 H74        16.5721  -30.4877  -48.0276 H         1 UNK         0.0716 
     75 H75        17.9409  -31.5665  -48.1350 H         1 UNK         0.0716 
     76 H76        20.6835  -30.4690  -47.7442 H         1 UNK         0.0695 
     77 H77        19.9811  -29.8901  -46.2538 H         1 UNK         0.0695 
     78 H78        21.5257  -28.2323  -48.2878 H         1 UNK         0.0983 
     79 H79        19.6301  -27.2939  -46.3478 H         1 UNK         0.3095 
     80 H80        20.6520  -23.9187  -46.3799 H         1 UNK         0.0454 
     81 H81        18.3959  -23.5286  -47.3485 H         1 UNK         0.0851 
     82 H82        18.3230  -25.1986  -47.9139 H         1 UNK         0.0851 
     83 H83        19.5063  -24.0874  -48.5869 H         1 UNK         0.0851 
     84 H84        18.3062  -25.2896  -45.4270 H         1 UNK         0.2976 
     85 H85        21.6813  -27.7584  -44.7751 H         1 UNK         0.3116 
     86 H86        24.4504  -28.6110  -44.6829 H         1 UNK         0.0646 
     87 H87        22.3301  -30.1521  -43.0787 H         1 UNK         0.0847 
     88 H88        24.0693  -30.3142  -42.8823 H         1 UNK         0.0847 
     89 H89        23.3089  -30.8267  -44.3804 H         1 UNK         0.0847 
     90 H90        25.4889  -27.4198  -43.2303 H         1 UNK         0.3040 
     91 H91        24.2936  -25.3233  -41.7371 H         1 UNK         0.1015 
     92 H92        27.0730  -26.6128  -41.4954 H         1 UNK         0.0786 
     93 H93        26.6064  -25.0676  -40.7995 H         1 UNK         0.0786 
     94 H94        26.6517  -25.2577  -42.5441 H         1 UNK         0.0786 
     95 H95        23.7309  -25.1429  -39.6301 H         1 UNK         0.3172 
     96 H96        22.8426  -25.6493  -37.6776 H         1 UNK         0.0595 
     97 H97        25.0349  -27.7712  -37.3884 H         1 UNK         0.0839 
     98 H98        24.1299  -27.0177  -36.0863 H         1 UNK         0.0839 
     99 H99        25.2407  -26.0544  -37.0426 H         1 UNK         0.0839 
    100 H100       22.1863  -27.4808  -40.1524 H         1 UNK         0.2998 
    101 H101       20.7957  -29.0791  -40.7591 H         1 UNK         0.0822 
    102 H102       19.1136  -27.8718  -39.3398 H         1 UNK         0.0787 
    103 H103       18.8029  -29.5967  -39.4143 H         1 UNK         0.0787 
    104 H104       19.5287  -28.9040  -37.9718 H         1 UNK         0.0787 
    105 H105       23.3268  -29.8319  -39.9438 H         1 UNK         0.3055 
    106 H106       23.6174  -31.7848  -38.0433 H         1 UNK         0.1106 
    107 H107       25.1661  -31.4438  -40.6684 H         1 UNK         0.0828 
    108 H108       25.4995  -30.6227  -39.1442 H         1 UNK         0.0828 
    109 H109       25.7322  -32.3569  -39.2759 H         1 UNK         0.0828 
    110 H110       22.2320  -32.3135  -41.2128 H         1 UNK         0.2931 
    111 H111       22.4065  -35.2135  -41.1117 H         1 UNK         0.0412 
    112 H112       19.0761  -34.2340  -39.1037 H         1 UNK         0.3472 
    113 H113       20.3456  -33.0598  -39.3589 H         1 UNK         0.3472 
    114 H114       22.4799  -34.3315  -43.2958 H         1 UNK         0.0970 
    115 H115       20.9389  -35.1124  -43.1731 H         1 UNK         0.0970 
    116 H116       18.9296  -34.0677  -44.1404 H         1 UNK         0.0612 
    117 H117       18.5841  -33.4274  -42.5459 H         1 UNK         0.0612 
@<TRIPOS>BOND
     1    1    2 1    
     2    1   62 1    
     3    1   63 1    
     4    1   64 1    
     5    2    3 2    
     6    2    4 am   BACKBONE|DICT|INTERRES
     7    4    5 1    
     8    4   65 1    
     9    5    6 1    
    10    5   25 1    
    11    5   66 1    
    12    6    7 1    
    13    6   67 1    
    14    6   68 1    
    15    7    8 1    
    16    8    9 1    
    17    8   69 1    
    18    8   70 1    
    19    9   10 ar   
    20    9   14 ar   
    21   10   11 ar   
    22   10   71 1    
    23   11   12 ar   
    24   11   61 1    
    25   12   13 ar   
    26   12   72 1    
    27   13   14 ar   
    28   13   15 1    
    29   14   73 1    
    30   15   16 1    
    31   15   74 1    
    32   15   75 1    
    33   16   17 1    
    34   17   18 1    
    35   17   76 1    
    36   17   77 1    
    37   18   19 1    
    38   18   27 1    
    39   18   78 1    
    40   19   20 am   BACKBONE|DICT|INTERRES
    41   19   79 1    
    42   20   21 2    
    43   20   22 1    
    44   22   23 1    
    45   22   24 1    
    46   22   80 1    
    47   23   81 1    
    48   23   82 1    
    49   23   83 1    
    50   24   25 am   BACKBONE|DICT|INTERRES
    51   24   84 1    
    52   25   26 2    
    53   27   28 2    
    54   27   29 am   BACKBONE|DICT|INTERRES
    55   29   30 1    
    56   29   85 1    
    57   30   31 1    
    58   30   32 1    
    59   30   86 1    
    60   31   87 1    
    61   31   88 1    
    62   31   89 1    
    63   32   33 2    
    64   32   34 am   BACKBONE|DICT|INTERRES
    65   34   35 1    
    66   34   90 1    
    67   35   36 1    
    68   35   37 1    
    69   35   91 1    
    70   36   92 1    
    71   36   93 1    
    72   36   94 1    
    73   37   38 2    
    74   37   39 am   BACKBONE|DICT|INTERRES
    75   39   40 1    
    76   39   95 1    
    77   40   41 1    
    78   40   42 1    
    79   40   96 1    
    80   41   97 1    
    81   41   98 1    
    82   41   99 1    
    83   42   43 2    
    84   42   44 am   BACKBONE|DICT|INTERRES
    85   44   45 1    
    86   44  100 1    
    87   45   46 1    
    88   45   47 1    
    89   45  101 1    
    90   46  102 1    
    91   46  103 1    
    92   46  104 1    
    93   47   48 2    
    94   47   49 am   BACKBONE|DICT|INTERRES
    95   49   50 1    
    96   49  105 1    
    97   50   51 1    
    98   50   52 1    
    99   50  106 1    
   100   51  107 1    
   101   51  108 1    
   102   51  109 1    
   103   52   53 2    
   104   52   54 am   BACKBONE|DICT|INTERRES
   105   54   55 1    
   106   54  110 1    
   107   55   56 1    
   108   55   59 1    
   109   55  111 1    
   110   56   57 am   BACKBONE|DICT|INTERRES
   111   56   58 2    
   112   57  112 1    
   113   57  113 1    
   114   59   60 1    
   115   59  114 1    
   116   59  115 1    
   117   60   61 1    
   118   61  116 1    
   119   61  117 1    
@<TRIPOS>SUBSTRUCTURE
     1 UNK         1 GROUP             0       ****    0 ROOT    
