@<TRIPOS>MOLECULE
3R8
117   119    1
SMALL
USER_CHARGES


@<TRIPOS>ATOM
      1 CA         22.8261  -30.4970  -47.1585 C.3       0 UNK        -0.2013 
      2 C          21.5660  -29.8317  -46.6281 C.2       0 UNK         0.4866 
      3 O          21.3063  -29.8862  -45.4289 O.2       0 UNK        -0.5176 
      4 N          20.7769  -29.1986  -47.5046 N.am      1 UNK        -0.4884 
      5 CA         19.5443  -28.4911  -47.1480 C.3       1 UNK         0.0853 
      6 C6         18.5312  -28.5152  -48.3202 C.3       10 UNK        -0.0849 
      7 S7         16.8603  -27.9213  -47.8790 S.3       10 UNK        -0.2776 
      8 C8         16.1151  -29.3715  -47.0629 C.3       10 UNK         0.0316 
      9 C9         16.3088  -29.3376  -45.5519 C.ar      10 UNK        -0.0863 
     10 C10        17.1303  -30.2725  -44.9137 C.ar      10 UNK        -0.1009 
     11 C11        17.2804  -30.2513  -43.5231 C.ar      10 UNK        -0.0712 
     12 C12        16.5972  -29.2943  -42.7677 C.ar      10 UNK        -0.0894 
     13 C13        15.7876  -28.3447  -43.3949 C.ar      10 UNK        -0.0745 
     14 C14        15.6406  -28.3775  -44.7851 C.ar      10 UNK        -0.0972 
     15 C15        15.0671  -27.2819  -42.5802 C.3       10 UNK         0.0209 
     16 S16        15.9489  -25.6913  -42.6527 S.3       10 UNK        -0.2568 
     17 C17        17.0380  -25.7562  -41.1860 C.3       10 UNK        -0.0983 
     18 CA         18.4336  -26.3913  -41.4317 C.3       3 UNK         0.0876 
     19 N          19.0537  -25.9204  -42.6747 N.am      3 UNK        -0.4424 
     20 C          20.2705  -26.2383  -43.1354 C.2       2 UNK         0.4918 
     21 O          21.1087  -26.8971  -42.5172 O.2       2 UNK        -0.4875 
     22 CA         20.5622  -25.8268  -44.5787 C.3       2 UNK         0.0481 
     23 CB         21.9841  -25.2684  -44.7672 C.3       2 UNK        -0.1831 
     24 N          20.3713  -27.0314  -45.3757 N.am      2 UNK        -0.4498 
     25 C          19.8715  -27.0798  -46.6137 C.2       1 UNK         0.5027 
     26 O          19.6887  -26.0843  -47.3176 O.2       1 UNK        -0.4969 
     27 C          19.3485  -26.1792  -40.2080 C.2       3 UNK         0.5005 
     28 O          19.6475  -25.0308  -39.8723 O.2       3 UNK        -0.5279 
     29 N          19.8217  -27.2833  -39.6099 N.am      4 UNK        -0.4463 
     30 CA         20.7857  -27.3912  -38.5010 C.3       4 UNK         0.0283 
     31 CB         20.2676  -26.7000  -37.2251 C.3       4 UNK        -0.1875 
     32 C          22.2187  -26.9280  -38.8344 C.2       4 UNK         0.4949 
     33 O          23.1698  -27.5364  -38.3450 O.2       4 UNK        -0.5039 
     34 N          22.3639  -25.8923  -39.6706 N.am      5 UNK        -0.4663 
     35 CA         23.6327  -25.3308  -40.1460 C.3       5 UNK         0.0242 
     36 CB         23.3410  -24.0924  -41.0071 C.3       5 UNK        -0.1982 
     37 C          24.5057  -26.3343  -40.9200 C.2       5 UNK         0.5017 
     38 O          25.7313  -26.2611  -40.8301 O.2       5 UNK        -0.5012 
     39 N          23.8640  -27.2740  -41.6274 N.am      6 UNK        -0.4439 
     40 CA         24.5027  -28.3976  -42.3169 C.3       6 UNK         0.0297 
     41 CB         23.5734  -28.8834  -43.4390 C.3       6 UNK        -0.2006 
     42 C          24.9172  -29.5612  -41.3902 C.2       6 UNK         0.4892 
     43 O          25.3756  -30.5823  -41.9057 O.2       6 UNK        -0.5089 
     44 N          24.7572  -29.4093  -40.0645 N.am      7 UNK        -0.4243 
     45 CA         25.1391  -30.3379  -38.9933 C.3       7 UNK         0.0196 
     46 CB         26.6749  -30.4790  -38.9010 C.3       7 UNK        -0.2007 
     47 C          24.4102  -31.6868  -39.1007 C.2       7 UNK         0.5020 
     48 O          23.3302  -31.8362  -38.5295 O.2       7 UNK        -0.5147 
     49 N          24.9970  -32.6327  -39.8470 N.am      8 UNK        -0.4734 
     50 CA         24.3984  -33.9250  -40.1941 C.3       8 UNK         0.0238 
     51 CB         25.4587  -34.8119  -40.8661 C.3       8 UNK        -0.1912 
     52 C          23.1557  -33.7913  -41.0935 C.2       8 UNK         0.5038 
     53 O          22.2806  -34.6557  -41.0329 O.2       8 UNK        -0.5046 
     54 N          23.0879  -32.7037  -41.8766 N.am      9 UNK        -0.4200 
     55 CA         21.9280  -32.3118  -42.6931 C.3       9 UNK         0.0839 
     56 C          21.6316  -33.2676  -43.8898 C.2       9 UNK         0.5513 
     57 N          22.6334  -33.9543  -44.4280 N.am      9 UNK        -0.7519 
     58 O          20.4983  -33.3942  -44.3445 O.2       9 UNK        -0.4960 
     59 C59        20.6906  -31.9770  -41.8031 C.3       10 UNK        -0.0876 
     60 S60        19.7713  -30.5111  -42.3783 S.3       10 UNK        -0.2414 
     61 C61        18.1801  -31.2619  -42.8332 C.3       10 UNK         0.0169 
     62 H62        22.8407  -31.5489  -46.8707 H         1 UNK         0.0903 
     63 H63        22.8921  -30.4402  -48.2455 H         1 UNK         0.0903 
     64 H64        23.7085  -30.0159  -46.7354 H         1 UNK         0.0903 
     65 H65        21.0499  -29.1480  -48.4761 H         1 UNK         0.3096 
     66 H66        19.0784  -29.0301  -46.3225 H         1 UNK         0.1121 
     67 H67        18.4376  -29.5301  -48.7100 H         1 UNK         0.0849 
     68 H68        18.8988  -27.9145  -49.1542 H         1 UNK         0.0849 
     69 H69        15.0452  -29.3783  -47.2773 H         1 UNK         0.0865 
     70 H70        16.5117  -30.2930  -47.4920 H         1 UNK         0.0865 
     71 H71        17.6558  -31.0172  -45.4965 H         1 UNK         0.1346 
     72 H72        16.7091  -29.2831  -41.6923 H         1 UNK         0.1412 
     73 H73        15.0103  -27.6467  -45.2740 H         1 UNK         0.1426 
     74 H74        14.9364  -27.6005  -41.5450 H         1 UNK         0.0716 
     75 H75        14.0622  -27.1417  -42.9815 H         1 UNK         0.0716 
     76 H76        16.5216  -26.2762  -40.3772 H         1 UNK         0.0695 
     77 H77        17.1492  -24.7237  -40.8481 H         1 UNK         0.0695 
     78 H78        18.2925  -27.4643  -41.5624 H         1 UNK         0.0983 
     79 H79        18.4368  -25.3904  -43.2730 H         1 UNK         0.3095 
     80 H80        19.8435  -25.0629  -44.8836 H         1 UNK         0.0454 
     81 H81        22.7494  -25.9549  -44.4078 H         1 UNK         0.0851 
     82 H82        22.1053  -24.3323  -44.2222 H         1 UNK         0.0851 
     83 H83        22.1908  -25.0590  -45.8166 H         1 UNK         0.0851 
     84 H84        20.5522  -27.9094  -44.8967 H         1 UNK         0.2976 
     85 H85        19.5612  -28.1720  -40.0159 H         1 UNK         0.3116 
     86 H86        20.8554  -28.4586  -38.2848 H         1 UNK         0.0646 
     87 H87        20.1961  -25.6188  -37.3446 H         1 UNK         0.0847 
     88 H88        20.9375  -26.8865  -36.3847 H         1 UNK         0.0847 
     89 H89        19.2831  -27.0727  -36.9430 H         1 UNK         0.0847 
     90 H90        21.5101  -25.4414  -39.9882 H         1 UNK         0.3040 
     91 H91        24.2020  -25.0162  -39.2687 H         1 UNK         0.1015 
     92 H92        22.7251  -24.3427  -41.8709 H         1 UNK         0.0786 
     93 H93        24.2642  -23.6461  -41.3796 H         1 UNK         0.0786 
     94 H94        22.8183  -23.3258  -40.4348 H         1 UNK         0.0786 
     95 H95        22.8499  -27.2187  -41.6932 H         1 UNK         0.3172 
     96 H96        25.4212  -28.0376  -42.7845 H         1 UNK         0.0595 
     97 H97        22.5864  -29.1417  -43.0554 H         1 UNK         0.0839 
     98 H98        23.9725  -29.7627  -43.9460 H         1 UNK         0.0839 
     99 H99        23.4381  -28.1198  -44.2026 H         1 UNK         0.0839 
    100 H100       24.3090  -28.5602  -39.7371 H         1 UNK         0.2998 
    101 H101       24.8005  -29.8807  -38.0619 H         1 UNK         0.0822 
    102 H102       27.1386  -29.5213  -38.6644 H         1 UNK         0.0787 
    103 H103       26.9564  -31.1759  -38.1104 H         1 UNK         0.0787 
    104 H104       27.1216  -30.8372  -39.8287 H         1 UNK         0.0787 
    105 H105       25.8547  -32.3847  -40.3215 H         1 UNK         0.3055 
    106 H106       24.0783  -34.4078  -39.2679 H         1 UNK         0.1106 
    107 H107       25.0457  -35.7895  -41.1198 H         1 UNK         0.0828 
    108 H108       25.8330  -34.3667  -41.7889 H         1 UNK         0.0828 
    109 H109       26.3092  -34.9836  -40.2061 H         1 UNK         0.0828 
    110 H110       23.8725  -32.0614  -41.8771 H         1 UNK         0.2931 
    111 H111       22.2497  -31.3899  -43.1721 H         1 UNK         0.0412 
    112 H112       22.4470  -34.5750  -45.1997 H         1 UNK         0.3472 
    113 H113       23.5693  -33.8630  -44.0667 H         1 UNK         0.3472 
    114 H114       21.0092  -31.7427  -40.7859 H         1 UNK         0.0970 
    115 H115       20.0298  -32.8399  -41.7027 H         1 UNK         0.0970 
    116 H116       17.6903  -31.6449  -41.9366 H         1 UNK         0.0612 
    117 H117       18.3516  -32.1195  -43.4845 H         1 UNK         0.0612 
@<TRIPOS>BOND
     1    1    2 1    
     2    1   62 1    
     3    1   63 1    
     4    1   64 1    
     5    2    3 2    
     6    2    4 am   BACKBONE|DICT|INTERRES
     7    4    5 1    
     8    4   65 1    
     9    5    6 1    
    10    5   25 1    
    11    5   66 1    
    12    6    7 1    
    13    6   67 1    
    14    6   68 1    
    15    7    8 1    
    16    8    9 1    
    17    8   69 1    
    18    8   70 1    
    19    9   10 ar   
    20    9   14 ar   
    21   10   11 ar   
    22   10   71 1    
    23   11   12 ar   
    24   11   61 1    
    25   12   13 ar   
    26   12   72 1    
    27   13   14 ar   
    28   13   15 1    
    29   14   73 1    
    30   15   16 1    
    31   15   74 1    
    32   15   75 1    
    33   16   17 1    
    34   17   18 1    
    35   17   76 1    
    36   17   77 1    
    37   18   19 1    
    38   18   27 1    
    39   18   78 1    
    40   19   20 am   BACKBONE|DICT|INTERRES
    41   19   79 1    
    42   20   21 2    
    43   20   22 1    
    44   22   23 1    
    45   22   24 1    
    46   22   80 1    
    47   23   81 1    
    48   23   82 1    
    49   23   83 1    
    50   24   25 am   BACKBONE|DICT|INTERRES
    51   24   84 1    
    52   25   26 2    
    53   27   28 2    
    54   27   29 am   BACKBONE|DICT|INTERRES
    55   29   30 1    
    56   29   85 1    
    57   30   31 1    
    58   30   32 1    
    59   30   86 1    
    60   31   87 1    
    61   31   88 1    
    62   31   89 1    
    63   32   33 2    
    64   32   34 am   BACKBONE|DICT|INTERRES
    65   34   35 1    
    66   34   90 1    
    67   35   36 1    
    68   35   37 1    
    69   35   91 1    
    70   36   92 1    
    71   36   93 1    
    72   36   94 1    
    73   37   38 2    
    74   37   39 am   BACKBONE|DICT|INTERRES
    75   39   40 1    
    76   39   95 1    
    77   40   41 1    
    78   40   42 1    
    79   40   96 1    
    80   41   97 1    
    81   41   98 1    
    82   41   99 1    
    83   42   43 2    
    84   42   44 am   BACKBONE|DICT|INTERRES
    85   44   45 1    
    86   44  100 1    
    87   45   46 1    
    88   45   47 1    
    89   45  101 1    
    90   46  102 1    
    91   46  103 1    
    92   46  104 1    
    93   47   48 2    
    94   47   49 am   BACKBONE|DICT|INTERRES
    95   49   50 1    
    96   49  105 1    
    97   50   51 1    
    98   50   52 1    
    99   50  106 1    
   100   51  107 1    
   101   51  108 1    
   102   51  109 1    
   103   52   53 2    
   104   52   54 am   BACKBONE|DICT|INTERRES
   105   54   55 1    
   106   54  110 1    
   107   55   56 1    
   108   55   59 1    
   109   55  111 1    
   110   56   57 am   BACKBONE|DICT|INTERRES
   111   56   58 2    
   112   57  112 1    
   113   57  113 1    
   114   59   60 1    
   115   59  114 1    
   116   59  115 1    
   117   60   61 1    
   118   61  116 1    
   119   61  117 1    
@<TRIPOS>SUBSTRUCTURE
     1 UNK         1 GROUP             0       ****    0 ROOT    
