@<TRIPOS>MOLECULE
3R8
117   119    1
SMALL
USER_CHARGES


@<TRIPOS>ATOM
      1 CA         14.3756  -23.1709  -40.6405 C.3       0 UNK        -0.2013 
      2 C          15.3111  -23.6737  -41.7300 C.2       0 UNK         0.4866 
      3 O          16.4284  -23.1721  -41.8570 O.2       0 UNK        -0.5176 
      4 N          14.8620  -24.6549  -42.5225 N.am      1 UNK        -0.4884 
      5 CA         15.6516  -25.3068  -43.5703 C.3       1 UNK         0.0853 
      6 C6         14.7369  -26.0644  -44.5624 C.3       10 UNK        -0.0849 
      7 S7         15.5711  -26.4579  -46.1375 S.3       10 UNK        -0.2776 
      8 C8         15.5865  -28.2839  -46.1399 C.3       10 UNK         0.0316 
      9 C9         16.9397  -28.8678  -45.7504 C.ar      10 UNK        -0.0863 
     10 C10        17.0703  -29.7012  -44.6337 C.ar      10 UNK        -0.1009 
     11 C11        18.2945  -30.3180  -44.3479 C.ar      10 UNK        -0.0712 
     12 C12        19.3965  -30.0791  -45.1740 C.ar      10 UNK        -0.0894 
     13 C13        19.2884  -29.2216  -46.2721 C.ar      10 UNK        -0.0745 
     14 C14        18.0539  -28.6325  -46.5607 C.ar      10 UNK        -0.0972 
     15 C15        20.4823  -28.9676  -47.1826 C.3       10 UNK         0.0209 
     16 S16        20.9081  -27.1972  -47.2962 S.3       10 UNK        -0.2568 
     17 C17        22.2894  -26.8634  -46.1354 C.3       10 UNK        -0.0983 
     18 CA         22.3413  -27.5522  -44.7343 C.3       3 UNK         0.0876 
     19 N          21.0816  -27.5709  -43.9961 N.am      3 UNK        -0.4424 
     20 C          20.3172  -26.5319  -43.6572 C.2       2 UNK         0.4918 
     21 O          20.5569  -25.3580  -43.9474 O.2       2 UNK        -0.4875 
     22 CA         19.0866  -26.8638  -42.8098 C.3       2 UNK         0.0481 
     23 CB         19.3873  -26.6767  -41.3125 C.3       2 UNK        -0.1831 
     24 N          17.9739  -26.0216  -43.2290 N.am      2 UNK        -0.4498 
     25 C          16.6899  -26.2476  -42.9315 C.2       1 UNK         0.5027 
     26 O          16.2985  -27.1563  -42.1939 O.2       1 UNK        -0.4969 
     27 C          22.9229  -28.9804  -44.7044 C.2       3 UNK         0.5005 
     28 O          22.5577  -29.7506  -43.8113 O.2       3 UNK        -0.5279 
     29 N          23.7939  -29.3206  -45.6668 N.am      4 UNK        -0.4463 
     30 CA         24.4163  -30.6318  -45.8901 C.3       4 UNK         0.0283 
     31 CB         23.3661  -31.6917  -46.2948 C.3       4 UNK        -0.1875 
     32 C          25.3000  -31.0756  -44.7123 C.2       4 UNK         0.4949 
     33 O          26.4841  -30.7371  -44.6856 O.2       4 UNK        -0.5039 
     34 N          24.7180  -31.8104  -43.7565 N.am      5 UNK        -0.4663 
     35 CA         25.3686  -32.3189  -42.5480 C.3       5 UNK         0.0242 
     36 CB         24.5365  -33.4891  -41.9912 C.3       5 UNK        -0.1982 
     37 C          25.5769  -31.2002  -41.5119 C.2       5 UNK         0.5017 
     38 O          24.9102  -31.1876  -40.4755 O.2       5 UNK        -0.5012 
     39 N          26.4601  -30.2473  -41.8460 N.am      6 UNK        -0.4439 
     40 CA         26.9046  -29.0951  -41.0451 C.3       6 UNK         0.0297 
     41 CB         27.7460  -29.5831  -39.8468 C.3       6 UNK        -0.2006 
     42 C          25.7757  -28.1397  -40.6001 C.2       6 UNK         0.4892 
     43 O          25.9618  -27.3905  -39.6404 O.2       6 UNK        -0.5089 
     44 N          24.6211  -28.2084  -41.2813 N.am      7 UNK        -0.4243 
     45 CA         23.3398  -27.5864  -40.9248 C.3       7 UNK         0.0196 
     46 CB         23.4161  -26.0469  -40.9957 C.3       7 UNK        -0.2007 
     47 C          22.7480  -28.1031  -39.5954 C.2       7 UNK         0.5020 
     48 O          21.8873  -27.4402  -39.0163 O.2       7 UNK        -0.5147 
     49 N          23.1845  -29.2886  -39.1488 N.am      8 UNK        -0.4734 
     50 CA         22.5982  -30.0211  -38.0262 C.3       8 UNK         0.0238 
     51 CB         23.7192  -30.7282  -37.2465 C.3       8 UNK        -0.1912 
     52 C          21.5532  -31.0406  -38.5088 C.2       8 UNK         0.5038 
     53 O          20.6862  -31.4188  -37.7205 O.2       8 UNK        -0.5046 
     54 N          21.6555  -31.4657  -39.7788 N.am      9 UNK        -0.4200 
     55 CA         20.7858  -32.4539  -40.4433 C.3       9 UNK         0.0839 
     56 C          20.8798  -33.8940  -39.8494 C.2       9 UNK         0.5513 
     57 N          21.9490  -34.2448  -39.1442 N.am      9 UNK        -0.7519 
     58 O          19.9935  -34.7190  -40.0563 O.2       9 UNK        -0.4960 
     59 C59        19.3223  -31.9508  -40.6159 C.3       10 UNK        -0.0876 
     60 S60        19.2175  -30.5098  -41.7334 S.3       10 UNK        -0.2414 
     61 C61        18.4234  -31.2816  -43.1777 C.3       10 UNK         0.0169 
     62 H62        14.1818  -22.1070  -40.7739 H         1 UNK         0.0903 
     63 H63        13.4191  -23.6933  -40.6501 H         1 UNK         0.0903 
     64 H64        14.8303  -23.3143  -39.6607 H         1 UNK         0.0903 
     65 H65        13.9492  -25.0523  -42.3497 H         1 UNK         0.3096 
     66 H66        16.1753  -24.5224  -44.1224 H         1 UNK         0.1121 
     67 H67        14.3152  -26.9615  -44.1054 H         1 UNK         0.0849 
     68 H68        13.8800  -25.4389  -44.8183 H         1 UNK         0.0849 
     69 H69        14.7915  -28.6777  -45.5056 H         1 UNK         0.0865 
     70 H70        15.3485  -28.6230  -47.1492 H         1 UNK         0.0865 
     71 H71        16.2134  -29.8942  -44.0026 H         1 UNK         0.1346 
     72 H72        20.3358  -30.5696  -44.9600 H         1 UNK         0.1412 
     73 H73        17.9575  -27.9932  -47.4280 H         1 UNK         0.1426 
     74 H74        20.2169  -29.3110  -48.1833 H         1 UNK         0.0716 
     75 H75        21.3472  -29.5595  -46.8953 H         1 UNK         0.0716 
     76 H76        22.2555  -25.7863  -45.9663 H         1 UNK         0.0695 
     77 H77        23.2232  -27.0009  -46.6810 H         1 UNK         0.0695 
     78 H78        23.0344  -26.9687  -44.1254 H         1 UNK         0.0983 
     79 H79        20.8224  -28.5006  -43.6868 H         1 UNK         0.3095 
     80 H80        18.8081  -27.9014  -42.9926 H         1 UNK         0.0454 
     81 H81        20.1919  -27.3415  -41.0038 H         1 UNK         0.0851 
     82 H82        18.5260  -26.9177  -40.6904 H         1 UNK         0.0851 
     83 H83        19.6934  -25.6552  -41.0843 H         1 UNK         0.0851 
     84 H84        18.2312  -25.2548  -43.8377 H         1 UNK         0.2976 
     85 H85        24.0598  -28.6078  -46.3322 H         1 UNK         0.3116 
     86 H86        25.0883  -30.5090  -46.7412 H         1 UNK         0.0646 
     87 H87        23.8302  -32.6700  -46.4283 H         1 UNK         0.0847 
     88 H88        22.5732  -31.8055  -45.5556 H         1 UNK         0.0847 
     89 H89        22.8965  -31.4334  -47.2435 H         1 UNK         0.0847 
     90 H90        23.7178  -31.9416  -43.8193 H         1 UNK         0.3040 
     91 H91        26.3547  -32.7072  -42.8129 H         1 UNK         0.1015 
     92 H92        24.9905  -33.8968  -41.0870 H         1 UNK         0.0786 
     93 H93        24.4661  -34.3036  -42.7122 H         1 UNK         0.0786 
     94 H94        23.5233  -33.1804  -41.7359 H         1 UNK         0.0786 
     95 H95        26.8624  -30.3183  -42.7775 H         1 UNK         0.3172 
     96 H96        27.5569  -28.5086  -41.6937 H         1 UNK         0.0595 
     97 H97        27.1381  -30.1284  -39.1237 H         1 UNK         0.0839 
     98 H98        28.2053  -28.7461  -39.3193 H         1 UNK         0.0839 
     99 H99        28.5539  -30.2399  -40.1690 H         1 UNK         0.0839 
    100 H100       24.5810  -28.8759  -42.0390 H         1 UNK         0.2998 
    101 H101       22.6348  -27.9119  -41.6886 H         1 UNK         0.0822 
    102 H102       22.4253  -25.6016  -40.8977 H         1 UNK         0.0787 
    103 H103       23.8256  -25.7119  -41.9484 H         1 UNK         0.0787 
    104 H104       24.0358  -25.6345  -40.1992 H         1 UNK         0.0787 
    105 H105       23.9116  -29.7761  -39.6668 H         1 UNK         0.3055 
    106 H106       22.0951  -29.3284  -37.3477 H         1 UNK         0.1106 
    107 H107       24.4525  -30.0130  -36.8734 H         1 UNK         0.0828 
    108 H108       23.3175  -31.2608  -36.3834 H         1 UNK         0.0828 
    109 H109       24.2473  -31.4570  -37.8624 H         1 UNK         0.0828 
    110 H110       22.4216  -31.1147  -40.3344 H         1 UNK         0.2931 
    111 H111       21.1971  -32.5624  -41.4474 H         1 UNK         0.0412 
    112 H112       22.6913  -33.5848  -38.9777 H         1 UNK         0.3472 
    113 H113       22.0098  -35.1798  -38.7725 H         1 UNK         0.3472 
    114 H114       18.6825  -32.7410  -41.0120 H         1 UNK         0.0970 
    115 H115       18.8867  -31.6819  -39.6530 H         1 UNK         0.0970 
    116 H116       19.0076  -32.1501  -43.4864 H         1 UNK         0.0612 
    117 H117       17.4408  -31.6570  -42.8875 H         1 UNK         0.0612 
@<TRIPOS>BOND
     1    1    2 1    
     2    1   62 1    
     3    1   63 1    
     4    1   64 1    
     5    2    3 2    
     6    2    4 am   BACKBONE|DICT|INTERRES
     7    4    5 1    
     8    4   65 1    
     9    5    6 1    
    10    5   25 1    
    11    5   66 1    
    12    6    7 1    
    13    6   67 1    
    14    6   68 1    
    15    7    8 1    
    16    8    9 1    
    17    8   69 1    
    18    8   70 1    
    19    9   10 ar   
    20    9   14 ar   
    21   10   11 ar   
    22   10   71 1    
    23   11   12 ar   
    24   11   61 1    
    25   12   13 ar   
    26   12   72 1    
    27   13   14 ar   
    28   13   15 1    
    29   14   73 1    
    30   15   16 1    
    31   15   74 1    
    32   15   75 1    
    33   16   17 1    
    34   17   18 1    
    35   17   76 1    
    36   17   77 1    
    37   18   19 1    
    38   18   27 1    
    39   18   78 1    
    40   19   20 am   BACKBONE|DICT|INTERRES
    41   19   79 1    
    42   20   21 2    
    43   20   22 1    
    44   22   23 1    
    45   22   24 1    
    46   22   80 1    
    47   23   81 1    
    48   23   82 1    
    49   23   83 1    
    50   24   25 am   BACKBONE|DICT|INTERRES
    51   24   84 1    
    52   25   26 2    
    53   27   28 2    
    54   27   29 am   BACKBONE|DICT|INTERRES
    55   29   30 1    
    56   29   85 1    
    57   30   31 1    
    58   30   32 1    
    59   30   86 1    
    60   31   87 1    
    61   31   88 1    
    62   31   89 1    
    63   32   33 2    
    64   32   34 am   BACKBONE|DICT|INTERRES
    65   34   35 1    
    66   34   90 1    
    67   35   36 1    
    68   35   37 1    
    69   35   91 1    
    70   36   92 1    
    71   36   93 1    
    72   36   94 1    
    73   37   38 2    
    74   37   39 am   BACKBONE|DICT|INTERRES
    75   39   40 1    
    76   39   95 1    
    77   40   41 1    
    78   40   42 1    
    79   40   96 1    
    80   41   97 1    
    81   41   98 1    
    82   41   99 1    
    83   42   43 2    
    84   42   44 am   BACKBONE|DICT|INTERRES
    85   44   45 1    
    86   44  100 1    
    87   45   46 1    
    88   45   47 1    
    89   45  101 1    
    90   46  102 1    
    91   46  103 1    
    92   46  104 1    
    93   47   48 2    
    94   47   49 am   BACKBONE|DICT|INTERRES
    95   49   50 1    
    96   49  105 1    
    97   50   51 1    
    98   50   52 1    
    99   50  106 1    
   100   51  107 1    
   101   51  108 1    
   102   51  109 1    
   103   52   53 2    
   104   52   54 am   BACKBONE|DICT|INTERRES
   105   54   55 1    
   106   54  110 1    
   107   55   56 1    
   108   55   59 1    
   109   55  111 1    
   110   56   57 am   BACKBONE|DICT|INTERRES
   111   56   58 2    
   112   57  112 1    
   113   57  113 1    
   114   59   60 1    
   115   59  114 1    
   116   59  115 1    
   117   60   61 1    
   118   61  116 1    
   119   61  117 1    
@<TRIPOS>SUBSTRUCTURE
     1 UNK         1 GROUP             0       ****    0 ROOT    
