@<TRIPOS>MOLECULE
3R8
117   119    1
SMALL
USER_CHARGES


@<TRIPOS>ATOM
      1 CA         13.7291  -24.8426  -43.1663 C.3       0 UNK        -0.2013 
      2 C          14.9795  -25.6485  -43.4828 C.2       0 UNK         0.4866 
      3 O          16.0882  -25.1205  -43.3908 O.2       0 UNK        -0.5176 
      4 N          14.8142  -26.9267  -43.8476 N.am      1 UNK        -0.4884 
      5 CA         15.8881  -27.8675  -44.1912 C.3       1 UNK         0.0853 
      6 C6         15.3589  -29.0355  -45.0726 C.3       10 UNK        -0.0849 
      7 S7         15.3989  -28.5840  -46.8418 S.3       10 UNK        -0.2776 
      8 C8         16.9428  -29.3882  -47.4041 C.3       10 UNK         0.0316 
      9 C9         18.1413  -28.9909  -46.5506 C.ar      10 UNK        -0.0863 
     10 C10        18.6152  -29.8569  -45.5615 C.ar      10 UNK        -0.1009 
     11 C11        19.6545  -29.4696  -44.7116 C.ar      10 UNK        -0.0712 
     12 C12        20.2421  -28.2114  -44.8727 C.ar      10 UNK        -0.0894 
     13 C13        19.7798  -27.3377  -45.8617 C.ar      10 UNK        -0.0745 
     14 C14        18.7400  -27.7383  -46.7077 C.ar      10 UNK        -0.0972 
     15 C15        20.3500  -25.9342  -45.9798 C.3       10 UNK         0.0209 
     16 S16        19.2361  -24.7526  -45.1593 S.3       10 UNK        -0.2568 
     17 C17        20.2808  -23.9818  -43.8697 C.3       10 UNK        -0.0983 
     18 CA         20.6464  -24.8516  -42.6219 C.3       3 UNK         0.0876 
     19 N          19.6912  -25.9411  -42.3862 N.am      3 UNK        -0.4424 
     20 C          19.4479  -26.5686  -41.2263 C.2       2 UNK         0.4918 
     21 O          20.0747  -26.3364  -40.1918 O.2       2 UNK        -0.4875 
     22 CA         18.3173  -27.6147  -41.2111 C.3       2 UNK         0.0481 
     23 CB         17.5457  -27.6255  -39.8778 C.3       2 UNK        -0.1831 
     24 N          17.3930  -27.4047  -42.3257 N.am      2 UNK        -0.4498 
     25 C          16.6574  -28.3395  -42.9360 C.2       1 UNK         0.5027 
     26 O          16.5760  -29.5068  -42.5499 O.2       1 UNK        -0.4969 
     27 C          22.1229  -25.3159  -42.5892 C.2       3 UNK         0.5005 
     28 O          22.8405  -25.1808  -43.5809 O.2       3 UNK        -0.5279 
     29 N          22.5552  -25.8468  -41.4364 N.am      4 UNK        -0.4463 
     30 CA         23.9228  -26.1926  -41.0130 C.3       4 UNK         0.0283 
     31 CB         24.8121  -24.9360  -40.9615 C.3       4 UNK        -0.1875 
     32 C          24.6312  -27.3150  -41.7945 C.2       4 UNK         0.4949 
     33 O          25.4169  -28.0433  -41.1865 O.2       4 UNK        -0.5039 
     34 N          24.3503  -27.4525  -43.0955 N.am      5 UNK        -0.4663 
     35 CA         24.9188  -28.4432  -44.0148 C.3       5 UNK         0.0242 
     36 CB         24.2381  -28.3023  -45.3857 C.3       5 UNK        -0.1982 
     37 C          24.7810  -29.8843  -43.4968 C.2       5 UNK         0.5017 
     38 O          23.7033  -30.2547  -43.0299 O.2       5 UNK        -0.5012 
     39 N          25.8793  -30.6513  -43.5677 N.am      6 UNK        -0.4439 
     40 CA         26.0177  -32.0323  -43.0821 C.3       6 UNK         0.0297 
     41 CB         25.1987  -32.9973  -43.9671 C.3       6 UNK        -0.2006 
     42 C          25.7044  -32.1859  -41.5770 C.2       6 UNK         0.4892 
     43 O          25.0879  -33.1759  -41.1822 O.2       6 UNK        -0.5089 
     44 N          26.1154  -31.1866  -40.7772 N.am      7 UNK        -0.4243 
     45 CA         25.8241  -31.0146  -39.3459 C.3       7 UNK         0.0196 
     46 CB         26.4966  -32.1183  -38.5014 C.3       7 UNK        -0.2007 
     47 C          24.3094  -30.8917  -39.0933 C.2       7 UNK         0.5020 
     48 O          23.7428  -31.6478  -38.3021 O.2       7 UNK        -0.5147 
     49 N          23.6806  -29.9673  -39.8348 N.am      8 UNK        -0.4734 
     50 CA         22.2325  -29.7280  -39.9355 C.3       8 UNK         0.0238 
     51 CB         21.6983  -29.0770  -38.6436 C.3       8 UNK        -0.1912 
     52 C          21.4460  -30.9912  -40.3446 C.2       8 UNK         0.5038 
     53 O          20.3348  -31.2125  -39.8610 O.2       8 UNK        -0.5046 
     54 N          22.0591  -31.7951  -41.2231 N.am      9 UNK        -0.4200 
     55 CA         21.6045  -33.1086  -41.7005 C.3       9 UNK         0.0839 
     56 C          21.4726  -34.1946  -40.5875 C.2       9 UNK         0.5513 
     57 N          22.0790  -34.0295  -39.4170 N.am      9 UNK        -0.7519 
     58 O          20.8333  -35.2233  -40.7944 O.2       9 UNK        -0.4960 
     59 C59        20.3517  -33.0103  -42.6155 C.3       10 UNK        -0.0876 
     60 S60        20.6405  -32.0085  -44.1178 S.3       10 UNK        -0.2414 
     61 C61        20.0680  -30.3729  -43.5608 C.3       10 UNK         0.0169 
     62 H62        13.6659  -23.9765  -43.8245 H         1 UNK         0.0903 
     63 H63        12.8205  -25.4312  -43.2921 H         1 UNK         0.0903 
     64 H64        13.7634  -24.4865  -42.1370 H         1 UNK         0.0903 
     65 H65        13.8788  -27.3065  -43.8864 H         1 UNK         0.3096 
     66 H66        16.6289  -27.3177  -44.7769 H         1 UNK         0.1121 
     67 H67        14.3389  -29.3053  -44.7944 H         1 UNK         0.0849 
     68 H68        15.9350  -29.9526  -44.9473 H         1 UNK         0.0849 
     69 H69        16.8071  -30.4709  -47.3939 H         1 UNK         0.0865 
     70 H70        17.1282  -29.1161  -48.4442 H         1 UNK         0.0865 
     71 H71        18.1472  -30.8216  -45.4191 H         1 UNK         0.1346 
     72 H72        21.0333  -27.8977  -44.2055 H         1 UNK         0.1412 
     73 H73        18.3629  -27.0542  -47.4561 H         1 UNK         0.1426 
     74 H74        20.4479  -25.6609  -47.0313 H         1 UNK         0.0716 
     75 H75        21.3534  -25.8861  -45.5586 H         1 UNK         0.0716 
     76 H76        19.7034  -23.1255  -43.5177 H         1 UNK         0.0695 
     77 H77        21.1524  -23.5306  -44.3470 H         1 UNK         0.0695 
     78 H78        20.5630  -24.1822  -41.7620 H         1 UNK         0.0983 
     79 H79        19.1631  -26.2099  -43.2045 H         1 UNK         0.3095 
     80 H80        18.8013  -28.5851  -41.3356 H         1 UNK         0.0454 
     81 H81        16.7812  -28.4022  -39.8667 H         1 UNK         0.0851 
     82 H82        17.0557  -26.6693  -39.6916 H         1 UNK         0.0851 
     83 H83        18.2119  -27.8225  -39.0371 H         1 UNK         0.0851 
     84 H84        17.2772  -26.4464  -42.6498 H         1 UNK         0.2976 
     85 H85        21.8393  -25.9821  -40.7248 H         1 UNK         0.3116 
     86 H86        23.8196  -26.5587  -39.9901 H         1 UNK         0.0646 
     87 H87        24.9611  -24.5024  -41.9510 H         1 UNK         0.0847 
     88 H88        25.7987  -25.1722  -40.5604 H         1 UNK         0.0847 
     89 H89        24.3788  -24.1684  -40.3203 H         1 UNK         0.0847 
     90 H90        23.7277  -26.7540  -43.4961 H         1 UNK         0.3040 
     91 H91        25.9785  -28.2049  -44.1254 H         1 UNK         0.1015 
     92 H92        23.1735  -28.5324  -45.3309 H         1 UNK         0.0786 
     93 H93        24.6799  -28.9843  -46.1135 H         1 UNK         0.0786 
     94 H94        24.3429  -27.2920  -45.7820 H         1 UNK         0.0786 
     95 H95        26.7175  -30.2467  -43.9631 H         1 UNK         0.3172 
     96 H96        27.0702  -32.2956  -43.1966 H         1 UNK         0.0595 
     97 H97        24.1283  -32.8024  -43.8971 H         1 UNK         0.0839 
     98 H98        25.3609  -34.0353  -43.6742 H         1 UNK         0.0839 
     99 H99        25.4840  -32.9110  -45.0154 H         1 UNK         0.0839 
    100 H100       26.5771  -30.4015  -41.2170 H         1 UNK         0.2998 
    101 H101       26.2638  -30.0601  -39.0515 H         1 UNK         0.0822 
    102 H102       27.5693  -32.1631  -38.6894 H         1 UNK         0.0787 
    103 H103       26.3612  -31.9279  -37.4361 H         1 UNK         0.0787 
    104 H104       26.0782  -33.1037  -38.7086 H         1 UNK         0.0787 
    105 H105       24.2610  -29.4134  -40.4595 H         1 UNK         0.3055 
    106 H106       22.0923  -29.0147  -40.7493 H         1 UNK         0.1106 
    107 H107       20.6494  -28.7982  -38.7506 H         1 UNK         0.0828 
    108 H108       21.7704  -29.7534  -37.7914 H         1 UNK         0.0828 
    109 H109       22.2481  -28.1681  -38.4005 H         1 UNK         0.0828 
    110 H110       22.9355  -31.4739  -41.6200 H         1 UNK         0.2931 
    111 H111       22.4210  -33.4738  -42.3233 H         1 UNK         0.0412 
    112 H112       21.9947  -34.7445  -38.7125 H         1 UNK         0.3472 
    113 H113       22.6260  -33.1973  -39.2286 H         1 UNK         0.3472 
    114 H114       20.0579  -34.0032  -42.9600 H         1 UNK         0.0970 
    115 H115       19.4942  -32.6276  -42.0603 H         1 UNK         0.0970 
    116 H116       19.2133  -30.4877  -42.8936 H         1 UNK         0.0612 
    117 H117       20.8614  -29.9045  -42.9784 H         1 UNK         0.0612 
@<TRIPOS>BOND
     1    1    2 1    
     2    1   62 1    
     3    1   63 1    
     4    1   64 1    
     5    2    3 2    
     6    2    4 am   BACKBONE|DICT|INTERRES
     7    4    5 1    
     8    4   65 1    
     9    5    6 1    
    10    5   25 1    
    11    5   66 1    
    12    6    7 1    
    13    6   67 1    
    14    6   68 1    
    15    7    8 1    
    16    8    9 1    
    17    8   69 1    
    18    8   70 1    
    19    9   10 ar   
    20    9   14 ar   
    21   10   11 ar   
    22   10   71 1    
    23   11   12 ar   
    24   11   61 1    
    25   12   13 ar   
    26   12   72 1    
    27   13   14 ar   
    28   13   15 1    
    29   14   73 1    
    30   15   16 1    
    31   15   74 1    
    32   15   75 1    
    33   16   17 1    
    34   17   18 1    
    35   17   76 1    
    36   17   77 1    
    37   18   19 1    
    38   18   27 1    
    39   18   78 1    
    40   19   20 am   BACKBONE|DICT|INTERRES
    41   19   79 1    
    42   20   21 2    
    43   20   22 1    
    44   22   23 1    
    45   22   24 1    
    46   22   80 1    
    47   23   81 1    
    48   23   82 1    
    49   23   83 1    
    50   24   25 am   BACKBONE|DICT|INTERRES
    51   24   84 1    
    52   25   26 2    
    53   27   28 2    
    54   27   29 am   BACKBONE|DICT|INTERRES
    55   29   30 1    
    56   29   85 1    
    57   30   31 1    
    58   30   32 1    
    59   30   86 1    
    60   31   87 1    
    61   31   88 1    
    62   31   89 1    
    63   32   33 2    
    64   32   34 am   BACKBONE|DICT|INTERRES
    65   34   35 1    
    66   34   90 1    
    67   35   36 1    
    68   35   37 1    
    69   35   91 1    
    70   36   92 1    
    71   36   93 1    
    72   36   94 1    
    73   37   38 2    
    74   37   39 am   BACKBONE|DICT|INTERRES
    75   39   40 1    
    76   39   95 1    
    77   40   41 1    
    78   40   42 1    
    79   40   96 1    
    80   41   97 1    
    81   41   98 1    
    82   41   99 1    
    83   42   43 2    
    84   42   44 am   BACKBONE|DICT|INTERRES
    85   44   45 1    
    86   44  100 1    
    87   45   46 1    
    88   45   47 1    
    89   45  101 1    
    90   46  102 1    
    91   46  103 1    
    92   46  104 1    
    93   47   48 2    
    94   47   49 am   BACKBONE|DICT|INTERRES
    95   49   50 1    
    96   49  105 1    
    97   50   51 1    
    98   50   52 1    
    99   50  106 1    
   100   51  107 1    
   101   51  108 1    
   102   51  109 1    
   103   52   53 2    
   104   52   54 am   BACKBONE|DICT|INTERRES
   105   54   55 1    
   106   54  110 1    
   107   55   56 1    
   108   55   59 1    
   109   55  111 1    
   110   56   57 am   BACKBONE|DICT|INTERRES
   111   56   58 2    
   112   57  112 1    
   113   57  113 1    
   114   59   60 1    
   115   59  114 1    
   116   59  115 1    
   117   60   61 1    
   118   61  116 1    
   119   61  117 1    
@<TRIPOS>SUBSTRUCTURE
     1 UNK         1 GROUP             0       ****    0 ROOT    
