@<TRIPOS>MOLECULE
3R8
117   119    1
SMALL
USER_CHARGES


@<TRIPOS>ATOM
      1 CA         17.0985  -23.5980  -48.6513 C.3       0 UNK        -0.2013 
      2 C          16.8809  -25.0099  -48.1286 C.2       0 UNK         0.4866 
      3 O          17.1198  -25.9761  -48.8536 O.2       0 UNK        -0.5176 
      4 N          16.4314  -25.1388  -46.8768 N.am      1 UNK        -0.4884 
      5 CA         16.2116  -26.4050  -46.1823 C.3       1 UNK         0.0853 
      6 C6         14.8735  -27.0692  -46.6080 C.3       10 UNK        -0.0849 
      7 S7         14.5652  -28.7549  -45.9701 S.3       10 UNK        -0.2776 
      8 C8         15.8430  -29.7647  -46.7946 C.3       10 UNK         0.0316 
      9 C9         17.1192  -29.8420  -45.9653 C.ar      10 UNK        -0.0863 
     10 C10        17.1038  -30.4702  -44.7158 C.ar      10 UNK        -0.1009 
     11 C11        18.2578  -30.5135  -43.9290 C.ar      10 UNK        -0.0712 
     12 C12        19.4373  -29.9340  -44.4029 C.ar      10 UNK        -0.0894 
     13 C13        19.4681  -29.3086  -45.6519 C.ar      10 UNK        -0.0745 
     14 C14        18.3116  -29.2832  -46.4366 C.ar      10 UNK        -0.0972 
     15 C15        20.7449  -28.6549  -46.1573 C.3       10 UNK         0.0209 
     16 S16        20.8707  -26.9199  -45.6132 S.3       10 UNK        -0.2568 
     17 C17        21.5360  -27.1000  -43.9218 C.3       10 UNK        -0.0983 
     18 CA         20.6384  -26.4653  -42.8276 C.3       3 UNK         0.0876 
     19 N          19.2739  -26.9963  -42.8693 N.am      3 UNK        -0.4424 
     20 C          18.2257  -26.5257  -42.1820 C.2       2 UNK         0.4918 
     21 O          18.2750  -25.5640  -41.4125 O.2       2 UNK        -0.4875 
     22 CA         16.8889  -27.2365  -42.4643 C.3       2 UNK         0.0481 
     23 CB         15.7151  -26.6977  -41.6196 C.3       2 UNK        -0.1831 
     24 N          16.5724  -27.2185  -43.8979 N.am      2 UNK        -0.4498 
     25 C          16.3474  -26.1445  -44.6703 C.2       1 UNK         0.5027 
     26 O          16.2722  -24.9867  -44.2469 O.2       1 UNK        -0.4969 
     27 C          21.3012  -26.6292  -41.4410 C.2       3 UNK         0.5005 
     28 O          20.8798  -27.4619  -40.6321 O.2       3 UNK        -0.5279 
     29 N          22.3655  -25.8455  -41.2192 N.am      4 UNK        -0.4463 
     30 CA         23.2471  -25.9101  -40.0505 C.3       4 UNK         0.0283 
     31 CB         24.1923  -24.6951  -40.0898 C.3       4 UNK        -0.1875 
     32 C          24.0495  -27.2249  -39.9783 C.2       4 UNK         0.4949 
     33 O          24.0428  -28.0112  -40.9269 O.2       4 UNK        -0.5039 
     34 N          24.7724  -27.4072  -38.8640 N.am      5 UNK        -0.4663 
     35 CA         25.5445  -28.6000  -38.4750 C.3       5 UNK         0.0242 
     36 CB         26.1241  -28.3644  -37.0687 C.3       5 UNK        -0.1982 
     37 C          26.6471  -29.0837  -39.4450 C.2       5 UNK         0.5017 
     38 O          27.2662  -30.1146  -39.1764 O.2       5 UNK        -0.5012 
     39 N          26.8684  -28.3675  -40.5555 N.am      6 UNK        -0.4439 
     40 CA         27.6063  -28.8508  -41.7251 C.3       6 UNK         0.0297 
     41 CB         27.8438  -27.6827  -42.6953 C.3       6 UNK        -0.2006 
     42 C          26.8752  -30.0083  -42.4376 C.2       6 UNK         0.4892 
     43 O          27.5385  -30.8843  -42.9940 O.2       6 UNK        -0.5089 
     44 N          25.5355  -30.0060  -42.3825 N.am      7 UNK        -0.4243 
     45 CA         24.6782  -31.1300  -42.7501 C.3       7 UNK         0.0196 
     46 CB         23.3790  -30.5849  -43.3663 C.3       7 UNK        -0.2007 
     47 C          24.3576  -31.9362  -41.4844 C.2       7 UNK         0.5020 
     48 O          24.2727  -31.3593  -40.3984 O.2       7 UNK        -0.5147 
     49 N          24.1245  -33.2456  -41.6428 N.am      8 UNK        -0.4734 
     50 CA         23.8176  -34.1743  -40.5435 C.3       8 UNK         0.0238 
     51 CB         23.7463  -35.6079  -41.0945 C.3       8 UNK        -0.1912 
     52 C          22.5338  -33.8350  -39.7606 C.2       8 UNK         0.5038 
     53 O          22.4542  -34.1447  -38.5711 O.2       8 UNK        -0.5046 
     54 N          21.5733  -33.2004  -40.4402 N.am      9 UNK        -0.4200 
     55 CA         20.3251  -32.6674  -39.8788 C.3       9 UNK         0.0839 
     56 C          20.3558  -31.1303  -39.6279 C.2       9 UNK         0.5513 
     57 N          21.4550  -30.4260  -39.8708 N.am      9 UNK        -0.7519 
     58 O          19.3537  -30.5643  -39.1990 O.2       9 UNK        -0.4960 
     59 C59        19.0992  -33.1056  -40.7281 C.3       10 UNK        -0.0876 
     60 S60        19.2228  -32.6737  -42.5006 S.3       10 UNK        -0.2414 
     61 C61        18.2282  -31.1526  -42.5514 C.3       10 UNK         0.0169 
     62 H62        16.4841  -23.4262  -49.5347 H         1 UNK         0.0903 
     63 H63        16.8413  -22.8437  -47.9077 H         1 UNK         0.0903 
     64 H64        18.1427  -23.4579  -48.9295 H         1 UNK         0.0903 
     65 H65        16.2959  -24.3272  -46.2842 H         1 UNK         0.3096 
     66 H66        17.0383  -27.0522  -46.4607 H         1 UNK         0.1121 
     67 H67        14.0357  -26.4380  -46.3062 H         1 UNK         0.0849 
     68 H68        14.8183  -27.1234  -47.6964 H         1 UNK         0.0849 
     69 H69        15.4553  -30.7748  -46.9347 H         1 UNK         0.0865 
     70 H70        16.0394  -29.3729  -47.7941 H         1 UNK         0.0865 
     71 H71        16.1852  -30.9095  -44.3498 H         1 UNK         0.1346 
     72 H72        20.3286  -29.9740  -43.7922 H         1 UNK         0.1412 
     73 H73        18.3364  -28.8035  -47.4065 H         1 UNK         0.1426 
     74 H74        20.7633  -28.6779  -47.2480 H         1 UNK         0.0716 
     75 H75        21.6210  -29.2178  -45.8320 H         1 UNK         0.0716 
     76 H76        22.5242  -26.6365  -43.9207 H         1 UNK         0.0695 
     77 H77        21.7098  -28.1529  -43.7040 H         1 UNK         0.0695 
     78 H78        20.5623  -25.3939  -43.0264 H         1 UNK         0.0983 
     79 H79        19.1307  -27.7764  -43.4934 H         1 UNK         0.3095 
     80 H80        17.0296  -28.2836  -42.1927 H         1 UNK         0.0454 
     81 H81        15.9190  -26.8170  -40.5549 H         1 UNK         0.0851 
     82 H82        14.7922  -27.2355  -41.8355 H         1 UNK         0.0851 
     83 H83        15.5343  -25.6370  -41.7952 H         1 UNK         0.0851 
     84 H84        16.5861  -28.1227  -44.3540 H         1 UNK         0.2976 
     85 H85        22.6562  -25.2170  -41.9538 H         1 UNK         0.3116 
     86 H86        22.6250  -25.8468  -39.1553 H         1 UNK         0.0646 
     87 H87        24.8223  -24.6470  -39.2010 H         1 UNK         0.0847 
     88 H88        23.6340  -23.7595  -40.1301 H         1 UNK         0.0847 
     89 H89        24.8550  -24.7266  -40.9559 H         1 UNK         0.0847 
     90 H90        24.7329  -26.6792  -38.1649 H         1 UNK         0.3040 
     91 H91        24.8305  -29.4244  -38.4121 H         1 UNK         0.1015 
     92 H92        26.6552  -29.2459  -36.7063 H         1 UNK         0.0786 
     93 H93        25.3382  -28.1483  -36.3447 H         1 UNK         0.0786 
     94 H94        26.8298  -27.5328  -37.0599 H         1 UNK         0.0786 
     95 H95        26.2838  -27.5555  -40.6930 H         1 UNK         0.3172 
     96 H96        28.5764  -29.2221  -41.3879 H         1 UNK         0.0595 
     97 H97        26.9056  -27.2614  -43.0591 H         1 UNK         0.0839 
     98 H98        28.4128  -28.0106  -43.5664 H         1 UNK         0.0839 
     99 H99        28.4118  -26.8816  -42.2218 H         1 UNK         0.0839 
    100 H100       25.0739  -29.2756  -41.8433 H         1 UNK         0.2998 
    101 H101       25.1812  -31.7709  -43.4773 H         1 UNK         0.0822 
    102 H102       23.5849  -29.9629  -44.2375 H         1 UNK         0.0787 
    103 H103       22.8200  -29.9824  -42.6485 H         1 UNK         0.0787 
    104 H104       22.7258  -31.3957  -43.6915 H         1 UNK         0.0787 
    105 H105       24.1927  -33.6456  -42.5684 H         1 UNK         0.3055 
    106 H106       24.6443  -34.1216  -39.8314 H         1 UNK         0.1106 
    107 H107       22.9544  -35.7171  -41.8366 H         1 UNK         0.0828 
    108 H108       24.6872  -35.9035  -41.5590 H         1 UNK         0.0828 
    109 H109       23.5443  -36.3234  -40.2959 H         1 UNK         0.0828 
    110 H110       21.7355  -32.9864  -41.4130 H         1 UNK         0.2931 
    111 H111       20.1793  -33.1013  -38.8881 H         1 UNK         0.0412 
    112 H112       22.3269  -30.8679  -40.1364 H         1 UNK         0.3472 
    113 H113       21.4114  -29.4189  -39.7817 H         1 UNK         0.3472 
    114 H114       18.9972  -34.1900  -40.6665 H         1 UNK         0.0970 
    115 H115       18.1712  -32.7098  -40.3110 H         1 UNK         0.0970 
    116 H116       18.6114  -30.4341  -41.8269 H         1 UNK         0.0612 
    117 H117       17.2047  -31.3825  -42.2510 H         1 UNK         0.0612 
@<TRIPOS>BOND
     1    1    2 1    
     2    1   62 1    
     3    1   63 1    
     4    1   64 1    
     5    2    3 2    
     6    2    4 am   BACKBONE|DICT|INTERRES
     7    4    5 1    
     8    4   65 1    
     9    5    6 1    
    10    5   25 1    
    11    5   66 1    
    12    6    7 1    
    13    6   67 1    
    14    6   68 1    
    15    7    8 1    
    16    8    9 1    
    17    8   69 1    
    18    8   70 1    
    19    9   10 ar   
    20    9   14 ar   
    21   10   11 ar   
    22   10   71 1    
    23   11   12 ar   
    24   11   61 1    
    25   12   13 ar   
    26   12   72 1    
    27   13   14 ar   
    28   13   15 1    
    29   14   73 1    
    30   15   16 1    
    31   15   74 1    
    32   15   75 1    
    33   16   17 1    
    34   17   18 1    
    35   17   76 1    
    36   17   77 1    
    37   18   19 1    
    38   18   27 1    
    39   18   78 1    
    40   19   20 am   BACKBONE|DICT|INTERRES
    41   19   79 1    
    42   20   21 2    
    43   20   22 1    
    44   22   23 1    
    45   22   24 1    
    46   22   80 1    
    47   23   81 1    
    48   23   82 1    
    49   23   83 1    
    50   24   25 am   BACKBONE|DICT|INTERRES
    51   24   84 1    
    52   25   26 2    
    53   27   28 2    
    54   27   29 am   BACKBONE|DICT|INTERRES
    55   29   30 1    
    56   29   85 1    
    57   30   31 1    
    58   30   32 1    
    59   30   86 1    
    60   31   87 1    
    61   31   88 1    
    62   31   89 1    
    63   32   33 2    
    64   32   34 am   BACKBONE|DICT|INTERRES
    65   34   35 1    
    66   34   90 1    
    67   35   36 1    
    68   35   37 1    
    69   35   91 1    
    70   36   92 1    
    71   36   93 1    
    72   36   94 1    
    73   37   38 2    
    74   37   39 am   BACKBONE|DICT|INTERRES
    75   39   40 1    
    76   39   95 1    
    77   40   41 1    
    78   40   42 1    
    79   40   96 1    
    80   41   97 1    
    81   41   98 1    
    82   41   99 1    
    83   42   43 2    
    84   42   44 am   BACKBONE|DICT|INTERRES
    85   44   45 1    
    86   44  100 1    
    87   45   46 1    
    88   45   47 1    
    89   45  101 1    
    90   46  102 1    
    91   46  103 1    
    92   46  104 1    
    93   47   48 2    
    94   47   49 am   BACKBONE|DICT|INTERRES
    95   49   50 1    
    96   49  105 1    
    97   50   51 1    
    98   50   52 1    
    99   50  106 1    
   100   51  107 1    
   101   51  108 1    
   102   51  109 1    
   103   52   53 2    
   104   52   54 am   BACKBONE|DICT|INTERRES
   105   54   55 1    
   106   54  110 1    
   107   55   56 1    
   108   55   59 1    
   109   55  111 1    
   110   56   57 am   BACKBONE|DICT|INTERRES
   111   56   58 2    
   112   57  112 1    
   113   57  113 1    
   114   59   60 1    
   115   59  114 1    
   116   59  115 1    
   117   60   61 1    
   118   61  116 1    
   119   61  117 1    
@<TRIPOS>SUBSTRUCTURE
     1 UNK         1 GROUP             0       ****    0 ROOT    
