@<TRIPOS>MOLECULE
3R8
117   119    1
SMALL
USER_CHARGES


@<TRIPOS>ATOM
      1 CA         17.0518  -25.9328  -47.6983 C.3       0 UNK        -0.2013 
      2 C          16.5622  -24.7397  -46.8844 C.2       0 UNK         0.4866 
      3 O          16.2803  -23.6920  -47.4624 O.2       0 UNK        -0.5176 
      4 N          16.4497  -24.8308  -45.5525 N.am      1 UNK        -0.4884 
      5 CA         16.7627  -25.9853  -44.6952 C.3       1 UNK         0.0853 
      6 C6         15.4969  -26.5673  -44.0132 C.3       10 UNK        -0.0849 
      7 S7         14.3741  -27.3145  -45.2445 S.3       10 UNK        -0.2776 
      8 C8         14.3775  -29.0801  -44.7745 C.3       10 UNK         0.0316 
      9 C9         15.7656  -29.7148  -44.7020 C.ar      10 UNK        -0.0863 
     10 C10        16.0977  -30.5155  -43.6030 C.ar      10 UNK        -0.1009 
     11 C11        17.3465  -31.1378  -43.5274 C.ar      10 UNK        -0.0712 
     12 C12        18.2674  -30.9558  -44.5605 C.ar      10 UNK        -0.0894 
     13 C13        17.9740  -30.1169  -45.6382 C.ar      10 UNK        -0.0745 
     14 C14        16.7087  -29.5263  -45.7208 C.ar      10 UNK        -0.0972 
     15 C15        19.0334  -29.8418  -46.6982 C.3       10 UNK         0.0209 
     16 S16        20.0194  -28.3505  -46.3177 S.3       10 UNK        -0.2568 
     17 C17        20.9709  -28.8839  -44.8473 C.3       10 UNK        -0.0983 
     18 CA         21.6930  -27.7493  -44.0726 C.3       3 UNK         0.0876 
     19 N          20.8506  -26.5508  -43.9785 N.am      3 UNK        -0.4424 
     20 C          21.0777  -25.4108  -43.3104 C.2       2 UNK         0.4918 
     21 O          22.0791  -25.2087  -42.6252 O.2       2 UNK        -0.4875 
     22 CA         19.9982  -24.3122  -43.4059 C.3       2 UNK         0.0481 
     23 CB         20.5726  -23.0511  -44.0715 C.3       2 UNK        -0.1831 
     24 N          18.7896  -24.7251  -44.1309 N.am      2 UNK        -0.4498 
     25 C          17.8734  -25.6044  -43.6945 C.2       1 UNK         0.5027 
     26 O          17.9179  -26.1258  -42.5798 O.2       1 UNK        -0.4969 
     27 C          22.1692  -28.2852  -42.7012 C.2       3 UNK         0.5005 
     28 O          23.2658  -28.8400  -42.6026 O.2       3 UNK        -0.5279 
     29 N          21.3507  -28.0790  -41.6578 N.am      4 UNK        -0.4463 
     30 CA         21.6439  -28.3959  -40.2585 C.3       4 UNK         0.0283 
     31 CB         20.4196  -28.0538  -39.3956 C.3       4 UNK        -0.1875 
     32 C          22.8981  -27.6950  -39.7035 C.2       4 UNK         0.4949 
     33 O          23.5348  -28.2463  -38.8071 O.2       4 UNK        -0.5039 
     34 N          23.2740  -26.5344  -40.2646 N.am      5 UNK        -0.4663 
     35 CA         24.5138  -25.8210  -39.9331 C.3       5 UNK         0.0242 
     36 CB         24.4744  -24.4107  -40.5425 C.3       5 UNK        -0.1982 
     37 C          25.7838  -26.5670  -40.3848 C.2       5 UNK         0.5017 
     38 O          26.8422  -26.3610  -39.7909 O.2       5 UNK        -0.5012 
     39 N          25.6525  -27.4359  -41.3975 N.am      6 UNK        -0.4439 
     40 CA         26.6932  -28.3563  -41.8616 C.3       6 UNK         0.0297 
     41 CB         26.6219  -28.4487  -43.3965 C.3       6 UNK        -0.2006 
     42 C          26.5585  -29.7519  -41.2187 C.2       6 UNK         0.4892 
     43 O          27.3057  -30.6543  -41.5977 O.2       6 UNK        -0.5089 
     44 N          25.6061  -29.9137  -40.2839 N.am      7 UNK        -0.4243 
     45 CA         25.2232  -31.1477  -39.5868 C.3       7 UNK         0.0196 
     46 CB         26.3794  -31.6716  -38.7084 C.3       7 UNK        -0.2007 
     47 C          24.6426  -32.2320  -40.5162 C.2       7 UNK         0.5020 
     48 O          24.6643  -33.4113  -40.1595 O.2       7 UNK        -0.5147 
     49 N          24.1044  -31.8288  -41.6782 N.am      8 UNK        -0.4734 
     50 CA         23.5640  -32.7337  -42.7009 C.3       8 UNK         0.0238 
     51 CB         23.2515  -31.9296  -43.9697 C.3       8 UNK        -0.1912 
     52 C          22.3144  -33.5088  -42.2491 C.2       8 UNK         0.5038 
     53 O          22.0671  -34.6028  -42.7576 O.2       8 UNK        -0.5046 
     54 N          21.5626  -32.9312  -41.3045 N.am      9 UNK        -0.4200 
     55 CA         20.3810  -33.5395  -40.6773 C.3       9 UNK         0.0839 
     56 C          20.7138  -34.6172  -39.6034 C.2       9 UNK         0.5513 
     57 N          21.9719  -34.8368  -39.2356 N.am      9 UNK        -0.7519 
     58 O          19.8079  -35.2737  -39.0964 O.2       9 UNK        -0.4960 
     59 C59        19.4019  -32.4710  -40.1175 C.3       10 UNK        -0.0876 
     60 S60        18.9883  -31.1615  -41.3192 S.3       10 UNK        -0.2414 
     61 C61        17.7220  -31.9923  -42.3273 C.3       10 UNK         0.0169 
     62 H62        18.0565  -26.2275  -47.3981 H         1 UNK         0.0903 
     63 H63        16.3788  -26.7805  -47.5806 H         1 UNK         0.0903 
     64 H64        17.0848  -25.6840  -48.7589 H         1 UNK         0.0903 
     65 H65        16.1230  -24.0156  -45.0512 H         1 UNK         0.3096 
     66 H66        17.2088  -26.7900  -45.2789 H         1 UNK         0.1121 
     67 H67        14.9584  -25.7883  -43.4709 H         1 UNK         0.0849 
     68 H68        15.7584  -27.3246  -43.2718 H         1 UNK         0.0849 
     69 H69        13.7799  -29.6349  -45.4989 H         1 UNK         0.0865 
     70 H70        13.8614  -29.1766  -43.8178 H         1 UNK         0.0865 
     71 H71        15.3821  -30.6598  -42.8049 H         1 UNK         0.1346 
     72 H72        19.2354  -31.4339  -44.4970 H         1 UNK         0.1412 
     73 H73        16.4640  -28.9045  -46.5699 H         1 UNK         0.1426 
     74 H74        18.5549  -29.7075  -47.6694 H         1 UNK         0.0716 
     75 H75        19.6999  -30.6993  -46.8038 H         1 UNK         0.0716 
     76 H76        21.6939  -29.6292  -45.1791 H         1 UNK         0.0695 
     77 H77        20.2856  -29.3913  -44.1710 H         1 UNK         0.0695 
     78 H78        22.5848  -27.4607  -44.6321 H         1 UNK         0.0983 
     79 H79        20.0081  -26.5993  -44.5307 H         1 UNK         0.3095 
     80 H80        19.7101  -24.0564  -42.3843 H         1 UNK         0.0454 
     81 H81        20.8822  -23.2415  -45.0998 H         1 UNK         0.0851 
     82 H82        21.4476  -22.6867  -43.5311 H         1 UNK         0.0851 
     83 H83        19.8440  -22.2404  -44.0833 H         1 UNK         0.0851 
     84 H84        18.6628  -24.3329  -45.0536 H         1 UNK         0.2976 
     85 H85        20.4676  -27.6226  -41.8395 H         1 UNK         0.3116 
     86 H86        21.8169  -29.4723  -40.1982 H         1 UNK         0.0646 
     87 H87        19.5359  -28.6033  -39.7198 H         1 UNK         0.0847 
     88 H88        20.1845  -26.9893  -39.4325 H         1 UNK         0.0847 
     89 H89        20.5938  -28.3136  -38.3505 H         1 UNK         0.0847 
     90 H90        22.7169  -26.1437  -41.0200 H         1 UNK         0.3040 
     91 H91        24.5637  -25.7222  -38.8463 H         1 UNK         0.1015 
     92 H92        25.3484  -23.8316  -40.2411 H         1 UNK         0.0786 
     93 H93        23.5920  -23.8600  -40.2161 H         1 UNK         0.0786 
     94 H94        24.4660  -24.4423  -41.6327 H         1 UNK         0.0786 
     95 H95        24.7337  -27.5706  -41.8071 H         1 UNK         0.3172 
     96 H96        27.6781  -27.9694  -41.5928 H         1 UNK         0.0595 
     97 H97        25.6846  -28.8924  -43.7338 H         1 UNK         0.0839 
     98 H98        27.4315  -29.0649  -43.7898 H         1 UNK         0.0839 
     99 H99        26.7132  -27.4656  -43.8583 H         1 UNK         0.0839 
    100 H100       25.0568  -29.1018  -40.0278 H         1 UNK         0.2998 
    101 H101       24.4084  -30.8701  -38.9169 H         1 UNK         0.0822 
    102 H102       26.7660  -30.8900  -38.0545 H         1 UNK         0.0787 
    103 H103       26.0458  -32.4900  -38.0692 H         1 UNK         0.0787 
    104 H104       27.2076  -32.0480  -39.3094 H         1 UNK         0.0787 
    105 H105       24.0981  -30.8390  -41.8970 H         1 UNK         0.3055 
    106 H106       24.3371  -33.4684  -42.9371 H         1 UNK         0.1106 
    107 H107       22.9411  -32.5860  -44.7839 H         1 UNK         0.0828 
    108 H108       24.1187  -31.3664  -44.3154 H         1 UNK         0.0828 
    109 H109       22.4397  -31.2272  -43.7897 H         1 UNK         0.0828 
    110 H110       21.8431  -32.0291  -40.9529 H         1 UNK         0.2931 
    111 H111       19.8454  -34.0760  -41.4625 H         1 UNK         0.0412 
    112 H112       22.7375  -34.3210  -39.6505 H         1 UNK         0.3472 
    113 H113       22.1635  -35.5418  -38.5414 H         1 UNK         0.3472 
    114 H114       18.4755  -32.9381  -39.7773 H         1 UNK         0.0970 
    115 H115       19.8343  -31.9882  -39.2392 H         1 UNK         0.0970 
    116 H116       16.8486  -32.2040  -41.7086 H         1 UNK         0.0612 
    117 H117       18.1011  -32.9532  -42.6773 H         1 UNK         0.0612 
@<TRIPOS>BOND
     1    1    2 1    
     2    1   62 1    
     3    1   63 1    
     4    1   64 1    
     5    2    3 2    
     6    2    4 am   BACKBONE|DICT|INTERRES
     7    4    5 1    
     8    4   65 1    
     9    5    6 1    
    10    5   25 1    
    11    5   66 1    
    12    6    7 1    
    13    6   67 1    
    14    6   68 1    
    15    7    8 1    
    16    8    9 1    
    17    8   69 1    
    18    8   70 1    
    19    9   10 ar   
    20    9   14 ar   
    21   10   11 ar   
    22   10   71 1    
    23   11   12 ar   
    24   11   61 1    
    25   12   13 ar   
    26   12   72 1    
    27   13   14 ar   
    28   13   15 1    
    29   14   73 1    
    30   15   16 1    
    31   15   74 1    
    32   15   75 1    
    33   16   17 1    
    34   17   18 1    
    35   17   76 1    
    36   17   77 1    
    37   18   19 1    
    38   18   27 1    
    39   18   78 1    
    40   19   20 am   BACKBONE|DICT|INTERRES
    41   19   79 1    
    42   20   21 2    
    43   20   22 1    
    44   22   23 1    
    45   22   24 1    
    46   22   80 1    
    47   23   81 1    
    48   23   82 1    
    49   23   83 1    
    50   24   25 am   BACKBONE|DICT|INTERRES
    51   24   84 1    
    52   25   26 2    
    53   27   28 2    
    54   27   29 am   BACKBONE|DICT|INTERRES
    55   29   30 1    
    56   29   85 1    
    57   30   31 1    
    58   30   32 1    
    59   30   86 1    
    60   31   87 1    
    61   31   88 1    
    62   31   89 1    
    63   32   33 2    
    64   32   34 am   BACKBONE|DICT|INTERRES
    65   34   35 1    
    66   34   90 1    
    67   35   36 1    
    68   35   37 1    
    69   35   91 1    
    70   36   92 1    
    71   36   93 1    
    72   36   94 1    
    73   37   38 2    
    74   37   39 am   BACKBONE|DICT|INTERRES
    75   39   40 1    
    76   39   95 1    
    77   40   41 1    
    78   40   42 1    
    79   40   96 1    
    80   41   97 1    
    81   41   98 1    
    82   41   99 1    
    83   42   43 2    
    84   42   44 am   BACKBONE|DICT|INTERRES
    85   44   45 1    
    86   44  100 1    
    87   45   46 1    
    88   45   47 1    
    89   45  101 1    
    90   46  102 1    
    91   46  103 1    
    92   46  104 1    
    93   47   48 2    
    94   47   49 am   BACKBONE|DICT|INTERRES
    95   49   50 1    
    96   49  105 1    
    97   50   51 1    
    98   50   52 1    
    99   50  106 1    
   100   51  107 1    
   101   51  108 1    
   102   51  109 1    
   103   52   53 2    
   104   52   54 am   BACKBONE|DICT|INTERRES
   105   54   55 1    
   106   54  110 1    
   107   55   56 1    
   108   55   59 1    
   109   55  111 1    
   110   56   57 am   BACKBONE|DICT|INTERRES
   111   56   58 2    
   112   57  112 1    
   113   57  113 1    
   114   59   60 1    
   115   59  114 1    
   116   59  115 1    
   117   60   61 1    
   118   61  116 1    
   119   61  117 1    
@<TRIPOS>SUBSTRUCTURE
     1 UNK         1 GROUP             0       ****    0 ROOT    
