@<TRIPOS>MOLECULE
3R8
117   119    1
SMALL
USER_CHARGES


@<TRIPOS>ATOM
      1 CA         18.4191  -22.7844  -46.8649 C.3       0 UNK        -0.2013 
      2 C          18.8129  -24.2401  -47.0660 C.2       0 UNK         0.4866 
      3 O          19.5157  -24.5535  -48.0266 O.2       0 UNK        -0.5176 
      4 N          18.3548  -25.1248  -46.1711 N.am      1 UNK        -0.4884 
      5 CA         18.6485  -26.5632  -46.1517 C.3       1 UNK         0.0853 
      6 C6         17.8235  -27.3220  -45.0838 C.3       10 UNK        -0.0849 
      7 S7         16.0424  -27.3722  -45.4605 S.3       10 UNK        -0.2776 
      8 C8         15.8147  -29.1389  -45.8843 C.3       10 UNK         0.0316 
      9 C9         16.1464  -30.1358  -44.7683 C.ar      10 UNK        -0.0863 
     10 C10        16.5168  -31.4396  -45.1154 C.ar      10 UNK        -0.1009 
     11 C11        16.8067  -32.3926  -44.1326 C.ar      10 UNK        -0.0712 
     12 C12        16.7358  -32.0292  -42.7845 C.ar      10 UNK        -0.0894 
     13 C13        16.3708  -30.7300  -42.4186 C.ar      10 UNK        -0.0745 
     14 C14        16.0646  -29.7953  -43.4121 C.ar      10 UNK        -0.0972 
     15 C15        16.2696  -30.3437  -40.9492 C.3       10 UNK         0.0209 
     16 S16        17.8998  -30.1001  -40.1730 S.3       10 UNK        -0.2568 
     17 C17        18.5226  -28.5919  -40.9944 C.3       10 UNK        -0.0983 
     18 CA         19.9271  -28.8085  -41.6302 C.3       3 UNK         0.0876 
     19 N          20.2026  -27.8610  -42.7158 N.am      3 UNK        -0.4424 
     20 C          20.3527  -26.5353  -42.5761 C.2       2 UNK         0.4918 
     21 O          20.3061  -25.9628  -41.4865 O.2       2 UNK        -0.4875 
     22 CA         20.5678  -25.6914  -43.8489 C.3       2 UNK         0.0481 
     23 CB         21.6693  -24.6386  -43.6359 C.3       2 UNK        -0.1831 
     24 N          20.9197  -26.4907  -45.0278 N.am      2 UNK        -0.4498 
     25 C          20.1609  -26.8976  -46.0613 C.2       1 UNK         0.5027 
     26 O          20.6633  -27.5464  -46.9777 O.2       1 UNK        -0.4969 
     27 C          21.1062  -28.8435  -40.6311 C.2       3 UNK         0.5005 
     28 O          22.2523  -28.9909  -41.0626 O.2       3 UNK        -0.5279 
     29 N          20.8288  -28.6796  -39.3295 N.am      4 UNK        -0.4463 
     30 CA         21.8025  -28.6858  -38.2330 C.3       4 UNK         0.0283 
     31 CB         21.0669  -28.4822  -36.8996 C.3       4 UNK        -0.1875 
     32 C          22.9413  -27.6603  -38.3788 C.2       4 UNK         0.4949 
     33 O          24.0444  -27.9266  -37.9042 O.2       4 UNK        -0.5039 
     34 N          22.6885  -26.5421  -39.0755 N.am      5 UNK        -0.4663 
     35 CA         23.7048  -25.5418  -39.4207 C.3       5 UNK         0.0242 
     36 CB         23.0133  -24.2537  -39.8914 C.3       5 UNK        -0.1982 
     37 C          24.7203  -26.0357  -40.4707 C.2       5 UNK         0.5017 
     38 O          25.8275  -25.5003  -40.5256 O.2       5 UNK        -0.5012 
     39 N          24.3448  -27.0529  -41.2596 N.am      6 UNK        -0.4439 
     40 CA         25.2179  -27.7711  -42.1917 C.3       6 UNK         0.0297 
     41 CB         24.4396  -28.0342  -43.4936 C.3       6 UNK        -0.2006 
     42 C          25.7452  -29.0904  -41.5887 C.2       6 UNK         0.4892 
     43 O          26.4943  -29.7945  -42.2664 O.2       6 UNK        -0.5089 
     44 N          25.3481  -29.4037  -40.3434 N.am      7 UNK        -0.4243 
     45 CA         25.6781  -30.6001  -39.5577 C.3       7 UNK         0.0196 
     46 CB         27.1837  -30.6325  -39.2186 C.3       7 UNK        -0.2007 
     47 C          25.1763  -31.9218  -40.1769 C.2       7 UNK         0.5020 
     48 O          25.7594  -32.9753  -39.9152 O.2       7 UNK        -0.5147 
     49 N          24.0998  -31.8566  -40.9687 N.am      8 UNK        -0.4734 
     50 CA         23.4680  -32.9878  -41.6494 C.3       8 UNK         0.0238 
     51 CB         24.3591  -33.4912  -42.8110 C.3       8 UNK        -0.1912 
     52 C          22.0629  -32.5397  -42.0780 C.2       8 UNK         0.5038 
     53 O          21.3505  -31.9643  -41.2555 O.2       8 UNK        -0.5046 
     54 N          21.6962  -32.7748  -43.3430 N.am      9 UNK        -0.4200 
     55 CA         20.5640  -32.1092  -44.0056 C.3       9 UNK         0.0839 
     56 C          20.9844  -30.7810  -44.6902 C.2       9 UNK         0.5513 
     57 N          22.2473  -30.5750  -45.0450 N.am      9 UNK        -0.7519 
     58 O          20.1512  -29.9015  -44.8683 O.2       9 UNK        -0.4960 
     59 C59        19.8406  -33.0471  -45.0030 C.3       10 UNK        -0.0876 
     60 S60        18.8628  -34.3032  -44.1130 S.3       10 UNK        -0.2414 
     61 C61        17.1539  -33.8235  -44.5328 C.3       10 UNK         0.0169 
     62 H62        17.7918  -22.6481  -45.9841 H         1 UNK         0.0903 
     63 H63        19.3101  -22.1687  -46.7444 H         1 UNK         0.0903 
     64 H64        17.8685  -22.4213  -47.7323 H         1 UNK         0.0903 
     65 H65        17.7501  -24.8004  -45.4300 H         1 UNK         0.3096 
     66 H66        18.3297  -26.9444  -47.1247 H         1 UNK         0.1121 
     67 H67        18.1818  -28.3448  -44.9755 H         1 UNK         0.0849 
     68 H68        17.9317  -26.8619  -44.1027 H         1 UNK         0.0849 
     69 H69        16.4217  -29.3556  -46.7649 H         1 UNK         0.0865 
     70 H70        14.7767  -29.2908  -46.1824 H         1 UNK         0.0865 
     71 H71        16.5666  -31.7188  -46.1592 H         1 UNK         0.1346 
     72 H72        16.9605  -32.7601  -42.0195 H         1 UNK         0.1412 
     73 H73        15.7608  -28.7996  -43.1217 H         1 UNK         0.1426 
     74 H74        15.6739  -29.4381  -40.8243 H         1 UNK         0.0716 
     75 H75        15.7403  -31.1299  -40.4089 H         1 UNK         0.0716 
     76 H76        17.8151  -28.3108  -41.7743 H         1 UNK         0.0695 
     77 H77        18.5128  -27.7565  -40.2923 H         1 UNK         0.0695 
     78 H78        19.9204  -29.7898  -42.1017 H         1 UNK         0.0983 
     79 H79        20.2909  -28.2791  -43.6361 H         1 UNK         0.3095 
     80 H80        19.6400  -25.1488  -44.0099 H         1 UNK         0.0454 
     81 H81        21.3847  -23.9271  -42.8601 H         1 UNK         0.0851 
     82 H82        21.8470  -24.0606  -44.5429 H         1 UNK         0.0851 
     83 H83        22.6144  -25.0927  -43.3357 H         1 UNK         0.0851 
     84 H84        21.8899  -26.7655  -45.0614 H         1 UNK         0.2976 
     85 H85        19.8565  -28.5874  -39.0700 H         1 UNK         0.3116 
     86 H86        22.2621  -29.6763  -38.2217 H         1 UNK         0.0646 
     87 H87        21.7641  -28.5102  -36.0608 H         1 UNK         0.0847 
     88 H88        20.5536  -27.5204  -36.8640 H         1 UNK         0.0847 
     89 H89        20.3280  -29.2653  -36.7286 H         1 UNK         0.0847 
     90 H90        21.7618  -26.4061  -39.4592 H         1 UNK         0.3040 
     91 H91        24.2706  -25.3091  -38.5155 H         1 UNK         0.1015 
     92 H92        23.7453  -23.4826  -40.1362 H         1 UNK         0.0786 
     93 H93        22.3618  -23.8474  -39.1177 H         1 UNK         0.0786 
     94 H94        22.4098  -24.4247  -40.7811 H         1 UNK         0.0786 
     95 H95        23.4282  -27.4723  -41.1204 H         1 UNK         0.3172 
     96 H96        26.0879  -27.1590  -42.4373 H         1 UNK         0.0595 
     97 H97        23.5632  -28.6594  -43.3224 H         1 UNK         0.0839 
     98 H98        25.0641  -28.5453  -44.2274 H         1 UNK         0.0839 
     99 H99        24.1057  -27.1025  -43.9491 H         1 UNK         0.0839 
    100 H100       24.7415  -28.7451  -39.8725 H         1 UNK         0.2998 
    101 H101       25.1360  -30.4938  -38.6169 H         1 UNK         0.0822 
    102 H102       27.4095  -31.4292  -38.5088 H         1 UNK         0.0787 
    103 H103       27.5077  -29.6961  -38.7642 H         1 UNK         0.0787 
    104 H104       27.7944  -30.8052  -40.1053 H         1 UNK         0.0787 
    105 H105       23.6255  -30.9660  -41.0789 H         1 UNK         0.3055 
    106 H106       23.3343  -33.7986  -40.9301 H         1 UNK         0.1106 
    107 H107       24.5393  -32.7114  -43.5519 H         1 UNK         0.0828 
    108 H108       25.3319  -33.8238  -42.4492 H         1 UNK         0.0828 
    109 H109       23.9126  -34.3476  -43.3176 H         1 UNK         0.0828 
    110 H110       22.3244  -33.2887  -43.9417 H         1 UNK         0.2931 
    111 H111       19.8280  -31.8258  -43.2506 H         1 UNK         0.0412 
    112 H112       22.4843  -29.7104  -45.5038 H         1 UNK         0.3472 
    113 H113       22.9549  -31.2752  -44.9020 H         1 UNK         0.3472 
    114 H114       19.1787  -32.4854  -45.6646 H         1 UNK         0.0970 
    115 H115       20.5566  -33.5478  -45.6567 H         1 UNK         0.0970 
    116 H116       17.0027  -33.9733  -45.6030 H         1 UNK         0.0612 
    117 H117       16.4676  -34.5071  -44.0314 H         1 UNK         0.0612 
@<TRIPOS>BOND
     1    1    2 1    
     2    1   62 1    
     3    1   63 1    
     4    1   64 1    
     5    2    3 2    
     6    2    4 am   BACKBONE|DICT|INTERRES
     7    4    5 1    
     8    4   65 1    
     9    5    6 1    
    10    5   25 1    
    11    5   66 1    
    12    6    7 1    
    13    6   67 1    
    14    6   68 1    
    15    7    8 1    
    16    8    9 1    
    17    8   69 1    
    18    8   70 1    
    19    9   10 ar   
    20    9   14 ar   
    21   10   11 ar   
    22   10   71 1    
    23   11   12 ar   
    24   11   61 1    
    25   12   13 ar   
    26   12   72 1    
    27   13   14 ar   
    28   13   15 1    
    29   14   73 1    
    30   15   16 1    
    31   15   74 1    
    32   15   75 1    
    33   16   17 1    
    34   17   18 1    
    35   17   76 1    
    36   17   77 1    
    37   18   19 1    
    38   18   27 1    
    39   18   78 1    
    40   19   20 am   BACKBONE|DICT|INTERRES
    41   19   79 1    
    42   20   21 2    
    43   20   22 1    
    44   22   23 1    
    45   22   24 1    
    46   22   80 1    
    47   23   81 1    
    48   23   82 1    
    49   23   83 1    
    50   24   25 am   BACKBONE|DICT|INTERRES
    51   24   84 1    
    52   25   26 2    
    53   27   28 2    
    54   27   29 am   BACKBONE|DICT|INTERRES
    55   29   30 1    
    56   29   85 1    
    57   30   31 1    
    58   30   32 1    
    59   30   86 1    
    60   31   87 1    
    61   31   88 1    
    62   31   89 1    
    63   32   33 2    
    64   32   34 am   BACKBONE|DICT|INTERRES
    65   34   35 1    
    66   34   90 1    
    67   35   36 1    
    68   35   37 1    
    69   35   91 1    
    70   36   92 1    
    71   36   93 1    
    72   36   94 1    
    73   37   38 2    
    74   37   39 am   BACKBONE|DICT|INTERRES
    75   39   40 1    
    76   39   95 1    
    77   40   41 1    
    78   40   42 1    
    79   40   96 1    
    80   41   97 1    
    81   41   98 1    
    82   41   99 1    
    83   42   43 2    
    84   42   44 am   BACKBONE|DICT|INTERRES
    85   44   45 1    
    86   44  100 1    
    87   45   46 1    
    88   45   47 1    
    89   45  101 1    
    90   46  102 1    
    91   46  103 1    
    92   46  104 1    
    93   47   48 2    
    94   47   49 am   BACKBONE|DICT|INTERRES
    95   49   50 1    
    96   49  105 1    
    97   50   51 1    
    98   50   52 1    
    99   50  106 1    
   100   51  107 1    
   101   51  108 1    
   102   51  109 1    
   103   52   53 2    
   104   52   54 am   BACKBONE|DICT|INTERRES
   105   54   55 1    
   106   54  110 1    
   107   55   56 1    
   108   55   59 1    
   109   55  111 1    
   110   56   57 am   BACKBONE|DICT|INTERRES
   111   56   58 2    
   112   57  112 1    
   113   57  113 1    
   114   59   60 1    
   115   59  114 1    
   116   59  115 1    
   117   60   61 1    
   118   61  116 1    
   119   61  117 1    
@<TRIPOS>SUBSTRUCTURE
     1 UNK         1 GROUP             0       ****    0 ROOT    
