@<TRIPOS>MOLECULE
3R8
117   119    1
SMALL
USER_CHARGES


@<TRIPOS>ATOM
      1 CA         15.3894  -24.0896  -42.3013 C.3       0 UNK        -0.2013 
      2 C          16.2081  -25.2975  -42.7304 C.2       0 UNK         0.4866 
      3 O          16.8801  -25.2481  -43.7615 O.2       0 UNK        -0.5176 
      4 N          16.1677  -26.3816  -41.9450 N.am      1 UNK        -0.4884 
      5 CA         16.8838  -27.6406  -42.1875 C.3       1 UNK         0.0853 
      6 C6         16.1834  -28.8363  -41.4853 C.3       10 UNK        -0.0849 
      7 S7         14.8252  -29.4730  -42.5217 S.3       10 UNK        -0.2776 
      8 C8         15.6378  -30.8818  -43.3538 C.3       10 UNK         0.0316 
      9 C9         16.9266  -30.4782  -44.0627 C.ar      10 UNK        -0.0863 
     10 C10        18.1675  -30.7794  -43.4917 C.ar      10 UNK        -0.1009 
     11 C11        19.3531  -30.4028  -44.1279 C.ar      10 UNK        -0.0712 
     12 C12        19.2938  -29.7451  -45.3575 C.ar      10 UNK        -0.0894 
     13 C13        18.0612  -29.4154  -45.9313 C.ar      10 UNK        -0.0745 
     14 C14        16.8807  -29.7908  -45.2799 C.ar      10 UNK        -0.0972 
     15 C15        17.9963  -28.6756  -47.2625 C.3       10 UNK         0.0209 
     16 S16        18.5351  -26.9362  -47.1265 S.3       10 UNK        -0.2568 
     17 C17        20.3404  -27.0870  -47.3693 C.3       10 UNK        -0.0983 
     18 CA         21.2119  -26.4437  -46.2543 C.3       3 UNK         0.0876 
     19 N          20.6957  -26.6639  -44.8936 N.am      3 UNK        -0.4424 
     20 C          21.0861  -25.9578  -43.8212 C.2       2 UNK         0.4918 
     21 O          21.8576  -25.0001  -43.8824 O.2       2 UNK        -0.4875 
     22 CA         20.5113  -26.3916  -42.4651 C.3       2 UNK         0.0481 
     23 CB         20.7596  -25.3634  -41.3436 C.3       2 UNK        -0.1831 
     24 N          19.0834  -26.6638  -42.5869 N.am      2 UNK        -0.4498 
     25 C          18.3817  -27.5199  -41.8378 C.2       1 UNK         0.5027 
     26 O          18.8668  -28.1835  -40.9183 O.2       1 UNK        -0.4969 
     27 C          22.6731  -26.9300  -46.3963 C.2       3 UNK         0.5005 
     28 O          23.4143  -26.4097  -47.2321 O.2       3 UNK        -0.5279 
     29 N          23.0402  -27.9372  -45.5913 N.am      4 UNK        -0.4463 
     30 CA         24.3728  -28.5304  -45.5007 C.3       4 UNK         0.0283 
     31 CB         24.2161  -30.0033  -45.0716 C.3       4 UNK        -0.1875 
     32 C          25.2609  -27.7517  -44.5123 C.2       4 UNK         0.4949 
     33 O          24.8470  -26.7282  -43.9653 O.2       4 UNK        -0.5039 
     34 N          26.4702  -28.2750  -44.2725 N.am      5 UNK        -0.4663 
     35 CA         27.4552  -27.7287  -43.3302 C.3       5 UNK         0.0242 
     36 CB         28.8063  -28.4235  -43.5714 C.3       5 UNK        -0.1982 
     37 C          27.0534  -27.8319  -41.8431 C.2       5 UNK         0.5017 
     38 O          27.7109  -27.2100  -41.0073 O.2       5 UNK        -0.5012 
     39 N          26.0056  -28.6052  -41.5339 N.am      6 UNK        -0.4439 
     40 CA         25.4251  -28.7631  -40.2051 C.3       6 UNK         0.0297 
     41 CB         25.8818  -30.1034  -39.6045 C.3       6 UNK        -0.2006 
     42 C          23.8978  -28.7168  -40.3210 C.2       6 UNK         0.4892 
     43 O          23.3473  -29.1460  -41.3396 O.2       6 UNK        -0.5089 
     44 N          23.2489  -28.2230  -39.2602 N.am      7 UNK        -0.4243 
     45 CA         21.7960  -28.2350  -39.1005 C.3       7 UNK         0.0196 
     46 CB         21.3889  -27.1700  -38.0696 C.3       7 UNK        -0.2007 
     47 C          21.3140  -29.6238  -38.6598 C.2       7 UNK         0.5020 
     48 O          22.0154  -30.2914  -37.8957 O.2       7 UNK        -0.5147 
     49 N          20.1214  -30.0156  -39.1320 N.am      8 UNK        -0.4734 
     50 CA         19.4608  -31.3090  -38.8890 C.3       8 UNK         0.0238 
     51 CB         18.9816  -31.4077  -37.4251 C.3       8 UNK        -0.1912 
     52 C          20.3321  -32.5081  -39.3218 C.2       8 UNK         0.5038 
     53 O          20.4721  -33.4817  -38.5786 O.2       8 UNK        -0.5046 
     54 N          20.9304  -32.3717  -40.5107 N.am      9 UNK        -0.4200 
     55 CA         21.8522  -33.3146  -41.1548 C.3       9 UNK         0.0839 
     56 C          21.2744  -34.7446  -41.3676 C.2       9 UNK         0.5513 
     57 N          22.1359  -35.7508  -41.4390 N.am      9 UNK        -0.7519 
     58 O          20.0688  -34.9480  -41.4994 O.2       9 UNK        -0.4960 
     59 C59        22.4281  -32.7016  -42.4627 C.3       10 UNK        -0.0876 
     60 S60        21.1819  -32.4261  -43.7729 S.3       10 UNK        -0.2414 
     61 C61        20.6941  -30.7005  -43.4785 C.3       10 UNK         0.0169 
     62 H62        14.6670  -23.8331  -43.0756 H         1 UNK         0.0903 
     63 H63        14.8438  -24.2736  -41.3760 H         1 UNK         0.0903 
     64 H64        16.0418  -23.2308  -42.1459 H         1 UNK         0.0903 
     65 H65        15.6125  -26.3552  -41.1013 H         1 UNK         0.3096 
     66 H66        16.8681  -27.8246  -43.2636 H         1 UNK         0.1121 
     67 H67        16.8652  -29.6627  -41.2814 H         1 UNK         0.0849 
     68 H68        15.7895  -28.5439  -40.5106 H         1 UNK         0.0849 
     69 H69        15.8336  -31.6653  -42.6198 H         1 UNK         0.0865 
     70 H70        14.9449  -31.3139  -44.0774 H         1 UNK         0.0865 
     71 H71        18.2147  -31.3037  -42.5471 H         1 UNK         0.1346 
     72 H72        20.2137  -29.4932  -45.8613 H         1 UNK         0.1412 
     73 H73        15.9214  -29.5459  -45.7159 H         1 UNK         0.1426 
     74 H74        18.5914  -29.2014  -48.0104 H         1 UNK         0.0716 
     75 H75        16.9738  -28.6805  -47.6432 H         1 UNK         0.0716 
     76 H76        20.5962  -28.1367  -47.5143 H         1 UNK         0.0695 
     77 H77        20.5765  -26.6126  -48.3236 H         1 UNK         0.0695 
     78 H78        21.2165  -25.3647  -46.4261 H         1 UNK         0.0983 
     79 H79        19.9984  -27.3863  -44.7846 H         1 UNK         0.3095 
     80 H80        21.0248  -27.3200  -42.2100 H         1 UNK         0.0454 
     81 H81        20.3315  -24.3914  -41.5906 H         1 UNK         0.0851 
     82 H82        20.3228  -25.6862  -40.3995 H         1 UNK         0.0851 
     83 H83        21.8277  -25.2204  -41.1747 H         1 UNK         0.0851 
     84 H84        18.5724  -26.1192  -43.2789 H         1 UNK         0.2976 
     85 H85        22.3781  -28.2331  -44.8918 H         1 UNK         0.3116 
     86 H86        24.8475  -28.4988  -46.4837 H         1 UNK         0.0646 
     87 H87        23.8772  -30.0911  -44.0386 H         1 UNK         0.0847 
     88 H88        23.4988  -30.5287  -45.7029 H         1 UNK         0.0847 
     89 H89        25.1583  -30.5461  -45.1512 H         1 UNK         0.0847 
     90 H90        26.7400  -29.1163  -44.7625 H         1 UNK         0.3040 
     91 H91        27.5739  -26.6651  -43.5499 H         1 UNK         0.1015 
     92 H92        28.7493  -29.4952  -43.3762 H         1 UNK         0.0786 
     93 H93        29.5795  -28.0149  -42.9191 H         1 UNK         0.0786 
     94 H94        29.1477  -28.2850  -44.5975 H         1 UNK         0.0786 
     95 H95        25.4679  -29.0181  -42.2839 H         1 UNK         0.3172 
     96 H96        25.7463  -27.9473  -39.5536 H         1 UNK         0.0595 
     97 H97        25.4560  -30.2535  -38.6114 H         1 UNK         0.0839 
     98 H98        26.9664  -30.1423  -39.5022 H         1 UNK         0.0839 
     99 H99        25.5726  -30.9478  -40.2223 H         1 UNK         0.0839 
    100 H100       23.7840  -27.9449  -38.4503 H         1 UNK         0.2998 
    101 H101       21.3395  -27.9895  -40.0583 H         1 UNK         0.0822 
    102 H102       20.3032  -27.1161  -37.9771 H         1 UNK         0.0787 
    103 H103       21.7906  -27.3908  -37.0797 H         1 UNK         0.0787 
    104 H104       21.7390  -26.1794  -38.3602 H         1 UNK         0.0787 
    105 H105       19.6237  -29.3721  -39.7486 H         1 UNK         0.3055 
    106 H106       18.5751  -31.3317  -39.5263 H         1 UNK         0.1106 
    107 H107       18.3458  -30.5635  -37.1585 H         1 UNK         0.0828 
    108 H108       18.3979  -32.3151  -37.2653 H         1 UNK         0.0828 
    109 H109       19.8175  -31.4322  -36.7253 H         1 UNK         0.0828 
    110 H110       20.7469  -31.5288  -41.0299 H         1 UNK         0.2931 
    111 H111       22.6855  -33.4198  -40.4572 H         1 UNK         0.0412 
    112 H112       21.7862  -36.6845  -41.5891 H         1 UNK         0.3472 
    113 H113       23.1278  -35.5987  -41.3392 H         1 UNK         0.3472 
    114 H114       22.9335  -31.7596  -42.2429 H         1 UNK         0.0970 
    115 H115       23.2033  -33.3531  -42.8697 H         1 UNK         0.0970 
    116 H116       21.4667  -30.0372  -43.8665 H         1 UNK         0.0612 
    117 H117       20.6279  -30.4906  -42.4115 H         1 UNK         0.0612 
@<TRIPOS>BOND
     1    1    2 1    
     2    1   62 1    
     3    1   63 1    
     4    1   64 1    
     5    2    3 2    
     6    2    4 am   BACKBONE|DICT|INTERRES
     7    4    5 1    
     8    4   65 1    
     9    5    6 1    
    10    5   25 1    
    11    5   66 1    
    12    6    7 1    
    13    6   67 1    
    14    6   68 1    
    15    7    8 1    
    16    8    9 1    
    17    8   69 1    
    18    8   70 1    
    19    9   10 ar   
    20    9   14 ar   
    21   10   11 ar   
    22   10   71 1    
    23   11   12 ar   
    24   11   61 1    
    25   12   13 ar   
    26   12   72 1    
    27   13   14 ar   
    28   13   15 1    
    29   14   73 1    
    30   15   16 1    
    31   15   74 1    
    32   15   75 1    
    33   16   17 1    
    34   17   18 1    
    35   17   76 1    
    36   17   77 1    
    37   18   19 1    
    38   18   27 1    
    39   18   78 1    
    40   19   20 am   BACKBONE|DICT|INTERRES
    41   19   79 1    
    42   20   21 2    
    43   20   22 1    
    44   22   23 1    
    45   22   24 1    
    46   22   80 1    
    47   23   81 1    
    48   23   82 1    
    49   23   83 1    
    50   24   25 am   BACKBONE|DICT|INTERRES
    51   24   84 1    
    52   25   26 2    
    53   27   28 2    
    54   27   29 am   BACKBONE|DICT|INTERRES
    55   29   30 1    
    56   29   85 1    
    57   30   31 1    
    58   30   32 1    
    59   30   86 1    
    60   31   87 1    
    61   31   88 1    
    62   31   89 1    
    63   32   33 2    
    64   32   34 am   BACKBONE|DICT|INTERRES
    65   34   35 1    
    66   34   90 1    
    67   35   36 1    
    68   35   37 1    
    69   35   91 1    
    70   36   92 1    
    71   36   93 1    
    72   36   94 1    
    73   37   38 2    
    74   37   39 am   BACKBONE|DICT|INTERRES
    75   39   40 1    
    76   39   95 1    
    77   40   41 1    
    78   40   42 1    
    79   40   96 1    
    80   41   97 1    
    81   41   98 1    
    82   41   99 1    
    83   42   43 2    
    84   42   44 am   BACKBONE|DICT|INTERRES
    85   44   45 1    
    86   44  100 1    
    87   45   46 1    
    88   45   47 1    
    89   45  101 1    
    90   46  102 1    
    91   46  103 1    
    92   46  104 1    
    93   47   48 2    
    94   47   49 am   BACKBONE|DICT|INTERRES
    95   49   50 1    
    96   49  105 1    
    97   50   51 1    
    98   50   52 1    
    99   50  106 1    
   100   51  107 1    
   101   51  108 1    
   102   51  109 1    
   103   52   53 2    
   104   52   54 am   BACKBONE|DICT|INTERRES
   105   54   55 1    
   106   54  110 1    
   107   55   56 1    
   108   55   59 1    
   109   55  111 1    
   110   56   57 am   BACKBONE|DICT|INTERRES
   111   56   58 2    
   112   57  112 1    
   113   57  113 1    
   114   59   60 1    
   115   59  114 1    
   116   59  115 1    
   117   60   61 1    
   118   61  116 1    
   119   61  117 1    
@<TRIPOS>SUBSTRUCTURE
     1 UNK         1 GROUP             0       ****    0 ROOT    
