@<TRIPOS>MOLECULE
3R8
117   119    1
SMALL
USER_CHARGES


@<TRIPOS>ATOM
      1 CA         24.2848  -29.1955  -46.5975 C.3       0 UNK        -0.2013 
      2 C          22.8494  -29.4788  -46.1797 C.2       0 UNK         0.4866 
      3 O          22.3312  -30.5569  -46.4693 O.2       0 UNK        -0.5176 
      4 N          22.2140  -28.5209  -45.4973 N.am      1 UNK        -0.4884 
      5 CA         20.8422  -28.6023  -44.9981 C.3       1 UNK         0.0853 
      6 C6         19.9238  -27.5846  -45.7223 C.3       10 UNK        -0.0849 
      7 S7         19.4525  -28.2036  -47.3733 S.3       10 UNK        -0.2776 
      8 C8         17.6327  -28.3205  -47.2677 C.3       10 UNK         0.0316 
      9 C9         17.1304  -28.9875  -45.9907 C.ar      10 UNK        -0.0863 
     10 C10        17.5840  -30.2552  -45.6143 C.ar      10 UNK        -0.1009 
     11 C11        17.1347  -30.8509  -44.4313 C.ar      10 UNK        -0.0712 
     12 C12        16.2007  -30.1782  -43.6346 C.ar      10 UNK        -0.0894 
     13 C13        15.7144  -28.9232  -44.0180 C.ar      10 UNK        -0.0745 
     14 C14        16.1924  -28.3307  -45.1897 C.ar      10 UNK        -0.0972 
     15 C15        14.6206  -28.2337  -43.2115 C.3       10 UNK         0.0209 
     16 S16        15.2265  -27.4786  -41.6712 S.3       10 UNK        -0.2568 
     17 C17        16.2606  -26.0957  -42.2705 C.3       10 UNK        -0.0983 
     18 CA         17.6094  -26.0459  -41.5151 C.3       3 UNK         0.0876 
     19 N          18.3582  -27.2966  -41.6656 N.am      3 UNK        -0.4424 
     20 C          19.3356  -27.7073  -40.8493 C.2       2 UNK         0.4918 
     21 O          19.7173  -27.0758  -39.8653 O.2       2 UNK        -0.4875 
     22 CA         20.0491  -29.0069  -41.2466 C.3       2 UNK         0.0481 
     23 CB         19.2947  -30.2134  -40.6728 C.3       2 UNK        -0.1831 
     24 N          20.1911  -29.1583  -42.6995 N.am      2 UNK        -0.4498 
     25 C          20.8785  -28.3226  -43.4901 C.2       1 UNK         0.5027 
     26 O          21.4834  -27.3311  -43.0731 O.2       1 UNK        -0.4969 
     27 C          18.4443  -24.7994  -41.8939 C.2       3 UNK         0.5005 
     28 O          18.0468  -23.6870  -41.5453 O.2       3 UNK        -0.5279 
     29 N          19.5977  -24.9987  -42.5522 N.am      4 UNK        -0.4463 
     30 CA         20.6267  -23.9830  -42.7961 C.3       4 UNK         0.0283 
     31 CB         21.1363  -24.1192  -44.2422 C.3       4 UNK        -0.1875 
     32 C          21.7873  -24.0919  -41.7833 C.2       4 UNK         0.4949 
     33 O          22.8046  -23.4236  -41.9673 O.2       4 UNK        -0.5039 
     34 N          21.6204  -24.9229  -40.7411 N.am      5 UNK        -0.4663 
     35 CA         22.5502  -25.1959  -39.6393 C.3       5 UNK         0.0242 
     36 CB         22.8365  -23.9172  -38.8214 C.3       5 UNK        -0.1982 
     37 C          23.8324  -25.9439  -40.0546 C.2       5 UNK         0.5017 
     38 O          24.8366  -25.8487  -39.3456 O.2       5 UNK        -0.5012 
     39 N          23.7892  -26.6960  -41.1643 N.am      6 UNK        -0.4439 
     40 CA         24.8803  -27.5805  -41.5791 C.3       6 UNK         0.0297 
     41 CB         24.7740  -27.8605  -43.0856 C.3       6 UNK        -0.2006 
     42 C          24.8293  -28.9015  -40.7965 C.2       6 UNK         0.4892 
     43 O          23.7396  -29.4025  -40.5070 O.2       6 UNK        -0.5089 
     44 N          26.0059  -29.4794  -40.5260 N.am      7 UNK        -0.4243 
     45 CA         26.1691  -30.8057  -39.9231 C.3       7 UNK         0.0196 
     46 CB         27.5345  -30.8685  -39.2128 C.3       7 UNK        -0.2007 
     47 C          26.0039  -31.9006  -40.9945 C.2       7 UNK         0.5020 
     48 O          26.9729  -32.5752  -41.3474 O.2       7 UNK        -0.5147 
     49 N          24.7850  -32.0085  -41.5312 N.am      8 UNK        -0.4734 
     50 CA         24.4197  -32.8750  -42.6478 C.3       8 UNK         0.0238 
     51 CB         24.0773  -31.9861  -43.8616 C.3       8 UNK        -0.1912 
     52 C          23.2876  -33.8166  -42.2090 C.2       8 UNK         0.5038 
     53 O          23.5370  -34.7123  -41.4001 O.2       8 UNK        -0.5046 
     54 N          22.0836  -33.6165  -42.7583 N.am      9 UNK        -0.4200 
     55 CA         20.8539  -34.3671  -42.4664 C.3       9 UNK         0.0839 
     56 C          20.3647  -34.2690  -40.9911 C.2       9 UNK         0.5513 
     57 N          19.4437  -35.1354  -40.5903 N.am      9 UNK        -0.7519 
     58 O          20.7951  -33.4232  -40.2107 O.2       9 UNK        -0.4960 
     59 C59        19.7399  -34.0245  -43.4959 C.3       10 UNK        -0.0876 
     60 S60        19.4107  -32.2349  -43.6737 S.3       10 UNK        -0.2414 
     61 C61        17.6308  -32.2381  -44.0463 C.3       10 UNK         0.0169 
     62 H62        24.9531  -29.9546  -46.1927 H         1 UNK         0.0903 
     63 H63        24.3676  -29.2151  -47.6838 H         1 UNK         0.0903 
     64 H64        24.6280  -28.2214  -46.2497 H         1 UNK         0.0903 
     65 H65        22.7018  -27.6733  -45.2420 H         1 UNK         0.3096 
     66 H66        20.4433  -29.6095  -45.1396 H         1 UNK         0.1121 
     67 H67        19.0259  -27.3687  -45.1416 H         1 UNK         0.0849 
     68 H68        20.4265  -26.6241  -45.8446 H         1 UNK         0.0849 
     69 H69        17.2218  -27.3142  -47.3633 H         1 UNK         0.0865 
     70 H70        17.2650  -28.8816  -48.1277 H         1 UNK         0.0865 
     71 H71        18.2985  -30.7756  -46.2382 H         1 UNK         0.1346 
     72 H72        15.8286  -30.6405  -42.7303 H         1 UNK         0.1412 
     73 H73        15.8158  -27.3619  -45.4893 H         1 UNK         0.1426 
     74 H74        13.8522  -28.9658  -42.9587 H         1 UNK         0.0716 
     75 H75        14.1204  -27.4699  -43.8092 H         1 UNK         0.0716 
     76 H76        15.6998  -25.1715  -42.1188 H         1 UNK         0.0695 
     77 H77        16.4251  -26.1810  -43.3451 H         1 UNK         0.0695 
     78 H78        17.3801  -25.9320  -40.4527 H         1 UNK         0.0983 
     79 H79        18.0802  -27.8934  -42.4310 H         1 UNK         0.3095 
     80 H80        21.0501  -28.9860  -40.8117 H         1 UNK         0.0454 
     81 H81        18.2941  -30.3099  -41.0963 H         1 UNK         0.0851 
     82 H82        19.1877  -30.1316  -39.5904 H         1 UNK         0.0851 
     83 H83        19.8328  -31.1374  -40.8721 H         1 UNK         0.0851 
     84 H84        19.7334  -29.9623  -43.1113 H         1 UNK         0.2976 
     85 H85        19.8745  -25.9483  -42.7685 H         1 UNK         0.3116 
     86 H86        20.1984  -22.9849  -42.6853 H         1 UNK         0.0646 
     87 H87        21.6837  -25.0492  -44.3941 H         1 UNK         0.0847 
     88 H88        21.8146  -23.3030  -44.4938 H         1 UNK         0.0847 
     89 H89        20.3158  -24.0874  -44.9590 H         1 UNK         0.0847 
     90 H90        20.7537  -25.4445  -40.6861 H         1 UNK         0.3040 
     91 H91        22.0236  -25.8852  -38.9774 H         1 UNK         0.1015 
     92 H92        21.9129  -23.4185  -38.5277 H         1 UNK         0.0786 
     93 H93        23.4412  -23.2036  -39.3816 H         1 UNK         0.0786 
     94 H94        23.3799  -24.1514  -37.9051 H         1 UNK         0.0786 
     95 H95        22.9198  -26.7695  -41.6828 H         1 UNK         0.3172 
     96 H96        25.8339  -27.0825  -41.3903 H         1 UNK         0.0595 
     97 H97        23.9157  -28.4921  -43.3108 H         1 UNK         0.0839 
     98 H98        25.6597  -28.3842  -43.4474 H         1 UNK         0.0839 
     99 H99        24.6817  -26.9389  -43.6603 H         1 UNK         0.0839 
    100 H100       26.8523  -29.0219  -40.8339 H         1 UNK         0.2998 
    101 H101       25.3939  -30.9596  -39.1688 H         1 UNK         0.0822 
    102 H102       27.6062  -30.1170  -38.4262 H         1 UNK         0.0787 
    103 H103       27.6852  -31.8419  -38.7440 H         1 UNK         0.0787 
    104 H104       28.3615  -30.7082  -39.9058 H         1 UNK         0.0787 
    105 H105       24.0557  -31.4036  -41.1671 H         1 UNK         0.3055 
    106 H106       25.2581  -33.5172  -42.9272 H         1 UNK         0.1106 
    107 H107       23.7760  -32.5833  -44.7237 H         1 UNK         0.0828 
    108 H108       23.2755  -31.2793  -43.6431 H         1 UNK         0.0828 
    109 H109       24.9468  -31.4050  -44.1685 H         1 UNK         0.0828 
    110 H110       21.9680  -32.8407  -43.3926 H         1 UNK         0.2931 
    111 H111       21.1115  -35.4176  -42.6157 H         1 UNK         0.0412 
    112 H112       19.0848  -35.8447  -41.2103 H         1 UNK         0.3472 
    113 H113       19.1107  -35.0875  -39.6398 H         1 UNK         0.3472 
    114 H114       20.0315  -34.4003  -44.4778 H         1 UNK         0.0970 
    115 H115       18.8134  -34.5477  -43.2531 H         1 UNK         0.0970 
    116 H116       17.4356  -32.9267  -44.8697 H         1 UNK         0.0612 
    117 H117       17.0866  -32.6203  -43.1811 H         1 UNK         0.0612 
@<TRIPOS>BOND
     1    1    2 1    
     2    1   62 1    
     3    1   63 1    
     4    1   64 1    
     5    2    3 2    
     6    2    4 am   BACKBONE|DICT|INTERRES
     7    4    5 1    
     8    4   65 1    
     9    5    6 1    
    10    5   25 1    
    11    5   66 1    
    12    6    7 1    
    13    6   67 1    
    14    6   68 1    
    15    7    8 1    
    16    8    9 1    
    17    8   69 1    
    18    8   70 1    
    19    9   10 ar   
    20    9   14 ar   
    21   10   11 ar   
    22   10   71 1    
    23   11   12 ar   
    24   11   61 1    
    25   12   13 ar   
    26   12   72 1    
    27   13   14 ar   
    28   13   15 1    
    29   14   73 1    
    30   15   16 1    
    31   15   74 1    
    32   15   75 1    
    33   16   17 1    
    34   17   18 1    
    35   17   76 1    
    36   17   77 1    
    37   18   19 1    
    38   18   27 1    
    39   18   78 1    
    40   19   20 am   BACKBONE|DICT|INTERRES
    41   19   79 1    
    42   20   21 2    
    43   20   22 1    
    44   22   23 1    
    45   22   24 1    
    46   22   80 1    
    47   23   81 1    
    48   23   82 1    
    49   23   83 1    
    50   24   25 am   BACKBONE|DICT|INTERRES
    51   24   84 1    
    52   25   26 2    
    53   27   28 2    
    54   27   29 am   BACKBONE|DICT|INTERRES
    55   29   30 1    
    56   29   85 1    
    57   30   31 1    
    58   30   32 1    
    59   30   86 1    
    60   31   87 1    
    61   31   88 1    
    62   31   89 1    
    63   32   33 2    
    64   32   34 am   BACKBONE|DICT|INTERRES
    65   34   35 1    
    66   34   90 1    
    67   35   36 1    
    68   35   37 1    
    69   35   91 1    
    70   36   92 1    
    71   36   93 1    
    72   36   94 1    
    73   37   38 2    
    74   37   39 am   BACKBONE|DICT|INTERRES
    75   39   40 1    
    76   39   95 1    
    77   40   41 1    
    78   40   42 1    
    79   40   96 1    
    80   41   97 1    
    81   41   98 1    
    82   41   99 1    
    83   42   43 2    
    84   42   44 am   BACKBONE|DICT|INTERRES
    85   44   45 1    
    86   44  100 1    
    87   45   46 1    
    88   45   47 1    
    89   45  101 1    
    90   46  102 1    
    91   46  103 1    
    92   46  104 1    
    93   47   48 2    
    94   47   49 am   BACKBONE|DICT|INTERRES
    95   49   50 1    
    96   49  105 1    
    97   50   51 1    
    98   50   52 1    
    99   50  106 1    
   100   51  107 1    
   101   51  108 1    
   102   51  109 1    
   103   52   53 2    
   104   52   54 am   BACKBONE|DICT|INTERRES
   105   54   55 1    
   106   54  110 1    
   107   55   56 1    
   108   55   59 1    
   109   55  111 1    
   110   56   57 am   BACKBONE|DICT|INTERRES
   111   56   58 2    
   112   57  112 1    
   113   57  113 1    
   114   59   60 1    
   115   59  114 1    
   116   59  115 1    
   117   60   61 1    
   118   61  116 1    
   119   61  117 1    
@<TRIPOS>SUBSTRUCTURE
     1 UNK         1 GROUP             0       ****    0 ROOT    
