@<TRIPOS>MOLECULE
3R8
117   119    1
SMALL
USER_CHARGES


@<TRIPOS>ATOM
      1 CA         19.2954  -28.4647  -40.9645 C.3       0 UNK        -0.2013 
      2 C          18.6073  -27.1298  -41.1927 C.2       0 UNK         0.4866 
      3 O          18.0251  -26.5719  -40.2618 O.2       0 UNK        -0.5176 
      4 N          18.6770  -26.6147  -42.4215 N.am      1 UNK        -0.4884 
      5 CA         18.1483  -25.3128  -42.8249 C.3       1 UNK         0.0853 
      6 C6         16.7261  -25.4181  -43.4493 C.3       10 UNK        -0.0849 
      7 S7         16.6124  -26.4550  -44.9556 S.3       10 UNK        -0.2776 
      8 C8         15.9160  -28.0263  -44.3311 C.3       10 UNK         0.0316 
      9 C9         16.7355  -29.2444  -44.7503 C.ar      10 UNK        -0.0863 
     10 C10        16.9993  -30.2608  -43.8264 C.ar      10 UNK        -0.1009 
     11 C11        17.7612  -31.3797  -44.1874 C.ar      10 UNK        -0.0712 
     12 C12        18.2607  -31.4719  -45.4907 C.ar      10 UNK        -0.0894 
     13 C13        17.9955  -30.4716  -46.4293 C.ar      10 UNK        -0.0745 
     14 C14        17.2132  -29.3748  -46.0586 C.ar      10 UNK        -0.0972 
     15 C15        18.5419  -30.5856  -47.8461 C.3       10 UNK         0.0209 
     16 S16        20.2459  -29.9489  -47.9850 S.3       10 UNK        -0.2568 
     17 C17        19.9941  -28.1423  -47.8326 C.3       10 UNK        -0.0983 
     18 CA         20.7787  -27.3986  -46.7120 C.3       3 UNK         0.0876 
     19 N          20.1220  -26.1361  -46.3923 N.am      3 UNK        -0.4424 
     20 C          20.6299  -24.9083  -46.5405 C.2       2 UNK         0.4918 
     21 O          21.6960  -24.6679  -47.1070 O.2       2 UNK        -0.4875 
     22 CA         19.8106  -23.7465  -45.9400 C.3       2 UNK         0.0481 
     23 CB         19.0328  -23.0129  -47.0438 C.3       2 UNK        -0.1831 
     24 N          18.8705  -24.1944  -44.9059 N.am      2 UNK        -0.4498 
     25 C          19.2252  -24.6231  -43.6862 C.2       1 UNK         0.5027 
     26 O          20.3698  -24.5161  -43.2420 O.2       1 UNK        -0.4969 
     27 C          20.9179  -28.1577  -45.3742 C.2       3 UNK         0.5005 
     28 O          20.0976  -27.9636  -44.4716 O.2       3 UNK        -0.5279 
     29 N          21.9847  -28.9645  -45.2587 N.am      4 UNK        -0.4463 
     30 CA         22.3893  -29.7395  -44.0755 C.3       4 UNK         0.0283 
     31 CB         21.3724  -30.8567  -43.7733 C.3       4 UNK        -0.1875 
     32 C          22.7153  -28.8750  -42.8388 C.2       4 UNK         0.4949 
     33 O          22.5830  -29.3431  -41.7053 O.2       4 UNK        -0.5039 
     34 N          23.1666  -27.6357  -43.0812 N.am      5 UNK        -0.4663 
     35 CA         23.6417  -26.6916  -42.0683 C.3       5 UNK         0.0242 
     36 CB         23.9207  -25.3370  -42.7384 C.3       5 UNK        -0.1982 
     37 C          24.9071  -27.2128  -41.3679 C.2       5 UNK         0.5017 
     38 O          25.7222  -27.8829  -42.0070 O.2       5 UNK        -0.5012 
     39 N          25.0348  -26.9206  -40.0660 N.am      6 UNK        -0.4439 
     40 CA         26.0759  -27.3703  -39.1241 C.3       6 UNK         0.0297 
     41 CB         27.4843  -26.9251  -39.5651 C.3       6 UNK        -0.2006 
     42 C          26.0402  -28.8797  -38.8078 C.2       6 UNK         0.4892 
     43 O          26.2412  -29.2517  -37.6514 O.2       6 UNK        -0.5089 
     44 N          25.7543  -29.7147  -39.8154 N.am      7 UNK        -0.4243 
     45 CA         25.5030  -31.1520  -39.6903 C.3       7 UNK         0.0196 
     46 CB         25.4870  -31.7835  -41.0920 C.3       7 UNK        -0.2007 
     47 C          24.1909  -31.4673  -38.9513 C.2       7 UNK         0.5020 
     48 O          24.0916  -32.5272  -38.3326 O.2       7 UNK        -0.5147 
     49 N          23.2081  -30.5566  -39.0461 N.am      8 UNK        -0.4734 
     50 CA         21.8822  -30.6036  -38.4133 C.3       8 UNK         0.0238 
     51 CB         22.0080  -30.4448  -36.8833 C.3       8 UNK        -0.1912 
     52 C          21.0647  -31.8437  -38.8230 C.2       8 UNK         0.5038 
     53 O          20.3338  -32.4006  -38.0016 O.2       8 UNK        -0.5046 
     54 N          21.2329  -32.2567  -40.0863 N.am      9 UNK        -0.4200 
     55 CA         20.6516  -33.4636  -40.6993 C.3       9 UNK         0.0839 
     56 C          21.2125  -34.8075  -40.1408 C.2       9 UNK         0.5513 
     57 N          22.3001  -34.8153  -39.3775 N.am      9 UNK        -0.7519 
     58 O          20.6732  -35.8718  -40.4331 O.2       9 UNK        -0.4960 
     59 C59        19.0955  -33.4408  -40.7542 C.3       10 UNK        -0.0876 
     60 S60        18.4479  -31.9195  -41.5253 S.3       10 UNK        -0.2414 
     61 C61        18.0365  -32.5095  -43.1980 C.3       10 UNK         0.0169 
     62 H62        18.6895  -29.1022  -40.3216 H         1 UNK         0.0903 
     63 H63        20.2619  -28.3103  -40.4870 H         1 UNK         0.0903 
     64 H64        19.4603  -28.9913  -41.9038 H         1 UNK         0.0903 
     65 H65        19.1909  -27.1158  -43.1492 H         1 UNK         0.3096 
     66 H66        18.0640  -24.6767  -41.9408 H         1 UNK         0.1121 
     67 H67        16.3507  -24.4224  -43.6921 H         1 UNK         0.0849 
     68 H68        16.0318  -25.7959  -42.6977 H         1 UNK         0.0849 
     69 H69        15.8381  -27.9898  -43.2439 H         1 UNK         0.0865 
     70 H70        14.8990  -28.1373  -44.7088 H         1 UNK         0.0865 
     71 H71        16.6114  -30.1807  -42.8205 H         1 UNK         0.1346 
     72 H72        18.8563  -32.3267  -45.7803 H         1 UNK         0.1412 
     73 H73        16.9864  -28.6085  -46.7858 H         1 UNK         0.1426 
     74 H74        17.8963  -30.0592  -48.5509 H         1 UNK         0.0716 
     75 H75        18.5345  -31.6317  -48.1558 H         1 UNK         0.0716 
     76 H76        18.9275  -27.9536  -47.7216 H         1 UNK         0.0695 
     77 H77        20.2516  -27.6961  -48.7941 H         1 UNK         0.0695 
     78 H78        21.7895  -27.2058  -47.0782 H         1 UNK         0.0983 
     79 H79        19.2812  -26.2411  -45.8405 H         1 UNK         0.3095 
     80 H80        20.5126  -23.0422  -45.4890 H         1 UNK         0.0454 
     81 H81        18.4952  -22.1521  -46.6460 H         1 UNK         0.0851 
     82 H82        18.3084  -23.6664  -47.5317 H         1 UNK         0.0851 
     83 H83        19.7083  -22.6420  -47.8159 H         1 UNK         0.0851 
     84 H84        17.9130  -24.3434  -45.1966 H         1 UNK         0.2976 
     85 H85        22.5895  -29.0635  -46.0630 H         1 UNK         0.3116 
     86 H86        23.3284  -30.2252  -44.3439 H         1 UNK         0.0646 
     87 H87        20.4136  -30.4512  -43.4538 H         1 UNK         0.0847 
     88 H88        21.7319  -31.5109  -42.9803 H         1 UNK         0.0847 
     89 H89        21.1950  -31.4788  -44.6499 H         1 UNK         0.0847 
     90 H90        23.2658  -27.3507  -44.0434 H         1 UNK         0.3040 
     91 H91        22.8460  -26.5677  -41.3304 H         1 UNK         0.1015 
     92 H92        24.7158  -25.4103  -43.4818 H         1 UNK         0.0786 
     93 H93        24.2294  -24.5927  -42.0030 H         1 UNK         0.0786 
     94 H94        23.0322  -24.9486  -43.2361 H         1 UNK         0.0786 
     95 H95        24.3000  -26.3706  -39.6413 H         1 UNK         0.3172 
     96 H96        25.8556  -26.8558  -38.1872 H         1 UNK         0.0595 
     97 H97        27.8084  -27.4262  -40.4775 H         1 UNK         0.0839 
     98 H98        28.2211  -27.1555  -38.7944 H         1 UNK         0.0839 
     99 H99        27.5246  -25.8500  -39.7400 H         1 UNK         0.0839 
    100 H100       25.6535  -29.3034  -40.7393 H         1 UNK         0.2998 
    101 H101       26.3216  -31.5929  -39.1175 H         1 UNK         0.0822 
    102 H102       26.4366  -31.6324  -41.6056 H         1 UNK         0.0787 
    103 H103       25.3180  -32.8598  -41.0339 H         1 UNK         0.0787 
    104 H104       24.6976  -31.3619  -41.7159 H         1 UNK         0.0787 
    105 H105       23.3549  -29.7812  -39.6821 H         1 UNK         0.3055 
    106 H106       21.3288  -29.7429  -38.7909 H         1 UNK         0.1106 
    107 H107       21.0268  -30.3474  -36.4171 H         1 UNK         0.0828 
    108 H108       22.5007  -31.3041  -36.4271 H         1 UNK         0.0828 
    109 H109       22.5792  -29.5538  -36.6227 H         1 UNK         0.0828 
    110 H110       21.8561  -31.7196  -40.6720 H         1 UNK         0.2931 
    111 H111       20.9991  -33.4438  -41.7324 H         1 UNK         0.0412 
    112 H112       22.7615  -33.9542  -39.1088 H         1 UNK         0.3472 
    113 H113       22.6527  -35.6961  -39.0378 H         1 UNK         0.3472 
    114 H114       18.6762  -33.5207  -39.7503 H         1 UNK         0.0970 
    115 H115       18.7154  -34.3047  -41.3022 H         1 UNK         0.0970 
    116 H116       18.8628  -33.1258  -43.5561 H         1 UNK         0.0612 
    117 H117       17.1601  -33.1563  -43.1437 H         1 UNK         0.0612 
@<TRIPOS>BOND
     1    1    2 1    
     2    1   62 1    
     3    1   63 1    
     4    1   64 1    
     5    2    3 2    
     6    2    4 am   BACKBONE|DICT|INTERRES
     7    4    5 1    
     8    4   65 1    
     9    5    6 1    
    10    5   25 1    
    11    5   66 1    
    12    6    7 1    
    13    6   67 1    
    14    6   68 1    
    15    7    8 1    
    16    8    9 1    
    17    8   69 1    
    18    8   70 1    
    19    9   10 ar   
    20    9   14 ar   
    21   10   11 ar   
    22   10   71 1    
    23   11   12 ar   
    24   11   61 1    
    25   12   13 ar   
    26   12   72 1    
    27   13   14 ar   
    28   13   15 1    
    29   14   73 1    
    30   15   16 1    
    31   15   74 1    
    32   15   75 1    
    33   16   17 1    
    34   17   18 1    
    35   17   76 1    
    36   17   77 1    
    37   18   19 1    
    38   18   27 1    
    39   18   78 1    
    40   19   20 am   BACKBONE|DICT|INTERRES
    41   19   79 1    
    42   20   21 2    
    43   20   22 1    
    44   22   23 1    
    45   22   24 1    
    46   22   80 1    
    47   23   81 1    
    48   23   82 1    
    49   23   83 1    
    50   24   25 am   BACKBONE|DICT|INTERRES
    51   24   84 1    
    52   25   26 2    
    53   27   28 2    
    54   27   29 am   BACKBONE|DICT|INTERRES
    55   29   30 1    
    56   29   85 1    
    57   30   31 1    
    58   30   32 1    
    59   30   86 1    
    60   31   87 1    
    61   31   88 1    
    62   31   89 1    
    63   32   33 2    
    64   32   34 am   BACKBONE|DICT|INTERRES
    65   34   35 1    
    66   34   90 1    
    67   35   36 1    
    68   35   37 1    
    69   35   91 1    
    70   36   92 1    
    71   36   93 1    
    72   36   94 1    
    73   37   38 2    
    74   37   39 am   BACKBONE|DICT|INTERRES
    75   39   40 1    
    76   39   95 1    
    77   40   41 1    
    78   40   42 1    
    79   40   96 1    
    80   41   97 1    
    81   41   98 1    
    82   41   99 1    
    83   42   43 2    
    84   42   44 am   BACKBONE|DICT|INTERRES
    85   44   45 1    
    86   44  100 1    
    87   45   46 1    
    88   45   47 1    
    89   45  101 1    
    90   46  102 1    
    91   46  103 1    
    92   46  104 1    
    93   47   48 2    
    94   47   49 am   BACKBONE|DICT|INTERRES
    95   49   50 1    
    96   49  105 1    
    97   50   51 1    
    98   50   52 1    
    99   50  106 1    
   100   51  107 1    
   101   51  108 1    
   102   51  109 1    
   103   52   53 2    
   104   52   54 am   BACKBONE|DICT|INTERRES
   105   54   55 1    
   106   54  110 1    
   107   55   56 1    
   108   55   59 1    
   109   55  111 1    
   110   56   57 am   BACKBONE|DICT|INTERRES
   111   56   58 2    
   112   57  112 1    
   113   57  113 1    
   114   59   60 1    
   115   59  114 1    
   116   59  115 1    
   117   60   61 1    
   118   61  116 1    
   119   61  117 1    
@<TRIPOS>SUBSTRUCTURE
     1 UNK         1 GROUP             0       ****    0 ROOT    
