@<TRIPOS>MOLECULE
3R8
117   119    1
SMALL
USER_CHARGES


@<TRIPOS>ATOM
      1 CA         23.9676  -23.3842  -46.8466 C.3       0 UNK        -0.2013 
      2 C          23.3757  -24.1047  -45.6446 C.2       0 UNK         0.4866 
      3 O          23.2648  -23.5124  -44.5713 O.2       0 UNK        -0.5176 
      4 N          22.9996  -25.3800  -45.8155 N.am      1 UNK        -0.4884 
      5 CA         22.3855  -26.2176  -44.7776 C.3       1 UNK         0.0853 
      6 C6         22.3905  -27.7104  -45.1935 C.3       10 UNK        -0.0849 
      7 S7         22.2392  -28.8511  -43.7797 S.3       10 UNK        -0.2776 
      8 C8         21.6758  -30.3744  -44.6111 C.3       10 UNK         0.0316 
      9 C9         20.3142  -30.8112  -44.0960 C.ar      10 UNK        -0.0863 
     10 C10        20.1898  -31.2944  -42.7920 C.ar      10 UNK        -0.1009 
     11 C11        18.9462  -31.6783  -42.2839 C.ar      10 UNK        -0.0712 
     12 C12        17.8175  -31.5860  -43.1042 C.ar      10 UNK        -0.0894 
     13 C13        17.9270  -31.1061  -44.4142 C.ar      10 UNK        -0.0745 
     14 C14        19.1811  -30.7311  -44.9091 C.ar      10 UNK        -0.0972 
     15 C15        16.6844  -30.9503  -45.2801 C.3       10 UNK         0.0209 
     16 S16        16.3568  -29.2053  -45.6995 S.3       10 UNK        -0.2568 
     17 C17        16.1158  -28.4466  -44.0540 C.3       10 UNK        -0.0983 
     18 CA         17.4260  -27.8579  -43.4564 C.3       3 UNK         0.0876 
     19 N          18.1332  -26.9408  -44.3577 N.am      3 UNK        -0.4424 
     20 C          17.7593  -25.7048  -44.7163 C.2       2 UNK         0.4918 
     21 O          16.6496  -25.2285  -44.4744 O.2       2 UNK        -0.4875 
     22 CA         18.8181  -24.8306  -45.4258 C.3       2 UNK         0.0481 
     23 CB         18.8459  -23.4032  -44.8412 C.3       2 UNK        -0.1831 
     24 N          20.1846  -25.3815  -45.4525 N.am      2 UNK        -0.4498 
     25 C          20.9657  -25.7315  -44.4149 C.2       1 UNK         0.5027 
     26 O          20.6032  -25.7020  -43.2346 O.2       1 UNK        -0.4969 
     27 C          17.2390  -27.2525  -42.0438 C.2       3 UNK         0.5005 
     28 O          16.2555  -27.5623  -41.3679 O.2       3 UNK        -0.5279 
     29 N          18.1804  -26.3887  -41.6310 N.am      4 UNK        -0.4463 
     30 CA         18.1318  -25.6239  -40.3844 C.3       4 UNK         0.0283 
     31 CB         17.7350  -24.1703  -40.6920 C.3       4 UNK        -0.1875 
     32 C          19.4647  -25.6709  -39.6280 C.2       4 UNK         0.4949 
     33 O          19.4461  -25.7358  -38.3988 O.2       4 UNK        -0.5039 
     34 N          20.5960  -25.6465  -40.3501 N.am      5 UNK        -0.4663 
     35 CA         21.9359  -25.7101  -39.7540 C.3       5 UNK         0.0242 
     36 CB         22.9693  -25.1978  -40.7692 C.3       5 UNK        -0.1982 
     37 C          22.3142  -27.1247  -39.2844 C.2       5 UNK         0.5017 
     38 O          23.1456  -27.2573  -38.3865 O.2       5 UNK        -0.5012 
     39 N          21.7121  -28.1441  -39.9181 N.am      6 UNK        -0.4439 
     40 CA         21.9132  -29.5826  -39.6981 C.3       6 UNK         0.0297 
     41 CB         21.4183  -30.0023  -38.2983 C.3       6 UNK        -0.2006 
     42 C          23.3484  -30.0695  -39.9933 C.2       6 UNK         0.4892 
     43 O          23.7672  -31.0966  -39.4581 O.2       6 UNK        -0.5089 
     44 N          24.0681  -29.3317  -40.8505 N.am      7 UNK        -0.4243 
     45 CA         25.4863  -29.5179  -41.1693 C.3       7 UNK         0.0196 
     46 CB         25.9600  -28.3271  -42.0192 C.3       7 UNK        -0.2007 
     47 C          25.8184  -30.8430  -41.8760 C.2       7 UNK         0.5020 
     48 O          26.9390  -31.3334  -41.7347 O.2       7 UNK        -0.5147 
     49 N          24.8536  -31.3928  -42.6211 N.am      8 UNK        -0.4734 
     50 CA         24.9863  -32.6444  -43.3694 C.3       8 UNK         0.0238 
     51 CB         25.4113  -32.3343  -44.8190 C.3       8 UNK        -0.1912 
     52 C          23.6956  -33.4740  -43.2805 C.2       8 UNK         0.5038 
     53 O          23.2870  -34.0742  -44.2759 O.2       8 UNK        -0.5046 
     54 N          23.0548  -33.4649  -42.1031 N.am      9 UNK        -0.4200 
     55 CA         21.8314  -34.2319  -41.8228 C.3       9 UNK         0.0839 
     56 C          22.0757  -35.7673  -41.8047 C.2       9 UNK         0.5513 
     57 N          21.0847  -36.5587  -42.1902 N.am      9 UNK        -0.7519 
     58 O          23.1385  -36.2441  -41.4110 O.2       9 UNK        -0.4960 
     59 C59        21.1445  -33.7410  -40.5190 C.3       10 UNK        -0.0876 
     60 S60        19.3244  -33.8771  -40.6067 S.3       10 UNK        -0.2414 
     61 C61        18.8100  -32.1451  -40.8392 C.3       10 UNK         0.0169 
     62 H62        24.0148  -24.0261  -47.7261 H         1 UNK         0.0903 
     63 H63        23.3635  -22.5121  -47.0954 H         1 UNK         0.0903 
     64 H64        24.9781  -23.0451  -46.6201 H         1 UNK         0.0903 
     65 H65        23.1321  -25.8150  -46.7181 H         1 UNK         0.3096 
     66 H66        23.0039  -26.1112  -43.8853 H         1 UNK         0.1121 
     67 H67        23.3331  -27.9556  -45.6864 H         1 UNK         0.0849 
     68 H68        21.6084  -27.9151  -45.9275 H         1 UNK         0.0849 
     69 H69        21.6543  -30.2416  -45.6937 H         1 UNK         0.0865 
     70 H70        22.3975  -31.1683  -44.4290 H         1 UNK         0.0865 
     71 H71        21.0713  -31.3630  -42.1755 H         1 UNK         0.1346 
     72 H72        16.8487  -31.8677  -42.7145 H         1 UNK         0.1412 
     73 H73        19.2641  -30.3511  -45.9185 H         1 UNK         0.1426 
     74 H74        15.8062  -31.3696  -44.7867 H         1 UNK         0.0716 
     75 H75        16.8191  -31.5168  -46.2024 H         1 UNK         0.0716 
     76 H76        15.6898  -29.1964  -43.3850 H         1 UNK         0.0695 
     77 H77        15.3608  -27.6649  -44.1518 H         1 UNK         0.0695 
     78 H78        18.1162  -28.6834  -43.2923 H         1 UNK         0.0983 
     79 H79        19.0595  -27.2351  -44.6277 H         1 UNK         0.3095 
     80 H80        18.4999  -24.7584  -46.4666 H         1 UNK         0.0454 
     81 H81        19.1184  -23.4047  -43.7855 H         1 UNK         0.0851 
     82 H82        17.8711  -22.9213  -44.9245 H         1 UNK         0.0851 
     83 H83        19.5611  -22.7726  -45.3690 H         1 UNK         0.0851 
     84 H84        20.5910  -25.4620  -46.3744 H         1 UNK         0.2976 
     85 H85        18.9598  -26.1959  -42.2527 H         1 UNK         0.3116 
     86 H86        17.3781  -26.0470  -39.7169 H         1 UNK         0.0646 
     87 H87        18.4582  -23.6838  -41.3473 H         1 UNK         0.0847 
     88 H88        17.6731  -23.5798  -39.7769 H         1 UNK         0.0847 
     89 H89        16.7597  -24.1211  -41.1767 H         1 UNK         0.0847 
     90 H90        20.5550  -25.5663  -41.3629 H         1 UNK         0.3040 
     91 H91        21.9606  -25.0537  -38.8809 H         1 UNK         0.1015 
     92 H92        23.0448  -25.8593  -41.6307 H         1 UNK         0.0786 
     93 H93        23.9611  -25.1383  -40.3188 H         1 UNK         0.0786 
     94 H94        22.7163  -24.2009  -41.1314 H         1 UNK         0.0786 
     95 H95        21.0535  -27.8992  -40.6443 H         1 UNK         0.3172 
     96 H96        21.2726  -30.0738  -40.4252 H         1 UNK         0.0595 
     97 H97        22.0494  -29.5951  -37.5078 H         1 UNK         0.0839 
     98 H98        21.4216  -31.0874  -38.1883 H         1 UNK         0.0839 
     99 H99        20.3975  -29.6641  -38.1203 H         1 UNK         0.0839 
    100 H100       23.6181  -28.5299  -41.2667 H         1 UNK         0.2998 
    101 H101       26.0372  -29.5082  -40.2264 H         1 UNK         0.0822 
    102 H102       27.0218  -28.4127  -42.2549 H         1 UNK         0.0787 
    103 H103       25.4199  -28.2666  -42.9653 H         1 UNK         0.0787 
    104 H104       25.8225  -27.3825  -41.4923 H         1 UNK         0.0787 
    105 H105       23.9655  -30.9144  -42.6819 H         1 UNK         0.3055 
    106 H106       25.7628  -33.2644  -42.9151 H         1 UNK         0.1106 
    107 H107       25.5587  -33.2511  -45.3913 H         1 UNK         0.0828 
    108 H108       24.6624  -31.7383  -45.3410 H         1 UNK         0.0828 
    109 H109       26.3528  -31.7857  -44.8461 H         1 UNK         0.0828 
    110 H110       23.4836  -32.9893  -41.3215 H         1 UNK         0.2931 
    111 H111       21.1604  -34.0231  -42.6591 H         1 UNK         0.0412 
    112 H112       21.2155  -37.5583  -42.1736 H         1 UNK         0.3472 
    113 H113       20.1999  -36.1714  -42.4808 H         1 UNK         0.3472 
    114 H114       21.4995  -34.2967  -39.6487 H         1 UNK         0.0970 
    115 H115       21.4027  -32.7034  -40.3088 H         1 UNK         0.0970 
    116 H116       19.3770  -31.4937  -40.1742 H         1 UNK         0.0612 
    117 H117       17.7705  -32.0566  -40.5196 H         1 UNK         0.0612 
@<TRIPOS>BOND
     1    1    2 1    
     2    1   62 1    
     3    1   63 1    
     4    1   64 1    
     5    2    3 2    
     6    2    4 am   BACKBONE|DICT|INTERRES
     7    4    5 1    
     8    4   65 1    
     9    5    6 1    
    10    5   25 1    
    11    5   66 1    
    12    6    7 1    
    13    6   67 1    
    14    6   68 1    
    15    7    8 1    
    16    8    9 1    
    17    8   69 1    
    18    8   70 1    
    19    9   10 ar   
    20    9   14 ar   
    21   10   11 ar   
    22   10   71 1    
    23   11   12 ar   
    24   11   61 1    
    25   12   13 ar   
    26   12   72 1    
    27   13   14 ar   
    28   13   15 1    
    29   14   73 1    
    30   15   16 1    
    31   15   74 1    
    32   15   75 1    
    33   16   17 1    
    34   17   18 1    
    35   17   76 1    
    36   17   77 1    
    37   18   19 1    
    38   18   27 1    
    39   18   78 1    
    40   19   20 am   BACKBONE|DICT|INTERRES
    41   19   79 1    
    42   20   21 2    
    43   20   22 1    
    44   22   23 1    
    45   22   24 1    
    46   22   80 1    
    47   23   81 1    
    48   23   82 1    
    49   23   83 1    
    50   24   25 am   BACKBONE|DICT|INTERRES
    51   24   84 1    
    52   25   26 2    
    53   27   28 2    
    54   27   29 am   BACKBONE|DICT|INTERRES
    55   29   30 1    
    56   29   85 1    
    57   30   31 1    
    58   30   32 1    
    59   30   86 1    
    60   31   87 1    
    61   31   88 1    
    62   31   89 1    
    63   32   33 2    
    64   32   34 am   BACKBONE|DICT|INTERRES
    65   34   35 1    
    66   34   90 1    
    67   35   36 1    
    68   35   37 1    
    69   35   91 1    
    70   36   92 1    
    71   36   93 1    
    72   36   94 1    
    73   37   38 2    
    74   37   39 am   BACKBONE|DICT|INTERRES
    75   39   40 1    
    76   39   95 1    
    77   40   41 1    
    78   40   42 1    
    79   40   96 1    
    80   41   97 1    
    81   41   98 1    
    82   41   99 1    
    83   42   43 2    
    84   42   44 am   BACKBONE|DICT|INTERRES
    85   44   45 1    
    86   44  100 1    
    87   45   46 1    
    88   45   47 1    
    89   45  101 1    
    90   46  102 1    
    91   46  103 1    
    92   46  104 1    
    93   47   48 2    
    94   47   49 am   BACKBONE|DICT|INTERRES
    95   49   50 1    
    96   49  105 1    
    97   50   51 1    
    98   50   52 1    
    99   50  106 1    
   100   51  107 1    
   101   51  108 1    
   102   51  109 1    
   103   52   53 2    
   104   52   54 am   BACKBONE|DICT|INTERRES
   105   54   55 1    
   106   54  110 1    
   107   55   56 1    
   108   55   59 1    
   109   55  111 1    
   110   56   57 am   BACKBONE|DICT|INTERRES
   111   56   58 2    
   112   57  112 1    
   113   57  113 1    
   114   59   60 1    
   115   59  114 1    
   116   59  115 1    
   117   60   61 1    
   118   61  116 1    
   119   61  117 1    
@<TRIPOS>SUBSTRUCTURE
     1 UNK         1 GROUP             0       ****    0 ROOT    
