@<TRIPOS>MOLECULE
3R8
117   119    1
SMALL
USER_CHARGES


@<TRIPOS>ATOM
      1 CA         14.3423  -24.5403  -45.3358 C.3       0 UNK        -0.2013 
      2 C          15.4119  -25.5697  -45.0049 C.2       0 UNK         0.4866 
      3 O          16.5991  -25.2428  -45.0086 O.2       0 UNK        -0.5176 
      4 N          15.0036  -26.8112  -44.7130 N.am      1 UNK        -0.4884 
      5 CA         15.8792  -27.9369  -44.3652 C.3       1 UNK         0.0853 
      6 C6         15.1968  -29.2995  -44.6510 C.3       10 UNK        -0.0849 
      7 S7         15.1167  -29.6142  -46.4474 S.3       10 UNK        -0.2776 
      8 C8         16.5020  -30.7793  -46.6921 C.3       10 UNK         0.0316 
      9 C9         17.8150  -30.2602  -46.1168 C.ar      10 UNK        -0.0863 
     10 C10        18.3387  -30.8230  -44.9482 C.ar      10 UNK        -0.1009 
     11 C11        19.5254  -30.3347  -44.3965 C.ar      10 UNK        -0.0712 
     12 C12        20.2028  -29.2933  -45.0321 C.ar      10 UNK        -0.0894 
     13 C13        19.6908  -28.7167  -46.1977 C.ar      10 UNK        -0.0745 
     14 C14        18.4980  -29.2094  -46.7394 C.ar      10 UNK        -0.0972 
     15 C15        20.4294  -27.5726  -46.8788 C.3       10 UNK         0.0209 
     16 S16        20.1770  -25.9832  -46.0215 S.3       10 UNK        -0.2568 
     17 C17        21.5505  -25.9752  -44.8171 C.3       10 UNK        -0.0983 
     18 CA         21.1434  -25.4610  -43.4120 C.3       3 UNK         0.0876 
     19 N          19.9828  -26.1677  -42.8616 N.am      3 UNK        -0.4424 
     20 C          19.2691  -25.7495  -41.8063 C.2       2 UNK         0.4918 
     21 O          19.5411  -24.7381  -41.1567 O.2       2 UNK        -0.4875 
     22 CA         18.0072  -26.5612  -41.4700 C.3       2 UNK         0.0481 
     23 CB         17.0826  -25.8539  -40.4578 C.3       2 UNK        -0.1831 
     24 N          17.2890  -26.8445  -42.7096 N.am      2 UNK        -0.4498 
     25 C          16.3929  -27.8136  -42.9165 C.2       1 UNK         0.5027 
     26 O          15.9670  -28.5625  -42.0353 O.2       1 UNK        -0.4969 
     27 C          22.3554  -25.5253  -42.4603 C.2       3 UNK         0.5005 
     28 O          22.5407  -26.5231  -41.7561 O.2       3 UNK        -0.5279 
     29 N          23.2062  -24.4897  -42.5242 N.am      4 UNK        -0.4463 
     30 CA         24.4476  -24.3430  -41.7498 C.3       4 UNK         0.0283 
     31 CB         25.0269  -22.9396  -41.9941 C.3       4 UNK        -0.1875 
     32 C          25.5164  -25.4208  -42.0243 C.2       4 UNK         0.4949 
     33 O          26.4595  -25.5434  -41.2428 O.2       4 UNK        -0.5039 
     34 N          25.3441  -26.1938  -43.1062 N.am      5 UNK        -0.4663 
     35 CA         26.1338  -27.3807  -43.4426 C.3       5 UNK         0.0242 
     36 CB         25.7342  -27.8611  -44.8477 C.3       5 UNK        -0.1982 
     37 C          25.9952  -28.5315  -42.4253 C.2       5 UNK         0.5017 
     38 O          26.8926  -29.3728  -42.3666 O.2       5 UNK        -0.5012 
     39 N          24.8996  -28.5421  -41.6463 N.am      6 UNK        -0.4439 
     40 CA         24.5697  -29.5120  -40.5980 C.3       6 UNK         0.0297 
     41 CB         25.5548  -29.4003  -39.4116 C.3       6 UNK        -0.2006 
     42 C          24.4165  -30.9349  -41.1681 C.2       6 UNK         0.4892 
     43 O          23.4424  -31.1815  -41.8815 O.2       6 UNK        -0.5089 
     44 N          25.3579  -31.8357  -40.8463 N.am      7 UNK        -0.4243 
     45 CA         25.4061  -33.2506  -41.2306 C.3       7 UNK         0.0196 
     46 CB         25.6162  -33.4071  -42.7545 C.3       7 UNK        -0.2007 
     47 C          24.1874  -34.0163  -40.6868 C.2       7 UNK         0.5020 
     48 O          24.1964  -34.4047  -39.5185 O.2       7 UNK        -0.5147 
     49 N          23.1605  -34.2045  -41.5257 N.am      8 UNK        -0.4734 
     50 CA         21.8727  -34.7880  -41.1412 C.3       8 UNK         0.0238 
     51 CB         21.0973  -35.1854  -42.4079 C.3       8 UNK        -0.1912 
     52 C          21.0264  -33.8503  -40.2600 C.2       8 UNK         0.5038 
     53 O          20.2297  -34.3420  -39.4596 O.2       8 UNK        -0.5046 
     54 N          21.2097  -32.5336  -40.4197 N.am      9 UNK        -0.4200 
     55 CA         20.5788  -31.4964  -39.5959 C.3       9 UNK         0.0839 
     56 C          21.3872  -31.2662  -38.2935 C.2       9 UNK         0.5513 
     57 N          20.7104  -31.0613  -37.1722 N.am      9 UNK        -0.7519 
     58 O          22.6150  -31.2265  -38.2972 O.2       9 UNK        -0.4960 
     59 C59        20.4126  -30.1741  -40.3860 C.3       10 UNK        -0.0876 
     60 S60        19.1329  -30.2950  -41.6777 S.3       10 UNK        -0.2414 
     61 C61        20.0722  -30.9160  -43.1046 C.3       10 UNK         0.0169 
     62 H62        14.5050  -24.1401  -46.3362 H         1 UNK         0.0903 
     63 H63        13.3398  -24.9665  -45.3000 H         1 UNK         0.0903 
     64 H64        14.3856  -23.7139  -44.6269 H         1 UNK         0.0903 
     65 H65        14.0146  -27.0176  -44.7142 H         1 UNK         0.3096 
     66 H66        16.7693  -27.8768  -44.9950 H         1 UNK         0.1121 
     67 H67        14.1874  -29.3227  -44.2370 H         1 UNK         0.0849 
     68 H68        15.7289  -30.1234  -44.1726 H         1 UNK         0.0849 
     69 H69        16.6240  -30.9660  -47.7601 H         1 UNK         0.0865 
     70 H70        16.2397  -31.7400  -46.2460 H         1 UNK         0.0865 
     71 H71        17.8142  -31.6280  -44.4515 H         1 UNK         0.1346 
     72 H72        21.1285  -28.9350  -44.6085 H         1 UNK         0.1412 
     73 H73        18.0904  -28.7677  -47.6388 H         1 UNK         0.1426 
     74 H74        20.0806  -27.4644  -47.9069 H         1 UNK         0.0716 
     75 H75        21.4943  -27.7995  -46.9482 H         1 UNK         0.0716 
     76 H76        22.3323  -25.3384  -45.2355 H         1 UNK         0.0695 
     77 H77        21.9935  -26.9678  -44.7490 H         1 UNK         0.0695 
     78 H78        20.8536  -24.4123  -43.5118 H         1 UNK         0.0983 
     79 H79        19.7078  -27.0143  -43.3367 H         1 UNK         0.3095 
     80 H80        18.3424  -27.5026  -41.0328 H         1 UNK         0.0454 
     81 H81        16.7132  -24.9051  -40.8484 H         1 UNK         0.0851 
     82 H82        17.6097  -25.6432  -39.5266 H         1 UNK         0.0851 
     83 H83        16.2203  -26.4700  -40.2038 H         1 UNK         0.0851 
     84 H84        17.4890  -26.2242  -43.4910 H         1 UNK         0.2976 
     85 H85        22.9853  -23.7255  -43.1475 H         1 UNK         0.3116 
     86 H86        24.1831  -24.4232  -40.6933 H         1 UNK         0.0646 
     87 H87        25.2934  -22.7891  -43.0410 H         1 UNK         0.0847 
     88 H88        25.9304  -22.7807  -41.4034 H         1 UNK         0.0847 
     89 H89        24.3191  -22.1606  -41.7102 H         1 UNK         0.0847 
     90 H90        24.5502  -25.9982  -43.6967 H         1 UNK         0.3040 
     91 H91        27.1864  -27.0892  -43.4601 H         1 UNK         0.1015 
     92 H92        25.9004  -27.0858  -45.5960 H         1 UNK         0.0786 
     93 H93        24.6841  -28.1536  -44.8915 H         1 UNK         0.0786 
     94 H94        26.3257  -28.7280  -45.1461 H         1 UNK         0.0786 
     95 H95        24.2034  -27.8179  -41.7959 H         1 UNK         0.3172 
     96 H96        23.5862  -29.2272  -40.2229 H         1 UNK         0.0595 
     97 H97        26.5843  -29.6185  -39.6965 H         1 UNK         0.0839 
     98 H98        25.2780  -30.0848  -38.6082 H         1 UNK         0.0839 
     99 H99        25.5402  -28.3951  -38.9903 H         1 UNK         0.0839 
    100 H100       26.1057  -31.5249  -40.2426 H         1 UNK         0.2998 
    101 H101       26.2811  -33.6764  -40.7367 H         1 UNK         0.0822 
    102 H102       26.5596  -32.9562  -43.0628 H         1 UNK         0.0787 
    103 H103       25.6563  -34.4597  -43.0379 H         1 UNK         0.0787 
    104 H104       24.8264  -32.9373  -43.3409 H         1 UNK         0.0787 
    105 H105       23.2334  -33.8200  -42.4572 H         1 UNK         0.3055 
    106 H106       22.0658  -35.6926  -40.5597 H         1 UNK         0.1106 
    107 H107       20.8965  -34.3257  -43.0478 H         1 UNK         0.0828 
    108 H108       21.6479  -35.9202  -42.9956 H         1 UNK         0.0828 
    109 H109       20.1357  -35.6329  -42.1523 H         1 UNK         0.0828 
    110 H110       21.9381  -32.2135  -41.0494 H         1 UNK         0.2931 
    111 H111       19.5811  -31.8398  -39.3130 H         1 UNK         0.0412 
    112 H112       19.7022  -31.0820  -37.1594 H         1 UNK         0.3472 
    113 H113       21.2187  -30.8934  -36.3178 H         1 UNK         0.3472 
    114 H114       20.1007  -29.3701  -39.7164 H         1 UNK         0.0970 
    115 H115       21.3555  -29.8435  -40.8222 H         1 UNK         0.0970 
    116 H116       20.0138  -32.0046  -43.1284 H         1 UNK         0.0612 
    117 H117       21.1272  -30.6634  -43.0004 H         1 UNK         0.0612 
@<TRIPOS>BOND
     1    1    2 1    
     2    1   62 1    
     3    1   63 1    
     4    1   64 1    
     5    2    3 2    
     6    2    4 am   BACKBONE|DICT|INTERRES
     7    4    5 1    
     8    4   65 1    
     9    5    6 1    
    10    5   25 1    
    11    5   66 1    
    12    6    7 1    
    13    6   67 1    
    14    6   68 1    
    15    7    8 1    
    16    8    9 1    
    17    8   69 1    
    18    8   70 1    
    19    9   10 ar   
    20    9   14 ar   
    21   10   11 ar   
    22   10   71 1    
    23   11   12 ar   
    24   11   61 1    
    25   12   13 ar   
    26   12   72 1    
    27   13   14 ar   
    28   13   15 1    
    29   14   73 1    
    30   15   16 1    
    31   15   74 1    
    32   15   75 1    
    33   16   17 1    
    34   17   18 1    
    35   17   76 1    
    36   17   77 1    
    37   18   19 1    
    38   18   27 1    
    39   18   78 1    
    40   19   20 am   BACKBONE|DICT|INTERRES
    41   19   79 1    
    42   20   21 2    
    43   20   22 1    
    44   22   23 1    
    45   22   24 1    
    46   22   80 1    
    47   23   81 1    
    48   23   82 1    
    49   23   83 1    
    50   24   25 am   BACKBONE|DICT|INTERRES
    51   24   84 1    
    52   25   26 2    
    53   27   28 2    
    54   27   29 am   BACKBONE|DICT|INTERRES
    55   29   30 1    
    56   29   85 1    
    57   30   31 1    
    58   30   32 1    
    59   30   86 1    
    60   31   87 1    
    61   31   88 1    
    62   31   89 1    
    63   32   33 2    
    64   32   34 am   BACKBONE|DICT|INTERRES
    65   34   35 1    
    66   34   90 1    
    67   35   36 1    
    68   35   37 1    
    69   35   91 1    
    70   36   92 1    
    71   36   93 1    
    72   36   94 1    
    73   37   38 2    
    74   37   39 am   BACKBONE|DICT|INTERRES
    75   39   40 1    
    76   39   95 1    
    77   40   41 1    
    78   40   42 1    
    79   40   96 1    
    80   41   97 1    
    81   41   98 1    
    82   41   99 1    
    83   42   43 2    
    84   42   44 am   BACKBONE|DICT|INTERRES
    85   44   45 1    
    86   44  100 1    
    87   45   46 1    
    88   45   47 1    
    89   45  101 1    
    90   46  102 1    
    91   46  103 1    
    92   46  104 1    
    93   47   48 2    
    94   47   49 am   BACKBONE|DICT|INTERRES
    95   49   50 1    
    96   49  105 1    
    97   50   51 1    
    98   50   52 1    
    99   50  106 1    
   100   51  107 1    
   101   51  108 1    
   102   51  109 1    
   103   52   53 2    
   104   52   54 am   BACKBONE|DICT|INTERRES
   105   54   55 1    
   106   54  110 1    
   107   55   56 1    
   108   55   59 1    
   109   55  111 1    
   110   56   57 am   BACKBONE|DICT|INTERRES
   111   56   58 2    
   112   57  112 1    
   113   57  113 1    
   114   59   60 1    
   115   59  114 1    
   116   59  115 1    
   117   60   61 1    
   118   61  116 1    
   119   61  117 1    
@<TRIPOS>SUBSTRUCTURE
     1 UNK         1 GROUP             0       ****    0 ROOT    
