@<TRIPOS>MOLECULE
3R8
117   119    1
SMALL
USER_CHARGES


@<TRIPOS>ATOM
      1 CA         15.3918  -22.2065  -48.0211 C.3       0 UNK        -0.2013 
      2 C          16.5329  -22.6205  -47.1037 C.2       0 UNK         0.4866 
      3 O          17.0938  -21.7756  -46.4048 O.2       0 UNK        -0.5176 
      4 N          16.8865  -23.9120  -47.1055 N.am      1 UNK        -0.4884 
      5 CA         17.9123  -24.4953  -46.2348 C.3       1 UNK         0.0853 
      6 C6         18.3872  -25.8661  -46.7771 C.3       10 UNK        -0.0849 
      7 S7         20.0511  -26.3170  -46.1777 S.3       10 UNK        -0.2776 
      8 C8         20.3399  -27.8689  -47.0852 C.3       10 UNK         0.0316 
      9 C9         20.0193  -29.0869  -46.2313 C.ar      10 UNK        -0.0863 
     10 C10        21.0544  -29.8028  -45.6208 C.ar      10 UNK        -0.1009 
     11 C11        20.7770  -30.9369  -44.8524 C.ar      10 UNK        -0.0712 
     12 C12        19.4542  -31.3555  -44.7011 C.ar      10 UNK        -0.0894 
     13 C13        18.4064  -30.6147  -45.2547 C.ar      10 UNK        -0.0745 
     14 C14        18.6950  -29.4977  -46.0447 C.ar      10 UNK        -0.0972 
     15 C15        16.9674  -30.9834  -44.9268 C.3       10 UNK         0.0209 
     16 S16        16.6603  -30.9104  -43.1267 S.3       10 UNK        -0.2568 
     17 C17        16.7458  -29.1197  -42.7658 C.3       10 UNK        -0.0983 
     18 CA         18.1811  -28.5675  -42.5195 C.3       3 UNK         0.0876 
     19 N          18.2676  -27.1203  -42.7613 N.am      3 UNK        -0.4424 
     20 C          17.7143  -26.1567  -42.0068 C.2       2 UNK         0.4918 
     21 O          16.9939  -26.3686  -41.0313 O.2       2 UNK        -0.4875 
     22 CA         18.0388  -24.7011  -42.3889 C.3       2 UNK         0.0481 
     23 CB         19.2406  -24.1990  -41.5713 C.3       2 UNK        -0.1831 
     24 N          18.3162  -24.5227  -43.8166 N.am      2 UNK        -0.4498 
     25 C          17.3960  -24.6199  -44.7859 C.2       1 UNK         0.5027 
     26 O          16.1996  -24.8392  -44.5764 O.2       1 UNK        -0.4969 
     27 C          18.8293  -28.9575  -41.1677 C.2       3 UNK         0.5005 
     28 O          18.3173  -29.8008  -40.4295 O.2       3 UNK        -0.5279 
     29 N          19.9566  -28.2995  -40.8737 N.am      4 UNK        -0.4463 
     30 CA         20.7753  -28.3905  -39.6722 C.3       4 UNK         0.0283 
     31 CB         20.0299  -27.7884  -38.4651 C.3       4 UNK        -0.1875 
     32 C          22.0647  -27.6100  -39.9536 C.2       4 UNK         0.4949 
     33 O          22.0918  -26.8011  -40.8860 O.2       4 UNK        -0.5039 
     34 N          23.1042  -27.8596  -39.1467 N.am      5 UNK        -0.4663 
     35 CA         24.4195  -27.1935  -39.1029 C.3       5 UNK         0.0242 
     36 CB         24.2675  -25.6967  -38.7662 C.3       5 UNK        -0.1982 
     37 C          25.3235  -27.3828  -40.3384 C.2       5 UNK         0.5017 
     38 O          26.5441  -27.4127  -40.1785 O.2       5 UNK        -0.5012 
     39 N          24.7322  -27.5142  -41.5325 N.am      6 UNK        -0.4439 
     40 CA         25.4084  -27.7468  -42.8137 C.3       6 UNK         0.0297 
     41 CB         24.3689  -27.6728  -43.9452 C.3       6 UNK        -0.2006 
     42 C          26.1702  -29.0841  -42.8784 C.2       6 UNK         0.4892 
     43 O          27.1744  -29.1780  -43.5851 O.2       6 UNK        -0.5089 
     44 N          25.6795  -30.0788  -42.1347 N.am      7 UNK        -0.4243 
     45 CA         26.2197  -31.4217  -41.9652 C.3       7 UNK         0.0196 
     46 CB         26.0026  -32.2523  -43.2496 C.3       7 UNK        -0.2007 
     47 C          25.5089  -32.0402  -40.7516 C.2       7 UNK         0.5020 
     48 O          24.7679  -31.3434  -40.0496 O.2       7 UNK        -0.5147 
     49 N          25.6811  -33.3521  -40.5483 N.am      8 UNK        -0.4734 
     50 CA         24.9045  -34.1592  -39.5985 C.3       8 UNK         0.0238 
     51 CB         25.7047  -35.4276  -39.2467 C.3       8 UNK        -0.1912 
     52 C          23.5026  -34.4751  -40.1650 C.2       8 UNK         0.5038 
     53 O          23.1652  -35.6422  -40.3736 O.2       8 UNK        -0.5046 
     54 N          22.7445  -33.4139  -40.4614 N.am      9 UNK        -0.4200 
     55 CA         21.4284  -33.4308  -41.1096 C.3       9 UNK         0.0839 
     56 C          20.3419  -34.1388  -40.2565 C.2       9 UNK         0.5513 
     57 N          19.4185  -34.8467  -40.8924 N.am      9 UNK        -0.7519 
     58 O          20.3053  -34.0168  -39.0337 O.2       9 UNK        -0.4960 
     59 C59        20.9735  -31.9979  -41.4954 C.3       10 UNK        -0.0876 
     60 S60        22.2056  -31.0761  -42.4853 S.3       10 UNK        -0.2414 
     61 C61        21.9036  -31.6962  -44.1706 C.3       10 UNK         0.0169 
     62 H62        14.9994  -23.0488  -48.5906 H         1 UNK         0.0903 
     63 H63        14.5755  -21.7833  -47.4362 H         1 UNK         0.0903 
     64 H64        15.7333  -21.4500  -48.7271 H         1 UNK         0.0903 
     65 H65        16.3654  -24.5665  -47.6719 H         1 UNK         0.3096 
     66 H66        18.7614  -23.8071  -46.2371 H         1 UNK         0.1121 
     67 H67        17.6733  -26.6558  -46.5382 H         1 UNK         0.0849 
     68 H68        18.4424  -25.8301  -47.8667 H         1 UNK         0.0849 
     69 H69        19.7532  -27.8921  -48.0047 H         1 UNK         0.0865 
     70 H70        21.3846  -27.8957  -47.3990 H         1 UNK         0.0865 
     71 H71        22.0787  -29.4771  -45.7412 H         1 UNK         0.1346 
     72 H72        19.2285  -32.2286  -44.1057 H         1 UNK         0.1412 
     73 H73        17.8882  -28.9340  -46.4906 H         1 UNK         0.1426 
     74 H74        16.7704  -31.9964  -45.2802 H         1 UNK         0.0716 
     75 H75        16.2618  -30.3306  -45.4430 H         1 UNK         0.0716 
     76 H76        16.1060  -28.9091  -41.9073 H         1 UNK         0.0695 
     77 H77        16.2881  -28.5964  -43.6069 H         1 UNK         0.0695 
     78 H78        18.8446  -29.0009  -43.2632 H         1 UNK         0.0983 
     79 H79        18.8358  -26.8387  -43.5479 H         1 UNK         0.3095 
     80 H80        17.1721  -24.0886  -42.1313 H         1 UNK         0.0454 
     81 H81        20.1486  -24.7617  -41.7936 H         1 UNK         0.0851 
     82 H82        19.0533  -24.2987  -40.5012 H         1 UNK         0.0851 
     83 H83        19.4416  -23.1454  -41.7653 H         1 UNK         0.0851 
     84 H84        19.2786  -24.3542  -44.0751 H         1 UNK         0.2976 
     85 H85        20.3276  -27.6320  -41.5404 H         1 UNK         0.3116 
     86 H86        21.0239  -29.4342  -39.4779 H         1 UNK         0.0646 
     87 H87        19.7500  -26.7494  -38.6447 H         1 UNK         0.0847 
     88 H88        20.6489  -27.8098  -37.5675 H         1 UNK         0.0847 
     89 H89        19.1197  -28.3433  -38.2382 H         1 UNK         0.0847 
     90 H90        22.9820  -28.5823  -38.4498 H         1 UNK         0.3040 
     91 H91        24.9519  -27.6600  -38.2720 H         1 UNK         0.1015 
     92 H92        23.7064  -25.5527  -37.8428 H         1 UNK         0.0786 
     93 H93        23.7558  -25.1495  -39.5587 H         1 UNK         0.0786 
     94 H94        25.2427  -25.2275  -38.6283 H         1 UNK         0.0786 
     95 H95        23.7224  -27.3943  -41.5513 H         1 UNK         0.3172 
     96 H96        26.1347  -26.9443  -42.9570 H         1 UNK         0.0595 
     97 H97        23.5991  -28.4381  -43.8354 H         1 UNK         0.0839 
     98 H98        24.8388  -27.8204  -44.9186 H         1 UNK         0.0839 
     99 H99        23.8740  -26.7017  -43.9691 H         1 UNK         0.0839 
    100 H100       24.8760  -29.8958  -41.5445 H         1 UNK         0.2998 
    101 H101       27.2856  -31.3493  -41.7407 H         1 UNK         0.0822 
    102 H102       26.4354  -31.7645  -44.1228 H         1 UNK         0.0787 
    103 H103       26.4718  -33.2335  -43.1764 H         1 UNK         0.0787 
    104 H104       24.9420  -32.4087  -43.4501 H         1 UNK         0.0787 
    105 H105       26.2820  -33.8619  -41.1803 H         1 UNK         0.3055 
    106 H106       24.7601  -33.5902  -38.6768 H         1 UNK         0.1106 
    107 H107       25.1668  -36.0394  -38.5211 H         1 UNK         0.0828 
    108 H108       25.8880  -36.0486  -40.1245 H         1 UNK         0.0828 
    109 H109       26.6693  -35.1780  -38.8045 H         1 UNK         0.0828 
    110 H110       23.1358  -32.4966  -40.2778 H         1 UNK         0.2931 
    111 H111       21.5489  -34.0024  -42.0318 H         1 UNK         0.0412 
    112 H112       18.6950  -35.3006  -40.3567 H         1 UNK         0.3472 
    113 H113       19.4366  -34.9500  -41.8951 H         1 UNK         0.3472 
    114 H114       20.0224  -32.0215  -42.0258 H         1 UNK         0.0970 
    115 H115       20.7809  -31.4213  -40.5906 H         1 UNK         0.0970 
    116 H116       22.8226  -31.5874  -44.7484 H         1 UNK         0.0612 
    117 H117       21.6866  -32.7647  -44.1444 H         1 UNK         0.0612 
@<TRIPOS>BOND
     1    1    2 1    
     2    1   62 1    
     3    1   63 1    
     4    1   64 1    
     5    2    3 2    
     6    2    4 am   BACKBONE|DICT|INTERRES
     7    4    5 1    
     8    4   65 1    
     9    5    6 1    
    10    5   25 1    
    11    5   66 1    
    12    6    7 1    
    13    6   67 1    
    14    6   68 1    
    15    7    8 1    
    16    8    9 1    
    17    8   69 1    
    18    8   70 1    
    19    9   10 ar   
    20    9   14 ar   
    21   10   11 ar   
    22   10   71 1    
    23   11   12 ar   
    24   11   61 1    
    25   12   13 ar   
    26   12   72 1    
    27   13   14 ar   
    28   13   15 1    
    29   14   73 1    
    30   15   16 1    
    31   15   74 1    
    32   15   75 1    
    33   16   17 1    
    34   17   18 1    
    35   17   76 1    
    36   17   77 1    
    37   18   19 1    
    38   18   27 1    
    39   18   78 1    
    40   19   20 am   BACKBONE|DICT|INTERRES
    41   19   79 1    
    42   20   21 2    
    43   20   22 1    
    44   22   23 1    
    45   22   24 1    
    46   22   80 1    
    47   23   81 1    
    48   23   82 1    
    49   23   83 1    
    50   24   25 am   BACKBONE|DICT|INTERRES
    51   24   84 1    
    52   25   26 2    
    53   27   28 2    
    54   27   29 am   BACKBONE|DICT|INTERRES
    55   29   30 1    
    56   29   85 1    
    57   30   31 1    
    58   30   32 1    
    59   30   86 1    
    60   31   87 1    
    61   31   88 1    
    62   31   89 1    
    63   32   33 2    
    64   32   34 am   BACKBONE|DICT|INTERRES
    65   34   35 1    
    66   34   90 1    
    67   35   36 1    
    68   35   37 1    
    69   35   91 1    
    70   36   92 1    
    71   36   93 1    
    72   36   94 1    
    73   37   38 2    
    74   37   39 am   BACKBONE|DICT|INTERRES
    75   39   40 1    
    76   39   95 1    
    77   40   41 1    
    78   40   42 1    
    79   40   96 1    
    80   41   97 1    
    81   41   98 1    
    82   41   99 1    
    83   42   43 2    
    84   42   44 am   BACKBONE|DICT|INTERRES
    85   44   45 1    
    86   44  100 1    
    87   45   46 1    
    88   45   47 1    
    89   45  101 1    
    90   46  102 1    
    91   46  103 1    
    92   46  104 1    
    93   47   48 2    
    94   47   49 am   BACKBONE|DICT|INTERRES
    95   49   50 1    
    96   49  105 1    
    97   50   51 1    
    98   50   52 1    
    99   50  106 1    
   100   51  107 1    
   101   51  108 1    
   102   51  109 1    
   103   52   53 2    
   104   52   54 am   BACKBONE|DICT|INTERRES
   105   54   55 1    
   106   54  110 1    
   107   55   56 1    
   108   55   59 1    
   109   55  111 1    
   110   56   57 am   BACKBONE|DICT|INTERRES
   111   56   58 2    
   112   57  112 1    
   113   57  113 1    
   114   59   60 1    
   115   59  114 1    
   116   59  115 1    
   117   60   61 1    
   118   61  116 1    
   119   61  117 1    
@<TRIPOS>SUBSTRUCTURE
     1 UNK         1 GROUP             0       ****    0 ROOT    
