@<TRIPOS>MOLECULE
3R8
117   119    1
SMALL
USER_CHARGES


@<TRIPOS>ATOM
      1 CA         16.9506  -25.8052  -50.3314 C.3       0 UNK        -0.2013 
      2 C          18.0011  -26.2134  -49.3092 C.2       0 UNK         0.4866 
      3 O          19.1785  -26.3279  -49.6527 O.2       0 UNK        -0.5176 
      4 N          17.5847  -26.4439  -48.0584 N.am      1 UNK        -0.4884 
      5 CA         18.4633  -26.7996  -46.9405 C.3       1 UNK         0.0853 
      6 C6         17.6644  -27.2972  -45.7080 C.3       10 UNK        -0.0849 
      7 S7         16.5847  -28.7389  -45.9759 S.3       10 UNK        -0.2776 
      8 C8         17.4485  -30.0434  -45.0261 C.3       10 UNK         0.0316 
      9 C9         17.3651  -29.9679  -43.4936 C.ar      10 UNK        -0.0863 
     10 C10        17.6104  -31.1420  -42.7738 C.ar      10 UNK        -0.1009 
     11 C11        17.5922  -31.1509  -41.3770 C.ar      10 UNK        -0.0712 
     12 C12        17.3402  -29.9633  -40.6871 C.ar      10 UNK        -0.0894 
     13 C13        17.1083  -28.7719  -41.3805 C.ar      10 UNK        -0.0745 
     14 C14        17.0963  -28.7880  -42.7804 C.ar      10 UNK        -0.0972 
     15 C15        16.8601  -27.4702  -40.6195 C.3       10 UNK         0.0209 
     16 S16        18.1494  -27.1132  -39.3710 S.3       10 UNK        -0.2568 
     17 C17        19.4185  -26.1874  -40.3102 C.3       10 UNK        -0.0983 
     18 CA         20.2018  -27.0450  -41.3486 C.3       3 UNK         0.0876 
     19 N          20.8089  -26.2743  -42.4353 N.am      3 UNK        -0.4424 
     20 C          20.1338  -25.5947  -43.3701 C.2       2 UNK         0.4918 
     21 O          18.9196  -25.3974  -43.3128 O.2       2 UNK        -0.4875 
     22 CA         20.8946  -25.1213  -44.6285 C.3       2 UNK         0.0481 
     23 CB         22.4271  -25.2490  -44.5451 C.3       2 UNK        -0.1831 
     24 N          20.3964  -25.9281  -45.7440 N.am      2 UNK        -0.4498 
     25 C          19.3191  -25.6024  -46.4716 C.2       1 UNK         0.5027 
     26 O          18.9251  -24.4453  -46.6459 O.2       1 UNK        -0.4969 
     27 C          21.2806  -27.9582  -40.7339 C.2       3 UNK         0.5005 
     28 O          22.3854  -28.0605  -41.2807 O.2       3 UNK        -0.5279 
     29 N          20.9436  -28.6101  -39.6137 N.am      4 UNK        -0.4463 
     30 CA         21.7650  -29.5753  -38.8748 C.3       4 UNK         0.0283 
     31 CB         20.9819  -30.0661  -37.6470 C.3       4 UNK        -0.1875 
     32 C          23.1406  -29.0421  -38.4417 C.2       4 UNK         0.4949 
     33 O          24.0973  -29.8140  -38.4007 O.2       4 UNK        -0.5039 
     34 N          23.2337  -27.7290  -38.1872 N.am      5 UNK        -0.4663 
     35 CA         24.4781  -27.0146  -37.8789 C.3       5 UNK         0.0242 
     36 CB         24.1399  -25.5673  -37.4867 C.3       5 UNK        -0.1982 
     37 C          25.5109  -27.0332  -39.0236 C.2       5 UNK         0.5017 
     38 O          26.7050  -26.9034  -38.7535 O.2       5 UNK        -0.5012 
     39 N          25.0388  -27.2113  -40.2650 N.am      6 UNK        -0.4439 
     40 CA         25.8521  -27.3798  -41.4707 C.3       6 UNK         0.0297 
     41 CB         25.3395  -26.4017  -42.5400 C.3       6 UNK        -0.2006 
     42 C          25.8109  -28.8317  -41.9882 C.2       6 UNK         0.4892 
     43 O          26.2899  -29.0824  -43.0948 O.2       6 UNK        -0.5089 
     44 N          25.2346  -29.7531  -41.1982 N.am      7 UNK        -0.4243 
     45 CA         25.0196  -31.1750  -41.4876 C.3       7 UNK         0.0196 
     46 CB         26.3640  -31.9280  -41.5797 C.3       7 UNK        -0.2007 
     47 C          24.1039  -31.4299  -42.7019 C.2       7 UNK         0.5020 
     48 O          24.2761  -32.4353  -43.3943 O.2       7 UNK        -0.5147 
     49 N          23.1159  -30.5474  -42.9285 N.am      8 UNK        -0.4734 
     50 CA         22.1598  -30.6470  -44.0440 C.3       8 UNK         0.0238 
     51 CB         21.3447  -29.3499  -44.1474 C.3       8 UNK        -0.1912 
     52 C          21.2154  -31.8619  -43.9660 C.2       8 UNK         0.5038 
     53 O          20.5980  -32.2069  -44.9741 O.2       8 UNK        -0.5046 
     54 N          21.1271  -32.4854  -42.7850 N.am      9 UNK        -0.4200 
     55 CA         20.4072  -33.7409  -42.5362 C.3       9 UNK         0.0839 
     56 C          21.0488  -34.9914  -43.2067 C.2       9 UNK         0.5513 
     57 N          22.2936  -34.9375  -43.6695 N.am      9 UNK        -0.7519 
     58 O          20.4015  -36.0303  -43.3062 O.2       9 UNK        -0.4960 
     59 C59        20.1829  -33.9959  -41.0210 C.3       10 UNK        -0.0876 
     60 S60        19.5839  -32.5479  -40.0838 S.3       10 UNK        -0.2414 
     61 C61        17.8461  -32.4377  -40.6068 C.3       10 UNK         0.0169 
     62 H62        15.9529  -25.7593  -49.8950 H         1 UNK         0.0903 
     63 H63        17.1872  -24.8233  -50.7404 H         1 UNK         0.0903 
     64 H64        16.9283  -26.5206  -51.1531 H         1 UNK         0.0903 
     65 H65        16.6082  -26.3306  -47.8260 H         1 UNK         0.3096 
     66 H66        19.1323  -27.5955  -47.2763 H         1 UNK         0.1121 
     67 H67        18.3628  -27.5532  -44.9106 H         1 UNK         0.0849 
     68 H68        17.0390  -26.4938  -45.3114 H         1 UNK         0.0849 
     69 H69        17.0317  -30.9979  -45.3513 H         1 UNK         0.0865 
     70 H70        18.4976  -30.0640  -45.3219 H         1 UNK         0.0865 
     71 H71        17.8184  -32.0581  -43.3081 H         1 UNK         0.1346 
     72 H72        17.3362  -29.9652  -39.6056 H         1 UNK         0.1412 
     73 H73        16.8844  -27.8654  -43.2963 H         1 UNK         0.1426 
     74 H74        15.8986  -27.5498  -40.1108 H         1 UNK         0.0716 
     75 H75        16.7769  -26.6231  -41.3025 H         1 UNK         0.0716 
     76 H76        18.9017  -25.3572  -40.7903 H         1 UNK         0.0695 
     77 H77        20.1065  -25.7192  -39.6040 H         1 UNK         0.0695 
     78 H78        19.5024  -27.7214  -41.8359 H         1 UNK         0.0983 
     79 H79        21.8027  -26.4367  -42.5339 H         1 UNK         0.3095 
     80 H80        20.6534  -24.0668  -44.7777 H         1 UNK         0.0454 
     81 H81        22.8231  -24.7233  -43.6752 H         1 UNK         0.0851 
     82 H82        22.8970  -24.8039  -45.4224 H         1 UNK         0.0851 
     83 H83        22.7547  -26.2864  -44.4985 H         1 UNK         0.0851 
     84 H84        20.6504  -26.9041  -45.7070 H         1 UNK         0.2976 
     85 H85        20.0137  -28.4412  -39.2489 H         1 UNK         0.3116 
     86 H86        21.9369  -30.4258  -39.5374 H         1 UNK         0.0646 
     87 H87        21.5385  -30.8372  -37.1125 H         1 UNK         0.0847 
     88 H88        20.7859  -29.2569  -36.9423 H         1 UNK         0.0847 
     89 H89        20.0232  -30.5000  -37.9301 H         1 UNK         0.0847 
     90 H90        22.3919  -27.1743  -38.2427 H         1 UNK         0.3040 
     91 H91        24.9405  -27.5068  -37.0203 H         1 UNK         0.1015 
     92 H92        25.0422  -25.0131  -37.2234 H         1 UNK         0.0786 
     93 H93        23.4786  -25.5340  -36.6206 H         1 UNK         0.0786 
     94 H94        23.6545  -25.0303  -38.3028 H         1 UNK         0.0786 
     95 H95        24.0394  -27.3412  -40.3921 H         1 UNK         0.3172 
     96 H96        26.8975  -27.1426  -41.2639 H         1 UNK         0.0595 
     97 H97        24.3163  -26.6397  -42.8249 H         1 UNK         0.0839 
     98 H98        25.9505  -26.4443  -43.4426 H         1 UNK         0.0839 
     99 H99        25.3613  -25.3720  -42.1828 H         1 UNK         0.0839 
    100 H100       24.8963  -29.4518  -40.2913 H         1 UNK         0.2998 
    101 H101       24.4831  -31.5753  -40.6260 H         1 UNK         0.0822 
    102 H102       26.2063  -33.0054  -41.6431 H         1 UNK         0.0787 
    103 H103       26.9821  -31.7446  -40.7008 H         1 UNK         0.0787 
    104 H104       26.9350  -31.6319  -42.4602 H         1 UNK         0.0787 
    105 H105       23.0287  -29.7391  -42.3202 H         1 UNK         0.3055 
    106 H106       22.7432  -30.7560  -44.9612 H         1 UNK         0.1106 
    107 H107       20.6229  -29.2663  -43.3354 H         1 UNK         0.0828 
    108 H108       21.9908  -28.4743  -44.1276 H         1 UNK         0.0828 
    109 H109       20.7850  -29.3214  -45.0824 H         1 UNK         0.0828 
    110 H110       21.6521  -32.1138  -42.0091 H         1 UNK         0.2931 
    111 H111       19.4236  -33.6348  -42.9943 H         1 UNK         0.0412 
    112 H112       22.6938  -35.7552  -44.1020 H         1 UNK         0.3472 
    113 H113       22.8425  -34.0905  -43.5901 H         1 UNK         0.3472 
    114 H114       19.4848  -34.8220  -40.8724 H         1 UNK         0.0970 
    115 H115       21.1177  -34.3115  -40.5535 H         1 UNK         0.0970 
    116 H116       17.5699  -33.3041  -41.2094 H         1 UNK         0.0612 
    117 H117       17.2100  -32.4690  -39.7210 H         1 UNK         0.0612 
@<TRIPOS>BOND
     1    1    2 1    
     2    1   62 1    
     3    1   63 1    
     4    1   64 1    
     5    2    3 2    
     6    2    4 am   BACKBONE|DICT|INTERRES
     7    4    5 1    
     8    4   65 1    
     9    5    6 1    
    10    5   25 1    
    11    5   66 1    
    12    6    7 1    
    13    6   67 1    
    14    6   68 1    
    15    7    8 1    
    16    8    9 1    
    17    8   69 1    
    18    8   70 1    
    19    9   10 ar   
    20    9   14 ar   
    21   10   11 ar   
    22   10   71 1    
    23   11   12 ar   
    24   11   61 1    
    25   12   13 ar   
    26   12   72 1    
    27   13   14 ar   
    28   13   15 1    
    29   14   73 1    
    30   15   16 1    
    31   15   74 1    
    32   15   75 1    
    33   16   17 1    
    34   17   18 1    
    35   17   76 1    
    36   17   77 1    
    37   18   19 1    
    38   18   27 1    
    39   18   78 1    
    40   19   20 am   BACKBONE|DICT|INTERRES
    41   19   79 1    
    42   20   21 2    
    43   20   22 1    
    44   22   23 1    
    45   22   24 1    
    46   22   80 1    
    47   23   81 1    
    48   23   82 1    
    49   23   83 1    
    50   24   25 am   BACKBONE|DICT|INTERRES
    51   24   84 1    
    52   25   26 2    
    53   27   28 2    
    54   27   29 am   BACKBONE|DICT|INTERRES
    55   29   30 1    
    56   29   85 1    
    57   30   31 1    
    58   30   32 1    
    59   30   86 1    
    60   31   87 1    
    61   31   88 1    
    62   31   89 1    
    63   32   33 2    
    64   32   34 am   BACKBONE|DICT|INTERRES
    65   34   35 1    
    66   34   90 1    
    67   35   36 1    
    68   35   37 1    
    69   35   91 1    
    70   36   92 1    
    71   36   93 1    
    72   36   94 1    
    73   37   38 2    
    74   37   39 am   BACKBONE|DICT|INTERRES
    75   39   40 1    
    76   39   95 1    
    77   40   41 1    
    78   40   42 1    
    79   40   96 1    
    80   41   97 1    
    81   41   98 1    
    82   41   99 1    
    83   42   43 2    
    84   42   44 am   BACKBONE|DICT|INTERRES
    85   44   45 1    
    86   44  100 1    
    87   45   46 1    
    88   45   47 1    
    89   45  101 1    
    90   46  102 1    
    91   46  103 1    
    92   46  104 1    
    93   47   48 2    
    94   47   49 am   BACKBONE|DICT|INTERRES
    95   49   50 1    
    96   49  105 1    
    97   50   51 1    
    98   50   52 1    
    99   50  106 1    
   100   51  107 1    
   101   51  108 1    
   102   51  109 1    
   103   52   53 2    
   104   52   54 am   BACKBONE|DICT|INTERRES
   105   54   55 1    
   106   54  110 1    
   107   55   56 1    
   108   55   59 1    
   109   55  111 1    
   110   56   57 am   BACKBONE|DICT|INTERRES
   111   56   58 2    
   112   57  112 1    
   113   57  113 1    
   114   59   60 1    
   115   59  114 1    
   116   59  115 1    
   117   60   61 1    
   118   61  116 1    
   119   61  117 1    
@<TRIPOS>SUBSTRUCTURE
     1 UNK         1 GROUP             0       ****    0 ROOT    
