@<TRIPOS>MOLECULE
3R8
117   119    1
SMALL
USER_CHARGES


@<TRIPOS>ATOM
      1 CA         14.5874  -23.5288  -46.3152 C.3       0 UNK        -0.2013 
      2 C          14.6557  -24.8984  -45.6562 C.2       0 UNK         0.4866 
      3 O          13.7779  -25.2341  -44.8612 O.2       0 UNK        -0.5176 
      4 N          15.6918  -25.6832  -45.9850 N.am      1 UNK        -0.4884 
      5 CA         15.9665  -27.0346  -45.4737 C.3       1 UNK         0.0853 
      6 C6         14.9650  -28.1073  -45.9903 C.3       10 UNK        -0.0849 
      7 S7         15.3616  -28.5772  -47.7093 S.3       10 UNK        -0.2776 
      8 C8         16.3577  -30.0901  -47.4607 C.3       10 UNK         0.0316 
      9 C9         17.5384  -29.8580  -46.5242 C.ar      10 UNK        -0.0863 
     10 C10        17.4798  -30.2955  -45.1972 C.ar      10 UNK        -0.1009 
     11 C11        18.5255  -30.0357  -44.3063 C.ar      10 UNK        -0.0712 
     12 C12        19.6616  -29.3648  -44.7749 C.ar      10 UNK        -0.0894 
     13 C13        19.7315  -28.9119  -46.0953 C.ar      10 UNK        -0.0745 
     14 C14        18.6704  -29.1695  -46.9689 C.ar      10 UNK        -0.0972 
     15 C15        20.9453  -28.1311  -46.5769 C.3       10 UNK         0.0209 
     16 S16        20.9094  -26.4055  -45.9877 S.3       10 UNK        -0.2568 
     17 C17        21.8705  -26.5123  -44.4389 C.3       10 UNK        -0.0983 
     18 CA         21.2274  -25.7458  -43.2549 C.3       3 UNK         0.0876 
     19 N          19.8517  -26.1761  -42.9736 N.am      3 UNK        -0.4424 
     20 C          19.0087  -25.5502  -42.1377 C.2       2 UNK         0.4918 
     21 O          19.3193  -24.5727  -41.4560 O.2       2 UNK        -0.4875 
     22 CA         17.5648  -26.0740  -42.1173 C.3       2 UNK         0.0481 
     23 CB         16.6062  -25.2004  -41.2843 C.3       2 UNK        -0.1831 
     24 N          17.0875  -26.1745  -43.4936 N.am      2 UNK        -0.4498 
     25 C          16.1869  -27.0542  -43.9457 C.2       1 UNK         0.5027 
     26 O          15.5731  -27.8427  -43.2239 O.2       1 UNK        -0.4969 
     27 C          22.1550  -25.8299  -42.0263 C.2       3 UNK         0.5005 
     28 O          23.0411  -24.9853  -41.8876 O.2       3 UNK        -0.5279 
     29 N          21.9632  -26.8624  -41.1876 N.am      4 UNK        -0.4463 
     30 CA         22.7219  -27.2299  -39.9775 C.3       4 UNK         0.0283 
     31 CB         22.6262  -26.1330  -38.9006 C.3       4 UNK        -0.1875 
     32 C          24.1913  -27.6315  -40.2234 C.2       4 UNK         0.4949 
     33 O          24.6459  -28.6327  -39.6708 O.2       4 UNK        -0.5039 
     34 N          24.8997  -26.8821  -41.0781 N.am      5 UNK        -0.4663 
     35 CA         26.3021  -27.0760  -41.4713 C.3       5 UNK         0.0242 
     36 CB         26.7308  -25.9020  -42.3662 C.3       5 UNK        -0.1982 
     37 C          26.5944  -28.4179  -42.1695 C.2       5 UNK         0.5017 
     38 O          27.7516  -28.8357  -42.2141 O.2       5 UNK        -0.5012 
     39 N          25.5426  -29.0798  -42.6713 N.am      6 UNK        -0.4439 
     40 CA         25.5657  -30.4404  -43.2120 C.3       6 UNK         0.0297 
     41 CB         24.2455  -30.6978  -43.9587 C.3       6 UNK        -0.2006 
     42 C          25.8091  -31.5340  -42.1496 C.2       6 UNK         0.4892 
     43 O          26.0430  -32.6810  -42.5310 O.2       6 UNK        -0.5089 
     44 N          25.7206  -31.1864  -40.8541 N.am      7 UNK        -0.4243 
     45 CA         25.9493  -32.0061  -39.6525 C.3       7 UNK         0.0196 
     46 CB         27.3680  -32.6080  -39.6306 C.3       7 UNK        -0.2007 
     47 C          24.8806  -33.0823  -39.3967 C.2       7 UNK         0.5020 
     48 O          24.4773  -33.2666  -38.2485 O.2       7 UNK        -0.5147 
     49 N          24.4147  -33.7526  -40.4574 N.am      8 UNK        -0.4734 
     50 CA         23.2665  -34.6646  -40.4332 C.3       8 UNK         0.0238 
     51 CB         23.2591  -35.5035  -41.7211 C.3       8 UNK        -0.1912 
     52 C          21.9306  -33.9172  -40.2660 C.2       8 UNK         0.5038 
     53 O          20.9814  -34.4846  -39.7244 O.2       8 UNK        -0.5046 
     54 N          21.8919  -32.6615  -40.7297 N.am      9 UNK        -0.4200 
     55 CA         20.7947  -31.7132  -40.5253 C.3       9 UNK         0.0839 
     56 C          20.7933  -31.1843  -39.0653 C.2       9 UNK         0.5513 
     57 N          19.6578  -31.2303  -38.3827 N.am      9 UNK        -0.7519 
     58 O          21.8072  -30.7051  -38.5644 O.2       9 UNK        -0.4960 
     59 C59        20.8791  -30.5711  -41.5707 C.3       10 UNK        -0.0876 
     60 S60        19.3646  -29.5574  -41.6343 S.3       10 UNK        -0.2414 
     61 C61        18.3724  -30.4889  -42.8536 C.3       10 UNK         0.0169 
     62 H62        13.6625  -23.4322  -46.8834 H         1 UNK         0.0903 
     63 H63        14.6045  -22.7464  -45.5568 H         1 UNK         0.0903 
     64 H64        15.4218  -23.3594  -46.9956 H         1 UNK         0.0903 
     65 H65        16.3643  -25.3392  -46.6570 H         1 UNK         0.3096 
     66 H66        16.9507  -27.2861  -45.8682 H         1 UNK         0.1121 
     67 H67        14.9763  -29.0122  -45.3818 H         1 UNK         0.0849 
     68 H68        13.9387  -27.7409  -45.9444 H         1 UNK         0.0849 
     69 H69        15.7137  -30.8836  -47.0777 H         1 UNK         0.0865 
     70 H70        16.7231  -30.4383  -48.4279 H         1 UNK         0.0865 
     71 H71        16.5996  -30.8165  -44.8453 H         1 UNK         0.1346 
     72 H72        20.4904  -29.1755  -44.1119 H         1 UNK         0.1412 
     73 H73        18.7119  -28.8142  -47.9898 H         1 UNK         0.1426 
     74 H74        21.8646  -28.6263  -46.2608 H         1 UNK         0.0716 
     75 H75        20.9737  -28.1195  -47.6675 H         1 UNK         0.0716 
     76 H76        22.0343  -27.5569  -44.1737 H         1 UNK         0.0695 
     77 H77        22.8612  -26.1060  -44.6536 H         1 UNK         0.0695 
     78 H78        21.1763  -24.6905  -43.5329 H         1 UNK         0.0983 
     79 H79        19.5064  -26.9551  -43.5152 H         1 UNK         0.3095 
     80 H80        17.5977  -27.0703  -41.6725 H         1 UNK         0.0454 
     81 H81        16.5361  -24.1879  -41.6832 H         1 UNK         0.0851 
     82 H82        15.6012  -25.6220  -41.2642 H         1 UNK         0.0851 
     83 H83        16.9445  -25.1241  -40.2503 H         1 UNK         0.0851 
     84 H84        17.5257  -25.5485  -44.1562 H         1 UNK         0.2976 
     85 H85        21.1955  -27.4819  -41.4088 H         1 UNK         0.3116 
     86 H86        22.2233  -28.1149  -39.5790 H         1 UNK         0.0646 
     87 H87        23.1019  -26.4566  -37.9738 H         1 UNK         0.0847 
     88 H88        21.5879  -25.8979  -38.6667 H         1 UNK         0.0847 
     89 H89        23.1168  -25.2099  -39.2102 H         1 UNK         0.0847 
     90 H90        24.4212  -26.0705  -41.4673 H         1 UNK         0.3040 
     91 H91        26.9039  -27.0550  -40.5603 H         1 UNK         0.1015 
     92 H92        26.6208  -24.9484  -41.8491 H         1 UNK         0.0786 
     93 H93        26.1394  -25.8569  -43.2817 H         1 UNK         0.0786 
     94 H94        27.7785  -25.9917  -42.6572 H         1 UNK         0.0786 
     95 H95        24.6411  -28.6345  -42.5912 H         1 UNK         0.3172 
     96 H96        26.3843  -30.5036  -43.9319 H         1 UNK         0.0595 
     97 H97        23.3849  -30.6331  -43.2940 H         1 UNK         0.0839 
     98 H98        24.2362  -31.6925  -44.4072 H         1 UNK         0.0839 
     99 H99        24.0999  -29.9817  -44.7678 H         1 UNK         0.0839 
    100 H100       25.4572  -30.2275  -40.6469 H         1 UNK         0.2998 
    101 H101       25.8823  -31.3061  -38.8176 H         1 UNK         0.0822 
    102 H102       28.1275  -31.8354  -39.7513 H         1 UNK         0.0787 
    103 H103       27.5617  -33.1081  -38.6808 H         1 UNK         0.0787 
    104 H104       27.5127  -33.3473  -40.4188 H         1 UNK         0.0787 
    105 H105       24.8573  -33.5674  -41.3548 H         1 UNK         0.3055 
    106 H106       23.3761  -35.3382  -39.5801 H         1 UNK         0.1106 
    107 H107       22.4238  -36.2054  -41.7247 H         1 UNK         0.0828 
    108 H108       23.1652  -34.8794  -42.6108 H         1 UNK         0.0828 
    109 H109       24.1733  -36.0895  -41.8175 H         1 UNK         0.0828 
    110 H110       22.7452  -32.2830  -41.1088 H         1 UNK         0.2931 
    111 H111       19.8640  -32.2573  -40.7005 H         1 UNK         0.0412 
    112 H112       19.6383  -30.8789  -37.4381 H         1 UNK         0.3472 
    113 H113       18.8189  -31.6076  -38.7953 H         1 UNK         0.3472 
    114 H114       21.7330  -29.9231  -41.3674 H         1 UNK         0.0970 
    115 H115       21.0494  -30.9900  -42.5637 H         1 UNK         0.0970 
    116 H116       18.5989  -31.5534  -42.7835 H         1 UNK         0.0612 
    117 H117       17.3272  -30.3793  -42.5595 H         1 UNK         0.0612 
@<TRIPOS>BOND
     1    1    2 1    
     2    1   62 1    
     3    1   63 1    
     4    1   64 1    
     5    2    3 2    
     6    2    4 am   BACKBONE|DICT|INTERRES
     7    4    5 1    
     8    4   65 1    
     9    5    6 1    
    10    5   25 1    
    11    5   66 1    
    12    6    7 1    
    13    6   67 1    
    14    6   68 1    
    15    7    8 1    
    16    8    9 1    
    17    8   69 1    
    18    8   70 1    
    19    9   10 ar   
    20    9   14 ar   
    21   10   11 ar   
    22   10   71 1    
    23   11   12 ar   
    24   11   61 1    
    25   12   13 ar   
    26   12   72 1    
    27   13   14 ar   
    28   13   15 1    
    29   14   73 1    
    30   15   16 1    
    31   15   74 1    
    32   15   75 1    
    33   16   17 1    
    34   17   18 1    
    35   17   76 1    
    36   17   77 1    
    37   18   19 1    
    38   18   27 1    
    39   18   78 1    
    40   19   20 am   BACKBONE|DICT|INTERRES
    41   19   79 1    
    42   20   21 2    
    43   20   22 1    
    44   22   23 1    
    45   22   24 1    
    46   22   80 1    
    47   23   81 1    
    48   23   82 1    
    49   23   83 1    
    50   24   25 am   BACKBONE|DICT|INTERRES
    51   24   84 1    
    52   25   26 2    
    53   27   28 2    
    54   27   29 am   BACKBONE|DICT|INTERRES
    55   29   30 1    
    56   29   85 1    
    57   30   31 1    
    58   30   32 1    
    59   30   86 1    
    60   31   87 1    
    61   31   88 1    
    62   31   89 1    
    63   32   33 2    
    64   32   34 am   BACKBONE|DICT|INTERRES
    65   34   35 1    
    66   34   90 1    
    67   35   36 1    
    68   35   37 1    
    69   35   91 1    
    70   36   92 1    
    71   36   93 1    
    72   36   94 1    
    73   37   38 2    
    74   37   39 am   BACKBONE|DICT|INTERRES
    75   39   40 1    
    76   39   95 1    
    77   40   41 1    
    78   40   42 1    
    79   40   96 1    
    80   41   97 1    
    81   41   98 1    
    82   41   99 1    
    83   42   43 2    
    84   42   44 am   BACKBONE|DICT|INTERRES
    85   44   45 1    
    86   44  100 1    
    87   45   46 1    
    88   45   47 1    
    89   45  101 1    
    90   46  102 1    
    91   46  103 1    
    92   46  104 1    
    93   47   48 2    
    94   47   49 am   BACKBONE|DICT|INTERRES
    95   49   50 1    
    96   49  105 1    
    97   50   51 1    
    98   50   52 1    
    99   50  106 1    
   100   51  107 1    
   101   51  108 1    
   102   51  109 1    
   103   52   53 2    
   104   52   54 am   BACKBONE|DICT|INTERRES
   105   54   55 1    
   106   54  110 1    
   107   55   56 1    
   108   55   59 1    
   109   55  111 1    
   110   56   57 am   BACKBONE|DICT|INTERRES
   111   56   58 2    
   112   57  112 1    
   113   57  113 1    
   114   59   60 1    
   115   59  114 1    
   116   59  115 1    
   117   60   61 1    
   118   61  116 1    
   119   61  117 1    
@<TRIPOS>SUBSTRUCTURE
     1 UNK         1 GROUP             0       ****    0 ROOT    
