@<TRIPOS>MOLECULE
3R8
117   119    1
SMALL
USER_CHARGES


@<TRIPOS>ATOM
      1 CA         11.7786  -26.2043  -42.6658 C.3       0 UNK        -0.2013 
      2 C          13.1111  -26.0590  -43.3857 C.2       0 UNK         0.4866 
      3 O          13.6979  -24.9764  -43.3746 O.2       0 UNK        -0.5176 
      4 N          13.5894  -27.1378  -44.0186 N.am      1 UNK        -0.4884 
      5 CA         14.8879  -27.1986  -44.6971 C.3       1 UNK         0.0853 
      6 C6         14.9469  -28.4010  -45.6708 C.3       10 UNK        -0.0849 
      7 S7         16.1523  -28.1558  -47.0186 S.3       10 UNK        -0.2776 
      8 C8         17.1115  -29.7025  -46.9556 C.3       10 UNK         0.0316 
      9 C9         18.2921  -29.6046  -46.0007 C.ar      10 UNK        -0.0863 
     10 C10        18.1565  -29.9664  -44.6574 C.ar      10 UNK        -0.1009 
     11 C11        19.2534  -29.9054  -43.7924 C.ar      10 UNK        -0.0712 
     12 C12        20.4952  -29.4847  -44.2788 C.ar      10 UNK        -0.0894 
     13 C13        20.6432  -29.1257  -45.6214 C.ar      10 UNK        -0.0745 
     14 C14        19.5373  -29.1817  -46.4746 C.ar      10 UNK        -0.0972 
     15 C15        21.9998  -28.7110  -46.1698 C.3       10 UNK         0.0209 
     16 S16        22.1677  -26.9023  -46.2747 S.3       10 UNK        -0.2568 
     17 C17        22.7877  -26.4753  -44.6157 C.3       10 UNK        -0.0983 
     18 CA         21.9034  -25.4219  -43.8994 C.3       3 UNK         0.0876 
     19 N          20.6606  -25.9977  -43.3929 N.am      3 UNK        -0.4424 
     20 C          19.4414  -25.8041  -43.8992 C.2       2 UNK         0.4918 
     21 O          19.2038  -25.1723  -44.9324 O.2       2 UNK        -0.4875 
     22 CA         18.2848  -26.3752  -43.0717 C.3       2 UNK         0.0481 
     23 CB         17.9856  -25.4780  -41.8544 C.3       2 UNK        -0.1831 
     24 N          17.1025  -26.4859  -43.9189 N.am      2 UNK        -0.4498 
     25 C          16.0296  -27.2396  -43.6606 C.2       1 UNK         0.5027 
     26 O          15.9154  -27.9541  -42.6604 O.2       1 UNK        -0.4969 
     27 C          22.6550  -24.8329  -42.6934 C.2       3 UNK         0.5005 
     28 O          22.4215  -25.2568  -41.5569 O.2       3 UNK        -0.5279 
     29 N          23.5669  -23.8880  -42.9641 N.am      4 UNK        -0.4463 
     30 CA         24.5109  -23.3517  -41.9762 C.3       4 UNK         0.0283 
     31 CB         25.0823  -22.0176  -42.4834 C.3       4 UNK        -0.1875 
     32 C          25.6492  -24.3407  -41.6595 C.2       4 UNK         0.4949 
     33 O          26.1786  -24.3218  -40.5480 O.2       4 UNK        -0.5039 
     34 N          25.9989  -25.1851  -42.6397 N.am      5 UNK        -0.4663 
     35 CA         26.9324  -26.3025  -42.4979 C.3       5 UNK         0.0242 
     36 CB         27.4090  -26.7220  -43.8992 C.3       5 UNK        -0.1982 
     37 C          26.2758  -27.4926  -41.7759 C.2       5 UNK         0.5017 
     38 O          25.0465  -27.5930  -41.7431 O.2       5 UNK        -0.5012 
     39 N          27.1129  -28.3887  -41.2366 N.am      6 UNK        -0.4439 
     40 CA         26.6954  -29.6305  -40.5798 C.3       6 UNK         0.0297 
     41 CB         27.9208  -30.2967  -39.9329 C.3       6 UNK        -0.2006 
     42 C          26.0056  -30.6028  -41.5541 C.2       6 UNK         0.4892 
     43 O          26.3878  -30.6754  -42.7250 O.2       6 UNK        -0.5089 
     44 N          25.0243  -31.3470  -41.0383 N.am      7 UNK        -0.4243 
     45 CA         24.2298  -32.3330  -41.7635 C.3       7 UNK         0.0196 
     46 CB         23.0599  -31.6290  -42.4796 C.3       7 UNK        -0.2007 
     47 C          23.7249  -33.3860  -40.7698 C.2       7 UNK         0.5020 
     48 O          23.8120  -33.1812  -39.5566 O.2       7 UNK        -0.5147 
     49 N          23.1782  -34.4854  -41.3020 N.am      8 UNK        -0.4734 
     50 CA         22.6107  -35.6011  -40.5318 C.3       8 UNK         0.0238 
     51 CB         22.5668  -36.8475  -41.4337 C.3       8 UNK        -0.1912 
     52 C          21.2185  -35.3144  -39.9289 C.2       8 UNK         0.5038 
     53 O          20.6770  -36.1832  -39.2434 O.2       8 UNK        -0.5046 
     54 N          20.6581  -34.1323  -40.2159 N.am      9 UNK        -0.4200 
     55 CA         19.3515  -33.6348  -39.7617 C.3       9 UNK         0.0839 
     56 C          19.1806  -33.6573  -38.2174 C.2       9 UNK         0.5513 
     57 N          18.0078  -34.0355  -37.7280 N.am      9 UNK        -0.7519 
     58 O          20.0818  -33.2872  -37.4677 O.2       9 UNK        -0.4960 
     59 C59        19.0851  -32.2051  -40.3010 C.3       10 UNK        -0.0876 
     60 S60        19.2147  -32.0915  -42.1162 S.3       10 UNK        -0.2414 
     61 C61        19.0926  -30.2919  -42.3318 C.3       10 UNK         0.0169 
     62 H62        11.9023  -25.9968  -41.6032 H         1 UNK         0.0903 
     63 H63        11.0548  -25.4966  -43.0693 H         1 UNK         0.0903 
     64 H64        11.3655  -27.2075  -42.7693 H         1 UNK         0.0903 
     65 H65        13.0821  -28.0097  -43.9621 H         1 UNK         0.3096 
     66 H66        14.9840  -26.2788  -45.2796 H         1 UNK         0.1121 
     67 H67        13.9776  -28.5341  -46.1544 H         1 UNK         0.0849 
     68 H68        15.1359  -29.3340  -45.1369 H         1 UNK         0.0849 
     69 H69        16.4667  -30.5402  -46.6856 H         1 UNK         0.0865 
     70 H70        17.4736  -29.9239  -47.9609 H         1 UNK         0.0865 
     71 H71        17.1994  -30.2996  -44.2806 H         1 UNK         0.1346 
     72 H72        21.3471  -29.4422  -43.6147 H         1 UNK         0.1412 
     73 H73        19.6506  -28.9043  -47.5139 H         1 UNK         0.1426 
     74 H74        22.1236  -29.1270  -47.1708 H         1 UNK         0.0716 
     75 H75        22.8091  -29.1321  -45.5712 H         1 UNK         0.0716 
     76 H76        22.8873  -27.3725  -44.0015 H         1 UNK         0.0695 
     77 H77        23.8030  -26.1020  -44.7601 H         1 UNK         0.0695 
     78 H78        21.6831  -24.5992  -44.5838 H         1 UNK         0.0983 
     79 H79        20.7597  -26.4433  -42.4903 H         1 UNK         0.3095 
     80 H80        18.5692  -27.3701  -42.7267 H         1 UNK         0.0454 
     81 H81        17.1945  -25.8971  -41.2327 H         1 UNK         0.0851 
     82 H82        18.8651  -25.3662  -41.2191 H         1 UNK         0.0851 
     83 H83        17.6748  -24.4784  -42.1606 H         1 UNK         0.0851 
     84 H84        17.1678  -25.9681  -44.7873 H         1 UNK         0.2976 
     85 H85        23.6779  -23.5703  -43.9172 H         1 UNK         0.3116 
     86 H86        23.9710  -23.1579  -41.0466 H         1 UNK         0.0646 
     87 H87        25.7683  -21.5862  -41.7531 H         1 UNK         0.0847 
     88 H88        24.2924  -21.2859  -42.6538 H         1 UNK         0.0847 
     89 H89        25.6355  -22.1400  -43.4154 H         1 UNK         0.0847 
     90 H90        25.4865  -25.1396  -43.5063 H         1 UNK         0.3040 
     91 H91        27.7927  -25.9693  -41.9125 H         1 UNK         0.1015 
     92 H92        27.8879  -25.8930  -44.4210 H         1 UNK         0.0786 
     93 H93        26.5825  -27.0762  -44.5172 H         1 UNK         0.0786 
     94 H94        28.1392  -27.5303  -43.8417 H         1 UNK         0.0786 
     95 H95        28.1071  -28.2515  -41.3474 H         1 UNK         0.3172 
     96 H96        25.9875  -29.3661  -39.7910 H         1 UNK         0.0595 
     97 H97        28.3931  -29.6395  -39.2023 H         1 UNK         0.0839 
     98 H98        28.6713  -30.5697  -40.6761 H         1 UNK         0.0839 
     99 H99        27.6376  -31.2100  -39.4076 H         1 UNK         0.0839 
    100 H100       24.8170  -31.2991  -40.0478 H         1 UNK         0.2998 
    101 H101       24.8616  -32.8378  -42.4978 H         1 UNK         0.0822 
    102 H102       23.4224  -30.8838  -43.1881 H         1 UNK         0.0787 
    103 H103       22.4510  -32.3360  -43.0443 H         1 UNK         0.0787 
    104 H104       22.4019  -31.1224  -41.7723 H         1 UNK         0.0787 
    105 H105       23.1365  -34.5686  -42.3085 H         1 UNK         0.3055 
    106 H106       23.2763  -35.8128  -39.6916 H         1 UNK         0.1106 
    107 H107       23.5574  -37.0994  -41.8128 H         1 UNK         0.0828 
    108 H108       22.2048  -37.7180  -40.8846 H         1 UNK         0.0828 
    109 H109       21.9047  -36.7043  -42.2885 H         1 UNK         0.0828 
    110 H110       21.1853  -33.4963  -40.7933 H         1 UNK         0.2931 
    111 H111       18.6040  -34.3032  -40.1937 H         1 UNK         0.0412 
    112 H112       17.2591  -34.3296  -38.3366 H         1 UNK         0.3472 
    113 H113       17.8711  -34.0398  -36.7289 H         1 UNK         0.3472 
    114 H114       19.7869  -31.4962  -39.8562 H         1 UNK         0.0970 
    115 H115       18.0866  -31.8700  -40.0128 H         1 UNK         0.0970 
    116 H116       18.1266  -29.9453  -41.9605 H         1 UNK         0.0612 
    117 H117       19.8544  -29.7994  -41.7253 H         1 UNK         0.0612 
@<TRIPOS>BOND
     1    1    2 1    
     2    1   62 1    
     3    1   63 1    
     4    1   64 1    
     5    2    3 2    
     6    2    4 am   BACKBONE|DICT|INTERRES
     7    4    5 1    
     8    4   65 1    
     9    5    6 1    
    10    5   25 1    
    11    5   66 1    
    12    6    7 1    
    13    6   67 1    
    14    6   68 1    
    15    7    8 1    
    16    8    9 1    
    17    8   69 1    
    18    8   70 1    
    19    9   10 ar   
    20    9   14 ar   
    21   10   11 ar   
    22   10   71 1    
    23   11   12 ar   
    24   11   61 1    
    25   12   13 ar   
    26   12   72 1    
    27   13   14 ar   
    28   13   15 1    
    29   14   73 1    
    30   15   16 1    
    31   15   74 1    
    32   15   75 1    
    33   16   17 1    
    34   17   18 1    
    35   17   76 1    
    36   17   77 1    
    37   18   19 1    
    38   18   27 1    
    39   18   78 1    
    40   19   20 am   BACKBONE|DICT|INTERRES
    41   19   79 1    
    42   20   21 2    
    43   20   22 1    
    44   22   23 1    
    45   22   24 1    
    46   22   80 1    
    47   23   81 1    
    48   23   82 1    
    49   23   83 1    
    50   24   25 am   BACKBONE|DICT|INTERRES
    51   24   84 1    
    52   25   26 2    
    53   27   28 2    
    54   27   29 am   BACKBONE|DICT|INTERRES
    55   29   30 1    
    56   29   85 1    
    57   30   31 1    
    58   30   32 1    
    59   30   86 1    
    60   31   87 1    
    61   31   88 1    
    62   31   89 1    
    63   32   33 2    
    64   32   34 am   BACKBONE|DICT|INTERRES
    65   34   35 1    
    66   34   90 1    
    67   35   36 1    
    68   35   37 1    
    69   35   91 1    
    70   36   92 1    
    71   36   93 1    
    72   36   94 1    
    73   37   38 2    
    74   37   39 am   BACKBONE|DICT|INTERRES
    75   39   40 1    
    76   39   95 1    
    77   40   41 1    
    78   40   42 1    
    79   40   96 1    
    80   41   97 1    
    81   41   98 1    
    82   41   99 1    
    83   42   43 2    
    84   42   44 am   BACKBONE|DICT|INTERRES
    85   44   45 1    
    86   44  100 1    
    87   45   46 1    
    88   45   47 1    
    89   45  101 1    
    90   46  102 1    
    91   46  103 1    
    92   46  104 1    
    93   47   48 2    
    94   47   49 am   BACKBONE|DICT|INTERRES
    95   49   50 1    
    96   49  105 1    
    97   50   51 1    
    98   50   52 1    
    99   50  106 1    
   100   51  107 1    
   101   51  108 1    
   102   51  109 1    
   103   52   53 2    
   104   52   54 am   BACKBONE|DICT|INTERRES
   105   54   55 1    
   106   54  110 1    
   107   55   56 1    
   108   55   59 1    
   109   55  111 1    
   110   56   57 am   BACKBONE|DICT|INTERRES
   111   56   58 2    
   112   57  112 1    
   113   57  113 1    
   114   59   60 1    
   115   59  114 1    
   116   59  115 1    
   117   60   61 1    
   118   61  116 1    
   119   61  117 1    
@<TRIPOS>SUBSTRUCTURE
     1 UNK         1 GROUP             0       ****    0 ROOT    
