@<TRIPOS>MOLECULE
3R8
117   119    1
SMALL
USER_CHARGES


@<TRIPOS>ATOM
      1 CA         21.7806  -23.1056  -48.0848 C.3       0 UNK        -0.2013 
      2 C          21.0842  -23.4599  -46.7794 C.2       0 UNK         0.4866 
      3 O          20.8652  -22.5821  -45.9446 O.2       0 UNK        -0.5176 
      4 N          20.7429  -24.7406  -46.5945 N.am      1 UNK        -0.4884 
      5 CA         20.0020  -25.2620  -45.4418 C.3       1 UNK         0.0853 
      6 C6         20.1245  -26.8078  -45.3396 C.3       10 UNK        -0.0849 
      7 S7         19.8284  -27.7157  -46.8975 S.3       10 UNK        -0.2776 
      8 C8         18.1693  -28.4166  -46.6141 C.3       10 UNK         0.0316 
      9 C9         18.1774  -29.6207  -45.6780 C.ar      10 UNK        -0.0863 
     10 C10        18.9736  -30.7340  -45.9688 C.ar      10 UNK        -0.1009 
     11 C11        18.9314  -31.8736  -45.1606 C.ar      10 UNK        -0.0712 
     12 C12        18.0832  -31.8950  -44.0502 C.ar      10 UNK        -0.0894 
     13 C13        17.2745  -30.7938  -43.7513 C.ar      10 UNK        -0.0745 
     14 C14        17.3325  -29.6554  -44.5628 C.ar      10 UNK        -0.0972 
     15 C15        16.2938  -30.8702  -42.5895 C.3       10 UNK         0.0209 
     16 S16        17.0322  -30.3107  -41.0239 S.3       10 UNK        -0.2568 
     17 C17        16.8230  -28.5002  -41.1219 C.3       10 UNK        -0.0983 
     18 CA         18.1487  -27.7493  -41.3968 C.3       3 UNK         0.0876 
     19 N          17.8903  -26.4208  -41.9744 N.am      3 UNK        -0.4424 
     20 C          18.8215  -25.5320  -42.3446 C.2       2 UNK         0.4918 
     21 O          20.0317  -25.7186  -42.2265 O.2       2 UNK        -0.4875 
     22 CA         18.3057  -24.2267  -42.9658 C.3       2 UNK         0.0481 
     23 CB         19.2738  -23.0388  -42.7796 C.3       2 UNK        -0.1831 
     24 N          17.8809  -24.3768  -44.3647 N.am      2 UNK        -0.4498 
     25 C          18.5254  -24.7886  -45.4723 C.2       1 UNK         0.5027 
     26 O          17.9331  -24.8095  -46.5523 O.2       1 UNK        -0.4969 
     27 C          19.0595  -27.7180  -40.1452 C.2       3 UNK         0.5005 
     28 O          19.8685  -28.6259  -39.9592 O.2       3 UNK        -0.5279 
     29 N          18.9760  -26.6396  -39.3509 N.am      4 UNK        -0.4463 
     30 CA         19.8505  -26.3713  -38.2031 C.3       4 UNK         0.0283 
     31 CB         19.3561  -25.1098  -37.4772 C.3       4 UNK        -0.1875 
     32 C          21.3450  -26.2302  -38.5612 C.2       4 UNK         0.4949 
     33 O          22.1896  -26.4826  -37.7019 O.2       4 UNK        -0.5039 
     34 N          21.6476  -25.8430  -39.8084 N.am      5 UNK        -0.4663 
     35 CA         23.0050  -25.7373  -40.3469 C.3       5 UNK         0.0242 
     36 CB         23.0885  -24.4792  -41.2288 C.3       5 UNK        -0.1982 
     37 C          23.4178  -26.9834  -41.1516 C.2       5 UNK         0.5017 
     38 O          24.5888  -27.0894  -41.5206 O.2       5 UNK        -0.5012 
     39 N          22.4824  -27.9077  -41.4179 N.am      6 UNK        -0.4439 
     40 CA         22.6996  -29.1256  -42.2021 C.3       6 UNK         0.0297 
     41 CB         21.3683  -29.5655  -42.8406 C.3       6 UNK        -0.2006 
     42 C          23.3331  -30.2322  -41.3406 C.2       6 UNK         0.4892 
     43 O          22.7273  -31.2849  -41.1404 O.2       6 UNK        -0.5089 
     44 N          24.5507  -29.9767  -40.8425 N.am      7 UNK        -0.4243 
     45 CA         25.3132  -30.8693  -39.9601 C.3       7 UNK         0.0196 
     46 CB         26.6196  -30.1758  -39.5429 C.3       7 UNK        -0.2007 
     47 C          25.6050  -32.2543  -40.5660 C.2       7 UNK         0.5020 
     48 O          25.6393  -33.2424  -39.8326 O.2       7 UNK        -0.5147 
     49 N          25.7681  -32.3096  -41.8950 N.am      8 UNK        -0.4734 
     50 CA         25.9396  -33.5451  -42.6655 C.3       8 UNK         0.0238 
     51 CB         26.4183  -33.1881  -44.0824 C.3       8 UNK        -0.1912 
     52 C          24.6704  -34.4171  -42.7333 C.2       8 UNK         0.5038 
     53 O          24.7872  -35.6147  -42.9969 O.2       8 UNK        -0.5046 
     54 N          23.4966  -33.8147  -42.5030 N.am      9 UNK        -0.4200 
     55 CA         22.1885  -34.4862  -42.4849 C.3       9 UNK         0.0839 
     56 C          21.8058  -35.0555  -41.0877 C.2       9 UNK         0.5513 
     57 N          22.6129  -34.8835  -40.0464 N.am      9 UNK        -0.7519 
     58 O          20.7603  -35.6852  -40.9488 O.2       9 UNK        -0.4960 
     59 C59        21.0707  -33.5721  -43.0559 C.3       10 UNK        -0.0876 
     60 S60        21.4175  -33.0460  -44.7713 S.3       10 UNK        -0.2414 
     61 C61        19.7626  -33.0967  -45.5233 C.3       10 UNK         0.0169 
     62 H62        21.9198  -23.9782  -48.7229 H         1 UNK         0.0903 
     63 H63        21.1923  -22.3727  -48.6364 H         1 UNK         0.0903 
     64 H64        22.7604  -22.6739  -47.8823 H         1 UNK         0.0903 
     65 H65        20.9104  -25.4169  -47.3269 H         1 UNK         0.3096 
     66 H66        20.4930  -24.8466  -44.5669 H         1 UNK         0.1121 
     67 H67        21.1384  -27.0527  -45.0201 H         1 UNK         0.0849 
     68 H68        19.4743  -27.2067  -44.5607 H         1 UNK         0.0849 
     69 H69        17.5045  -27.6341  -46.2453 H         1 UNK         0.0865 
     70 H70        17.7595  -28.7318  -47.5746 H         1 UNK         0.0865 
     71 H71        19.6158  -30.7193  -46.8389 H         1 UNK         0.1346 
     72 H72        18.0323  -32.7799  -43.4310 H         1 UNK         0.1412 
     73 H73        16.6942  -28.8107  -44.3434 H         1 UNK         0.1426 
     74 H74        15.9635  -31.9022  -42.4612 H         1 UNK         0.0716 
     75 H75        15.3907  -30.2989  -42.8090 H         1 UNK         0.0716 
     76 H76        16.3601  -28.1510  -40.1968 H         1 UNK         0.0695 
     77 H77        16.0983  -28.2820  -41.9073 H         1 UNK         0.0695 
     78 H78        18.6945  -28.3017  -42.1645 H         1 UNK         0.0983 
     79 H79        16.9191  -26.1809  -42.1139 H         1 UNK         0.3095 
     80 H80        17.3998  -23.9659  -42.4162 H         1 UNK         0.0454 
     81 H81        19.4793  -22.8758  -41.7209 H         1 UNK         0.0851 
     82 H82        18.8414  -22.1160  -43.1662 H         1 UNK         0.0851 
     83 H83        20.2375  -23.1752  -43.2652 H         1 UNK         0.0851 
     84 H84        16.9158  -24.1156  -44.5108 H         1 UNK         0.2976 
     85 H85        18.2886  -25.9343  -39.5736 H         1 UNK         0.3116 
     86 H86        19.7608  -27.2170  -37.5180 H         1 UNK         0.0646 
     87 H87        19.9686  -24.9001  -36.5990 H         1 UNK         0.0847 
     88 H88        19.3995  -24.2299  -38.1205 H         1 UNK         0.0847 
     89 H89        18.3289  -25.2252  -37.1311 H         1 UNK         0.0847 
     90 H90        20.8987  -25.6855  -40.4763 H         1 UNK         0.3040 
     91 H91        23.7234  -25.6275  -39.5314 H         1 UNK         0.1015 
     92 H92        24.1028  -24.3302  -41.6017 H         1 UNK         0.0786 
     93 H93        22.8154  -23.5840  -40.6700 H         1 UNK         0.0786 
     94 H94        22.4310  -24.5467  -42.0962 H         1 UNK         0.0786 
     95 H95        21.5676  -27.8070  -40.9946 H         1 UNK         0.3172 
     96 H96        23.3927  -28.9018  -43.0157 H         1 UNK         0.0595 
     97 H97        20.8911  -28.7496  -43.3781 H         1 UNK         0.0839 
     98 H98        20.6581  -29.9370  -42.1014 H         1 UNK         0.0839 
     99 H99        21.5317  -30.3681  -43.5588 H         1 UNK         0.0839 
    100 H100       24.9545  -29.0682  -41.0458 H         1 UNK         0.2998 
    101 H101       24.7098  -31.0307  -39.0643 H         1 UNK         0.0822 
    102 H102       27.1972  -30.8059  -38.8650 H         1 UNK         0.0787 
    103 H103       27.2526  -29.9560  -40.4036 H         1 UNK         0.0787 
    104 H104       26.4226  -29.2382  -39.0225 H         1 UNK         0.0787 
    105 H105       25.7245  -31.4459  -42.4166 H         1 UNK         0.3055 
    106 H106       26.7147  -34.1429  -42.1803 H         1 UNK         0.1106 
    107 H107       27.3578  -32.6357  -44.0582 H         1 UNK         0.0828 
    108 H108       26.5900  -34.0882  -44.6746 H         1 UNK         0.0828 
    109 H109       25.6841  -32.5834  -44.6165 H         1 UNK         0.0828 
    110 H110       23.4821  -32.8395  -42.2274 H         1 UNK         0.2931 
    111 H111       22.2455  -35.3563  -43.1418 H         1 UNK         0.0412 
    112 H112       23.4760  -34.3687  -40.1436 H         1 UNK         0.3472 
    113 H113       22.3514  -35.2649  -39.1509 H         1 UNK         0.3472 
    114 H114       20.1155  -34.0990  -43.0363 H         1 UNK         0.0970 
    115 H115       20.9358  -32.6843  -42.4366 H         1 UNK         0.0970 
    116 H116       19.8792  -33.1497  -46.6068 H         1 UNK         0.0612 
    117 H117       19.2469  -34.0135  -45.2337 H         1 UNK         0.0612 
@<TRIPOS>BOND
     1    1    2 1    
     2    1   62 1    
     3    1   63 1    
     4    1   64 1    
     5    2    3 2    
     6    2    4 am   BACKBONE|DICT|INTERRES
     7    4    5 1    
     8    4   65 1    
     9    5    6 1    
    10    5   25 1    
    11    5   66 1    
    12    6    7 1    
    13    6   67 1    
    14    6   68 1    
    15    7    8 1    
    16    8    9 1    
    17    8   69 1    
    18    8   70 1    
    19    9   10 ar   
    20    9   14 ar   
    21   10   11 ar   
    22   10   71 1    
    23   11   12 ar   
    24   11   61 1    
    25   12   13 ar   
    26   12   72 1    
    27   13   14 ar   
    28   13   15 1    
    29   14   73 1    
    30   15   16 1    
    31   15   74 1    
    32   15   75 1    
    33   16   17 1    
    34   17   18 1    
    35   17   76 1    
    36   17   77 1    
    37   18   19 1    
    38   18   27 1    
    39   18   78 1    
    40   19   20 am   BACKBONE|DICT|INTERRES
    41   19   79 1    
    42   20   21 2    
    43   20   22 1    
    44   22   23 1    
    45   22   24 1    
    46   22   80 1    
    47   23   81 1    
    48   23   82 1    
    49   23   83 1    
    50   24   25 am   BACKBONE|DICT|INTERRES
    51   24   84 1    
    52   25   26 2    
    53   27   28 2    
    54   27   29 am   BACKBONE|DICT|INTERRES
    55   29   30 1    
    56   29   85 1    
    57   30   31 1    
    58   30   32 1    
    59   30   86 1    
    60   31   87 1    
    61   31   88 1    
    62   31   89 1    
    63   32   33 2    
    64   32   34 am   BACKBONE|DICT|INTERRES
    65   34   35 1    
    66   34   90 1    
    67   35   36 1    
    68   35   37 1    
    69   35   91 1    
    70   36   92 1    
    71   36   93 1    
    72   36   94 1    
    73   37   38 2    
    74   37   39 am   BACKBONE|DICT|INTERRES
    75   39   40 1    
    76   39   95 1    
    77   40   41 1    
    78   40   42 1    
    79   40   96 1    
    80   41   97 1    
    81   41   98 1    
    82   41   99 1    
    83   42   43 2    
    84   42   44 am   BACKBONE|DICT|INTERRES
    85   44   45 1    
    86   44  100 1    
    87   45   46 1    
    88   45   47 1    
    89   45  101 1    
    90   46  102 1    
    91   46  103 1    
    92   46  104 1    
    93   47   48 2    
    94   47   49 am   BACKBONE|DICT|INTERRES
    95   49   50 1    
    96   49  105 1    
    97   50   51 1    
    98   50   52 1    
    99   50  106 1    
   100   51  107 1    
   101   51  108 1    
   102   51  109 1    
   103   52   53 2    
   104   52   54 am   BACKBONE|DICT|INTERRES
   105   54   55 1    
   106   54  110 1    
   107   55   56 1    
   108   55   59 1    
   109   55  111 1    
   110   56   57 am   BACKBONE|DICT|INTERRES
   111   56   58 2    
   112   57  112 1    
   113   57  113 1    
   114   59   60 1    
   115   59  114 1    
   116   59  115 1    
   117   60   61 1    
   118   61  116 1    
   119   61  117 1    
@<TRIPOS>SUBSTRUCTURE
     1 UNK         1 GROUP             0       ****    0 ROOT    
