@<TRIPOS>MOLECULE
3R8
117   119    1
SMALL
USER_CHARGES


@<TRIPOS>ATOM
      1 CA         16.5511  -24.4176  -49.8543 C.3       0 UNK        -0.2013 
      2 C          17.3819  -25.0989  -48.7770 C.2       0 UNK         0.4866 
      3 O          18.6094  -24.9984  -48.7956 O.2       0 UNK        -0.5176 
      4 N          16.7241  -25.7991  -47.8448 N.am      1 UNK        -0.4884 
      5 CA         17.3562  -26.4766  -46.7077 C.3       1 UNK         0.0853 
      6 C6         16.3897  -27.4767  -46.0294 C.3       10 UNK        -0.0849 
      7 S7         16.0513  -28.9327  -47.0752 S.3       10 UNK        -0.2776 
      8 C8         15.0421  -29.9690  -45.9599 C.3       10 UNK         0.0316 
      9 C9         15.7069  -30.1813  -44.6055 C.ar      10 UNK        -0.0863 
     10 C10        16.8733  -30.9445  -44.5013 C.ar      10 UNK        -0.1009 
     11 C11        17.5215  -31.0822  -43.2701 C.ar      10 UNK        -0.0712 
     12 C12        16.9828  -30.4748  -42.1324 C.ar      10 UNK        -0.0894 
     13 C13        15.8208  -29.7054  -42.2269 C.ar      10 UNK        -0.0745 
     14 C14        15.1819  -29.5698  -43.4628 C.ar      10 UNK        -0.0972 
     15 C15        15.2676  -28.9895  -41.0063 C.3       10 UNK         0.0209 
     16 S16        15.8905  -27.2807  -40.9192 S.3       10 UNK        -0.2568 
     17 C17        17.4283  -27.4608  -39.9488 C.3       10 UNK        -0.0983 
     18 CA         18.7335  -27.4939  -40.7890 C.3       3 UNK         0.0876 
     19 N          18.7743  -26.4261  -41.7995 N.am      3 UNK        -0.4424 
     20 C          19.7361  -26.2628  -42.7165 C.2       2 UNK         0.4918 
     21 O          20.7599  -26.9438  -42.7682 O.2       2 UNK        -0.4875 
     22 CA         19.4854  -25.1931  -43.7820 C.3       2 UNK         0.0481 
     23 CB         20.7769  -24.4610  -44.1893 C.3       2 UNK        -0.1831 
     24 N          18.9233  -25.8837  -44.9358 N.am      2 UNK        -0.4498 
     25 C          17.8798  -25.4699  -45.6624 C.2       1 UNK         0.5027 
     26 O          17.3074  -24.3886  -45.4985 O.2       1 UNK        -0.4969 
     27 C          19.9525  -27.4988  -39.8380 C.2       3 UNK         0.5005 
     28 O          20.3231  -28.5561  -39.3274 O.2       3 UNK        -0.5279 
     29 N          20.5368  -26.3150  -39.6065 N.am      4 UNK        -0.4463 
     30 CA         21.6688  -26.0863  -38.7081 C.3       4 UNK         0.0283 
     31 CB         21.5850  -24.6450  -38.1757 C.3       4 UNK        -0.1875 
     32 C          23.0458  -26.3433  -39.3494 C.2       4 UNK         0.4949 
     33 O          24.0504  -26.2073  -38.6492 O.2       4 UNK        -0.5039 
     34 N          23.1048  -26.6882  -40.6453 N.am      5 UNK        -0.4663 
     35 CA         24.3407  -26.8905  -41.4168 C.3       5 UNK         0.0242 
     36 CB         24.0176  -26.7550  -42.9160 C.3       5 UNK        -0.1982 
     37 C          25.0747  -28.2098  -41.0843 C.2       5 UNK         0.5017 
     38 O          25.3649  -28.9987  -41.9869 O.2       5 UNK        -0.5012 
     39 N          25.3701  -28.4116  -39.7925 N.am      6 UNK        -0.4439 
     40 CA         26.0080  -29.5776  -39.1681 C.3       6 UNK         0.0297 
     41 CB         27.4292  -29.7901  -39.7370 C.3       6 UNK        -0.2006 
     42 C          25.1532  -30.8579  -39.2561 C.2       6 UNK         0.4892 
     43 O          24.0572  -30.8491  -39.8202 O.2       6 UNK        -0.5089 
     44 N          25.6793  -31.9574  -38.6974 N.am      7 UNK        -0.4243 
     45 CA         25.0606  -33.2897  -38.7298 C.3       7 UNK         0.0196 
     46 CB         25.8612  -34.2424  -37.8272 C.3       7 UNK        -0.2007 
     47 C          24.9293  -33.8753  -40.1492 C.2       7 UNK         0.5020 
     48 O          24.0531  -34.7077  -40.3825 O.2       7 UNK        -0.5147 
     49 N          25.7869  -33.4185  -41.0723 N.am      8 UNK        -0.4734 
     50 CA         25.7391  -33.7484  -42.4976 C.3       8 UNK         0.0238 
     51 CB         27.0832  -33.3694  -43.1413 C.3       8 UNK        -0.1912 
     52 C          24.5787  -33.0679  -43.2486 C.2       8 UNK         0.5038 
     53 O          24.2033  -33.5573  -44.3146 O.2       8 UNK        -0.5046 
     54 N          24.0411  -31.9683  -42.6977 N.am      9 UNK        -0.4200 
     55 CA         22.9938  -31.1281  -43.2952 C.3       9 UNK         0.0839 
     56 C          23.4465  -30.4812  -44.6384 C.2       9 UNK         0.5513 
     57 N          24.5617  -29.7635  -44.6315 N.am      9 UNK        -0.7519 
     58 O          22.8181  -30.6376  -45.6829 O.2       9 UNK        -0.4960 
     59 C59        21.6234  -31.8587  -43.3577 C.3       10 UNK        -0.0876 
     60 S60        20.2281  -30.6896  -43.3369 S.3       10 UNK        -0.2414 
     61 C61        18.8328  -31.8412  -43.1783 C.3       10 UNK         0.0169 
     62 H62        16.8411  -24.7828  -50.8392 H         1 UNK         0.0903 
     63 H63        15.4847  -24.6021  -49.7252 H         1 UNK         0.0903 
     64 H64        16.7142  -23.3405  -49.8283 H         1 UNK         0.0903 
     65 H65        15.7154  -25.8409  -47.8719 H         1 UNK         0.3096 
     66 H66        18.2173  -27.0307  -47.0898 H         1 UNK         0.1121 
     67 H67        15.4469  -26.9950  -45.7624 H         1 UNK         0.0849 
     68 H68        16.8241  -27.8348  -45.0941 H         1 UNK         0.0849 
     69 H69        14.0603  -29.5080  -45.8409 H         1 UNK         0.0865 
     70 H70        14.8683  -30.9367  -46.4329 H         1 UNK         0.0865 
     71 H71        17.2974  -31.3976  -45.3873 H         1 UNK         0.1346 
     72 H72        17.4890  -30.5720  -41.1817 H         1 UNK         0.1412 
     73 H73        14.2912  -28.9605  -43.5381 H         1 UNK         0.1426 
     74 H74        15.5056  -29.5348  -40.0919 H         1 UNK         0.0716 
     75 H75        14.1784  -28.9606  -41.0635 H         1 UNK         0.0716 
     76 H76        17.4528  -26.6195  -39.2530 H         1 UNK         0.0695 
     77 H77        17.3583  -28.3545  -39.3261 H         1 UNK         0.0695 
     78 H78        18.7653  -28.4367  -41.3379 H         1 UNK         0.0983 
     79 H79        17.9464  -25.8495  -41.8518 H         1 UNK         0.3095 
     80 H80        18.7791  -24.4618  -43.3828 H         1 UNK         0.0454 
     81 H81        21.2464  -23.9877  -43.3262 H         1 UNK         0.0851 
     82 H82        21.5087  -25.1402  -44.6284 H         1 UNK         0.0851 
     83 H83        20.5715  -23.6776  -44.9188 H         1 UNK         0.0851 
     84 H84        19.3128  -26.8011  -45.1108 H         1 UNK         0.2976 
     85 H85        20.1632  -25.5044  -40.0790 H         1 UNK         0.3116 
     86 H86        21.5832  -26.7641  -37.8561 H         1 UNK         0.0646 
     87 H87        22.3775  -24.4460  -37.4528 H         1 UNK         0.0847 
     88 H88        20.6377  -24.4628  -37.6677 H         1 UNK         0.0847 
     89 H89        21.6847  -23.9112  -38.9765 H         1 UNK         0.0847 
     90 H90        22.2374  -26.8207  -41.1530 H         1 UNK         0.3040 
     91 H91        25.0322  -26.0839  -41.1631 H         1 UNK         0.1015 
     92 H92        23.5611  -25.7906  -43.1384 H         1 UNK         0.0786 
     93 H93        23.3319  -27.5343  -43.2501 H         1 UNK         0.0786 
     94 H94        24.9208  -26.8319  -43.5226 H         1 UNK         0.0786 
     95 H95        25.0388  -27.6941  -39.1506 H         1 UNK         0.3172 
     96 H96        26.0997  -29.3342  -38.1087 H         1 UNK         0.0595 
     97 H97        28.0001  -28.8615  -39.7286 H         1 UNK         0.0839 
     98 H98        27.4079  -30.1562  -40.7641 H         1 UNK         0.0839 
     99 H99        27.9944  -30.5120  -39.1471 H         1 UNK         0.0839 
    100 H100       26.5732  -31.8869  -38.2323 H         1 UNK         0.2998 
    101 H101       24.0511  -33.1978  -38.3233 H         1 UNK         0.0822 
    102 H102       25.8905  -33.8844  -36.7978 H         1 UNK         0.0787 
    103 H103       25.4088  -35.2351  -37.8096 H         1 UNK         0.0787 
    104 H104       26.8890  -34.3593  -38.1733 H         1 UNK         0.0787 
    105 H105       26.4826  -32.7470  -40.7826 H         1 UNK         0.3055 
    106 H106       25.6008  -34.8277  -42.5966 H         1 UNK         0.1106 
    107 H107       27.2776  -32.2982  -43.0703 H         1 UNK         0.0828 
    108 H108       27.9134  -33.8954  -42.6696 H         1 UNK         0.0828 
    109 H109       27.0963  -33.6320  -44.2002 H         1 UNK         0.0828 
    110 H110       24.4000  -31.6351  -41.8112 H         1 UNK         0.2931 
    111 H111       22.8835  -30.2986  -42.5946 H         1 UNK         0.0412 
    112 H112       24.8908  -29.3410  -45.4842 H         1 UNK         0.3472 
    113 H113       25.0330  -29.5786  -43.7492 H         1 UNK         0.3472 
    114 H114       21.5128  -32.5124  -42.4908 H         1 UNK         0.0970 
    115 H115       21.5556  -32.5048  -44.2348 H         1 UNK         0.0970 
    116 H116       18.8992  -32.3693  -42.2258 H         1 UNK         0.0612 
    117 H117       18.8905  -32.5971  -43.9632 H         1 UNK         0.0612 
@<TRIPOS>BOND
     1    1    2 1    
     2    1   62 1    
     3    1   63 1    
     4    1   64 1    
     5    2    3 2    
     6    2    4 am   BACKBONE|DICT|INTERRES
     7    4    5 1    
     8    4   65 1    
     9    5    6 1    
    10    5   25 1    
    11    5   66 1    
    12    6    7 1    
    13    6   67 1    
    14    6   68 1    
    15    7    8 1    
    16    8    9 1    
    17    8   69 1    
    18    8   70 1    
    19    9   10 ar   
    20    9   14 ar   
    21   10   11 ar   
    22   10   71 1    
    23   11   12 ar   
    24   11   61 1    
    25   12   13 ar   
    26   12   72 1    
    27   13   14 ar   
    28   13   15 1    
    29   14   73 1    
    30   15   16 1    
    31   15   74 1    
    32   15   75 1    
    33   16   17 1    
    34   17   18 1    
    35   17   76 1    
    36   17   77 1    
    37   18   19 1    
    38   18   27 1    
    39   18   78 1    
    40   19   20 am   BACKBONE|DICT|INTERRES
    41   19   79 1    
    42   20   21 2    
    43   20   22 1    
    44   22   23 1    
    45   22   24 1    
    46   22   80 1    
    47   23   81 1    
    48   23   82 1    
    49   23   83 1    
    50   24   25 am   BACKBONE|DICT|INTERRES
    51   24   84 1    
    52   25   26 2    
    53   27   28 2    
    54   27   29 am   BACKBONE|DICT|INTERRES
    55   29   30 1    
    56   29   85 1    
    57   30   31 1    
    58   30   32 1    
    59   30   86 1    
    60   31   87 1    
    61   31   88 1    
    62   31   89 1    
    63   32   33 2    
    64   32   34 am   BACKBONE|DICT|INTERRES
    65   34   35 1    
    66   34   90 1    
    67   35   36 1    
    68   35   37 1    
    69   35   91 1    
    70   36   92 1    
    71   36   93 1    
    72   36   94 1    
    73   37   38 2    
    74   37   39 am   BACKBONE|DICT|INTERRES
    75   39   40 1    
    76   39   95 1    
    77   40   41 1    
    78   40   42 1    
    79   40   96 1    
    80   41   97 1    
    81   41   98 1    
    82   41   99 1    
    83   42   43 2    
    84   42   44 am   BACKBONE|DICT|INTERRES
    85   44   45 1    
    86   44  100 1    
    87   45   46 1    
    88   45   47 1    
    89   45  101 1    
    90   46  102 1    
    91   46  103 1    
    92   46  104 1    
    93   47   48 2    
    94   47   49 am   BACKBONE|DICT|INTERRES
    95   49   50 1    
    96   49  105 1    
    97   50   51 1    
    98   50   52 1    
    99   50  106 1    
   100   51  107 1    
   101   51  108 1    
   102   51  109 1    
   103   52   53 2    
   104   52   54 am   BACKBONE|DICT|INTERRES
   105   54   55 1    
   106   54  110 1    
   107   55   56 1    
   108   55   59 1    
   109   55  111 1    
   110   56   57 am   BACKBONE|DICT|INTERRES
   111   56   58 2    
   112   57  112 1    
   113   57  113 1    
   114   59   60 1    
   115   59  114 1    
   116   59  115 1    
   117   60   61 1    
   118   61  116 1    
   119   61  117 1    
@<TRIPOS>SUBSTRUCTURE
     1 UNK         1 GROUP             0       ****    0 ROOT    
