@<TRIPOS>MOLECULE
3R8
117   119    1
SMALL
USER_CHARGES


@<TRIPOS>ATOM
      1 CA         11.8452  -24.6522  -46.1750 C.3       0 UNK        -0.2013 
      2 C          12.7032  -25.7358  -46.8106 C.2       0 UNK         0.4866 
      3 O          12.2046  -26.5153  -47.6234 O.2       0 UNK        -0.5176 
      4 N          13.9885  -25.7886  -46.4519 N.am      1 UNK        -0.4884 
      5 CA         14.9754  -26.7434  -46.9542 C.3       1 UNK         0.0853 
      6 C6         14.8347  -28.1508  -46.3069 C.3       10 UNK        -0.0849 
      7 S7         14.9757  -28.1686  -44.4821 S.3       10 UNK        -0.2776 
      8 C8         16.6507  -28.8585  -44.2814 C.3       10 UNK         0.0316 
      9 C9         17.3802  -28.3261  -43.0544 C.ar      10 UNK        -0.0863 
     10 C10        18.0768  -29.2057  -42.2218 C.ar      10 UNK        -0.1009 
     11 C11        18.8507  -28.7222  -41.1623 C.ar      10 UNK        -0.0712 
     12 C12        18.9006  -27.3461  -40.9181 C.ar      10 UNK        -0.0894 
     13 C13        18.1930  -26.4547  -41.7307 C.ar      10 UNK        -0.0745 
     14 C14        17.4334  -26.9530  -42.7943 C.ar      10 UNK        -0.0972 
     15 C15        18.2641  -24.9544  -41.4717 C.3       10 UNK         0.0209 
     16 S16        18.7647  -24.0071  -42.9484 S.3       10 UNK        -0.2568 
     17 C17        20.4751  -24.5856  -43.2136 C.3       10 UNK        -0.0983 
     18 CA         20.5788  -25.8204  -44.1493 C.3       3 UNK         0.0876 
     19 N          19.8903  -25.6095  -45.4252 N.am      3 UNK        -0.4424 
     20 C          19.4659  -26.5890  -46.2296 C.2       2 UNK         0.4918 
     21 O          19.6129  -27.7905  -45.9970 O.2       2 UNK        -0.4875 
     22 CA         18.7471  -26.1535  -47.5172 C.3       2 UNK         0.0481 
     23 CB         19.4860  -26.6753  -48.7607 C.3       2 UNK        -0.1831 
     24 N          17.3604  -26.6266  -47.5396 N.am      2 UNK        -0.4498 
     25 C          16.3752  -26.1202  -46.7847 C.2       1 UNK         0.5027 
     26 O          16.5327  -25.1838  -45.9950 O.2       1 UNK        -0.4969 
     27 C          22.0560  -26.2053  -44.3603 C.2       3 UNK         0.5005 
     28 O          22.6440  -25.8882  -45.3985 O.2       3 UNK        -0.5279 
     29 N          22.6390  -26.8349  -43.3371 N.am      4 UNK        -0.4463 
     30 CA         24.0565  -27.1586  -43.2104 C.3       4 UNK         0.0283 
     31 CB         24.3816  -28.4615  -43.9719 C.3       4 UNK        -0.1875 
     32 C          24.3729  -27.2566  -41.7099 C.2       4 UNK         0.4949 
     33 O          23.5491  -26.8530  -40.8840 O.2       4 UNK        -0.5039 
     34 N          25.5468  -27.8046  -41.3732 N.am      5 UNK        -0.4663 
     35 CA         25.8900  -28.2133  -40.0087 C.3       5 UNK         0.0242 
     36 CB         27.3810  -28.5832  -39.9542 C.3       5 UNK        -0.1982 
     37 C          25.0301  -29.4127  -39.5771 C.2       5 UNK         0.5017 
     38 O          24.7240  -30.2621  -40.4169 O.2       5 UNK        -0.5012 
     39 N          24.6943  -29.4914  -38.2821 N.am      6 UNK        -0.4439 
     40 CA         23.8210  -30.5219  -37.7004 C.3       6 UNK         0.0297 
     41 CB         23.6295  -30.2446  -36.2011 C.3       6 UNK        -0.2006 
     42 C          24.2988  -31.9690  -37.9222 C.2       6 UNK         0.4892 
     43 O          23.4679  -32.8662  -38.0597 O.2       6 UNK        -0.5089 
     44 N          25.6225  -32.1630  -37.9923 N.am      7 UNK        -0.4243 
     45 CA         26.2604  -33.4389  -38.3225 C.3       7 UNK         0.0196 
     46 CB         27.7556  -33.3530  -37.9753 C.3       7 UNK        -0.2007 
     47 C          26.0753  -33.8602  -39.7935 C.2       7 UNK         0.5020 
     48 O          26.2004  -35.0488  -40.0894 O.2       7 UNK        -0.5147 
     49 N          25.8003  -32.8986  -40.6856 N.am      8 UNK        -0.4734 
     50 CA         25.5791  -33.1266  -42.1119 C.3       8 UNK         0.0238 
     51 CB         26.2478  -32.0059  -42.9278 C.3       8 UNK        -0.1912 
     52 C          24.0818  -33.2219  -42.4319 C.2       8 UNK         0.5038 
     53 O          23.6779  -34.1808  -43.0916 O.2       8 UNK        -0.5046 
     54 N          23.2895  -32.2379  -41.9796 N.am      9 UNK        -0.4200 
     55 CA         21.8413  -32.1782  -42.2426 C.3       9 UNK         0.0839 
     56 C          20.9641  -33.0805  -41.3288 C.2       9 UNK         0.5513 
     57 N          21.4664  -33.6012  -40.2164 N.am      9 UNK        -0.7519 
     58 O          19.8040  -33.3265  -41.6487 O.2       9 UNK        -0.4960 
     59 C59        21.3084  -30.7250  -42.3387 C.3       10 UNK        -0.0876 
     60 S60        21.3932  -29.7689  -40.7847 S.3       10 UNK        -0.2414 
     61 C61        19.6429  -29.6837  -40.2872 C.3       10 UNK         0.0169 
     62 H62        11.4402  -23.9947  -46.9433 H         1 UNK         0.0903 
     63 H63        11.0118  -25.1020  -45.6367 H         1 UNK         0.0903 
     64 H64        12.4129  -24.0432  -45.4719 H         1 UNK         0.0903 
     65 H65        14.3822  -25.1092  -45.8110 H         1 UNK         0.3096 
     66 H66        14.8143  -26.8461  -48.0300 H         1 UNK         0.1121 
     67 H67        13.8566  -28.5631  -46.5591 H         1 UNK         0.0849 
     68 H68        15.5514  -28.8472  -46.7452 H         1 UNK         0.0849 
     69 H69        16.5753  -29.9465  -44.2508 H         1 UNK         0.0865 
     70 H70        17.2581  -28.6193  -45.1534 H         1 UNK         0.0865 
     71 H71        18.0414  -30.2689  -42.4163 H         1 UNK         0.1346 
     72 H72        19.5021  -26.9724  -40.1005 H         1 UNK         0.1412 
     73 H73        16.9097  -26.2638  -43.4435 H         1 UNK         0.1426 
     74 H74        18.9511  -24.7283  -40.6547 H         1 UNK         0.0716 
     75 H75        17.2803  -24.6090  -41.1516 H         1 UNK         0.0716 
     76 H76        20.9238  -24.7986  -42.2413 H         1 UNK         0.0695 
     77 H77        21.0404  -23.7486  -43.6282 H         1 UNK         0.0695 
     78 H78        20.1023  -26.6695  -43.6568 H         1 UNK         0.0983 
     79 H79        19.7269  -24.6489  -45.6868 H         1 UNK         0.3095 
     80 H80        18.7386  -25.0625  -47.5695 H         1 UNK         0.0454 
     81 H81        19.5090  -27.7653  -48.7919 H         1 UNK         0.0851 
     82 H82        20.5202  -26.3289  -48.7713 H         1 UNK         0.0851 
     83 H83        19.0177  -26.3224  -49.6796 H         1 UNK         0.0851 
     84 H84        17.1645  -27.4099  -48.1462 H         1 UNK         0.2976 
     85 H85        22.1193  -26.9917  -42.4805 H         1 UNK         0.3116 
     86 H86        24.6467  -26.3378  -43.6228 H         1 UNK         0.0646 
     87 H87        23.9878  -28.4430  -44.9880 H         1 UNK         0.0847 
     88 H88        25.4579  -28.6126  -44.0542 H         1 UNK         0.0847 
     89 H89        23.9698  -29.3361  -43.4691 H         1 UNK         0.0847 
     90 H90        26.1599  -28.1256  -42.1067 H         1 UNK         0.3040 
     91 H91        25.7020  -27.3744  -39.3348 H         1 UNK         0.1015 
     92 H92        27.6129  -29.4261  -40.6072 H         1 UNK         0.0786 
     93 H93        27.6789  -28.8633  -38.9429 H         1 UNK         0.0786 
     94 H94        28.0092  -27.7441  -40.2537 H         1 UNK         0.0786 
     95 H95        25.0035  -28.7603  -37.6573 H         1 UNK         0.3172 
     96 H96        22.8481  -30.4300  -38.1869 H         1 UNK         0.0595 
     97 H97        24.5747  -30.2814  -35.6583 H         1 UNK         0.0839 
     98 H98        22.9663  -30.9842  -35.7499 H         1 UNK         0.0839 
     99 H99        23.1802  -29.2660  -36.0312 H         1 UNK         0.0839 
    100 H100       26.2292  -31.3663  -37.8661 H         1 UNK         0.2998 
    101 H101       25.8078  -34.2154  -37.7019 H         1 UNK         0.0822 
    102 H102       28.2586  -34.2994  -38.1795 H         1 UNK         0.0787 
    103 H103       28.2619  -32.5828  -38.5587 H         1 UNK         0.0787 
    104 H104       27.9064  -33.1299  -36.9189 H         1 UNK         0.0787 
    105 H105       25.6367  -31.9517  -40.3576 H         1 UNK         0.3055 
    106 H106       26.0404  -34.0705  -42.4118 H         1 UNK         0.1106 
    107 H107       27.3227  -31.9774  -42.7501 H         1 UNK         0.0828 
    108 H108       26.1007  -32.1628  -43.9972 H         1 UNK         0.0828 
    109 H109       25.8449  -31.0227  -42.6859 H         1 UNK         0.0828 
    110 H110       23.6864  -31.4870  -41.4202 H         1 UNK         0.2931 
    111 H111       21.6956  -32.5894  -43.2439 H         1 UNK         0.0412 
    112 H112       20.8809  -34.1880  -39.6443 H         1 UNK         0.3472 
    113 H113       22.3916  -33.3557  -39.8910 H         1 UNK         0.3472 
    114 H114       21.8704  -30.1794  -43.0958 H         1 UNK         0.0970 
    115 H115       20.2861  -30.7371  -42.7129 H         1 UNK         0.0970 
    116 H116       19.5916  -29.3558  -39.2480 H         1 UNK         0.0612 
    117 H117       19.2055  -30.6830  -40.3128 H         1 UNK         0.0612 
@<TRIPOS>BOND
     1    1    2 1    
     2    1   62 1    
     3    1   63 1    
     4    1   64 1    
     5    2    3 2    
     6    2    4 am   BACKBONE|DICT|INTERRES
     7    4    5 1    
     8    4   65 1    
     9    5    6 1    
    10    5   25 1    
    11    5   66 1    
    12    6    7 1    
    13    6   67 1    
    14    6   68 1    
    15    7    8 1    
    16    8    9 1    
    17    8   69 1    
    18    8   70 1    
    19    9   10 ar   
    20    9   14 ar   
    21   10   11 ar   
    22   10   71 1    
    23   11   12 ar   
    24   11   61 1    
    25   12   13 ar   
    26   12   72 1    
    27   13   14 ar   
    28   13   15 1    
    29   14   73 1    
    30   15   16 1    
    31   15   74 1    
    32   15   75 1    
    33   16   17 1    
    34   17   18 1    
    35   17   76 1    
    36   17   77 1    
    37   18   19 1    
    38   18   27 1    
    39   18   78 1    
    40   19   20 am   BACKBONE|DICT|INTERRES
    41   19   79 1    
    42   20   21 2    
    43   20   22 1    
    44   22   23 1    
    45   22   24 1    
    46   22   80 1    
    47   23   81 1    
    48   23   82 1    
    49   23   83 1    
    50   24   25 am   BACKBONE|DICT|INTERRES
    51   24   84 1    
    52   25   26 2    
    53   27   28 2    
    54   27   29 am   BACKBONE|DICT|INTERRES
    55   29   30 1    
    56   29   85 1    
    57   30   31 1    
    58   30   32 1    
    59   30   86 1    
    60   31   87 1    
    61   31   88 1    
    62   31   89 1    
    63   32   33 2    
    64   32   34 am   BACKBONE|DICT|INTERRES
    65   34   35 1    
    66   34   90 1    
    67   35   36 1    
    68   35   37 1    
    69   35   91 1    
    70   36   92 1    
    71   36   93 1    
    72   36   94 1    
    73   37   38 2    
    74   37   39 am   BACKBONE|DICT|INTERRES
    75   39   40 1    
    76   39   95 1    
    77   40   41 1    
    78   40   42 1    
    79   40   96 1    
    80   41   97 1    
    81   41   98 1    
    82   41   99 1    
    83   42   43 2    
    84   42   44 am   BACKBONE|DICT|INTERRES
    85   44   45 1    
    86   44  100 1    
    87   45   46 1    
    88   45   47 1    
    89   45  101 1    
    90   46  102 1    
    91   46  103 1    
    92   46  104 1    
    93   47   48 2    
    94   47   49 am   BACKBONE|DICT|INTERRES
    95   49   50 1    
    96   49  105 1    
    97   50   51 1    
    98   50   52 1    
    99   50  106 1    
   100   51  107 1    
   101   51  108 1    
   102   51  109 1    
   103   52   53 2    
   104   52   54 am   BACKBONE|DICT|INTERRES
   105   54   55 1    
   106   54  110 1    
   107   55   56 1    
   108   55   59 1    
   109   55  111 1    
   110   56   57 am   BACKBONE|DICT|INTERRES
   111   56   58 2    
   112   57  112 1    
   113   57  113 1    
   114   59   60 1    
   115   59  114 1    
   116   59  115 1    
   117   60   61 1    
   118   61  116 1    
   119   61  117 1    
@<TRIPOS>SUBSTRUCTURE
     1 UNK         1 GROUP             0       ****    0 ROOT    
