@<TRIPOS>MOLECULE
3R8
117   119    1
SMALL
USER_CHARGES


@<TRIPOS>ATOM
      1 CA         17.8679  -23.0995  -40.8769 C.3       0 UNK        -0.2013 
      2 C          17.8243  -23.2803  -42.3871 C.2       0 UNK         0.4866 
      3 O          17.7840  -22.2926  -43.1221 O.2       0 UNK        -0.5176 
      4 N          17.8224  -24.5347  -42.8536 N.am      1 UNK        -0.4884 
      5 CA         17.8472  -24.8997  -44.2743 C.3       1 UNK         0.0853 
      6 C6         17.4453  -26.3804  -44.4887 C.3       10 UNK        -0.0849 
      7 S7         15.7176  -26.7307  -44.0142 S.3       10 UNK        -0.2776 
      8 C8         15.8858  -28.2610  -43.0212 C.3       10 UNK         0.0316 
      9 C9         16.5108  -29.4687  -43.7302 C.ar      10 UNK        -0.0863 
     10 C10        16.9051  -30.5643  -42.9528 C.ar      10 UNK        -0.1009 
     11 C11        17.5174  -31.6771  -43.5385 C.ar      10 UNK        -0.0712 
     12 C12        17.7558  -31.6852  -44.9143 C.ar      10 UNK        -0.0894 
     13 C13        17.3716  -30.6016  -45.7063 C.ar      10 UNK        -0.0745 
     14 C14        16.7160  -29.5178  -45.1165 C.ar      10 UNK        -0.0972 
     15 C15        17.7131  -30.5804  -47.1906 C.3       10 UNK         0.0209 
     16 S16        18.8268  -29.2005  -47.6317 S.3       10 UNK        -0.2568 
     17 C17        20.1411  -29.3380  -46.3668 C.3       10 UNK        -0.0983 
     18 CA         21.2559  -28.2626  -46.5043 C.3       3 UNK         0.0876 
     19 N          20.6828  -26.9186  -46.6239 N.am      3 UNK        -0.4424 
     20 C          21.2750  -25.8308  -47.1328 C.2       2 UNK         0.4918 
     21 O          22.3881  -25.8402  -47.6606 O.2       2 UNK        -0.4875 
     22 CA         20.4842  -24.5049  -47.0620 C.3       2 UNK         0.0481 
     23 CB         20.1081  -24.0275  -48.4748 C.3       2 UNK        -0.1831 
     24 N          19.2629  -24.5836  -46.2477 N.am      2 UNK        -0.4498 
     25 C          19.2319  -24.6374  -44.9075 C.2       1 UNK         0.5027 
     26 O          20.2380  -24.5580  -44.1993 O.2       1 UNK        -0.4969 
     27 C          22.2693  -28.3304  -45.3317 C.2       3 UNK         0.5005 
     28 O          22.7021  -27.2975  -44.8141 O.2       3 UNK        -0.5279 
     29 N          22.6110  -29.5473  -44.8837 N.am      4 UNK        -0.4463 
     30 CA         23.5259  -29.8406  -43.7694 C.3       4 UNK         0.0283 
     31 CB         23.9598  -31.3154  -43.8718 C.3       4 UNK        -0.1875 
     32 C          22.9581  -29.5103  -42.3684 C.2       4 UNK         0.4949 
     33 O          23.2198  -30.2486  -41.4146 O.2       4 UNK        -0.5039 
     34 N          22.1928  -28.4175  -42.2493 N.am      5 UNK        -0.4663 
     35 CA         21.4967  -27.9402  -41.0481 C.3       5 UNK         0.0242 
     36 CB         20.3647  -26.9895  -41.4777 C.3       5 UNK        -0.1982 
     37 C          22.4518  -27.3113  -40.0141 C.2       5 UNK         0.5017 
     38 O          22.2837  -26.1535  -39.6279 O.2       5 UNK        -0.5012 
     39 N          23.4423  -28.1040  -39.6011 N.am      6 UNK        -0.4439 
     40 CA         24.5090  -27.8008  -38.6471 C.3       6 UNK         0.0297 
     41 CB         25.4141  -26.6587  -39.1527 C.3       6 UNK        -0.2006 
     42 C          25.3500  -29.0589  -38.3854 C.2       6 UNK         0.4892 
     43 O          25.8275  -29.2388  -37.2649 O.2       6 UNK        -0.5089 
     44 N          25.5098  -29.9003  -39.4176 N.am      7 UNK        -0.4243 
     45 CA         26.1845  -31.1925  -39.3633 C.3       7 UNK         0.0196 
     46 CB         27.0855  -31.3378  -40.6077 C.3       7 UNK        -0.2007 
     47 C          25.1191  -32.2919  -39.2254 C.2       7 UNK         0.5020 
     48 O          24.5164  -32.4097  -38.1582 O.2       7 UNK        -0.5147 
     49 N          24.8884  -33.0653  -40.2959 N.am      8 UNK        -0.4734 
     50 CA         23.9743  -34.2141  -40.3451 C.3       8 UNK         0.0238 
     51 CB         24.0618  -34.8682  -41.7339 C.3       8 UNK        -0.1912 
     52 C          22.5074  -33.9010  -39.9959 C.2       8 UNK         0.5038 
     53 O          21.8262  -34.7760  -39.4590 O.2       8 UNK        -0.5046 
     54 N          22.0610  -32.6751  -40.2907 N.am      9 UNK        -0.4200 
     55 CA         20.7303  -32.1498  -39.9508 C.3       9 UNK         0.0839 
     56 C          20.7875  -31.0865  -38.8155 C.2       9 UNK         0.5513 
     57 N          21.8989  -30.9168  -38.1075 N.am      9 UNK        -0.7519 
     58 O          19.8008  -30.4011  -38.5620 O.2       9 UNK        -0.4960 
     59 C59        19.9845  -31.6291  -41.2100 C.3       10 UNK        -0.0876 
     60 S60        19.7344  -32.9345  -42.4600 S.3       10 UNK        -0.2414 
     61 C61        17.9314  -32.8749  -42.6958 C.3       10 UNK         0.0169 
     62 H62        17.8994  -24.0542  -40.3521 H         1 UNK         0.0903 
     63 H63        18.7520  -22.5288  -40.5937 H         1 UNK         0.0903 
     64 H64        16.9870  -22.5548  -40.5382 H         1 UNK         0.0903 
     65 H65        17.8610  -25.3059  -42.2042 H         1 UNK         0.3096 
     66 H66        17.1254  -24.2653  -44.7947 H         1 UNK         0.1121 
     67 H67        17.5386  -26.6558  -45.5406 H         1 UNK         0.0849 
     68 H68        18.1200  -27.0432  -43.9441 H         1 UNK         0.0849 
     69 H69        16.4726  -28.0247  -42.1321 H         1 UNK         0.0865 
     70 H70        14.8947  -28.5464  -42.6663 H         1 UNK         0.0865 
     71 H71        16.7381  -30.5488  -41.8842 H         1 UNK         0.1346 
     72 H72        18.2582  -32.5319  -45.3622 H         1 UNK         0.1412 
     73 H73        16.4099  -28.6989  -45.7502 H         1 UNK         0.1426 
     74 H74        16.7933  -30.4952  -47.7707 H         1 UNK         0.0716 
     75 H75        18.1831  -31.5173  -47.4936 H         1 UNK         0.0716 
     76 H76        19.6785  -29.2623  -45.3807 H         1 UNK         0.0695 
     77 H77        20.5567  -30.3443  -46.4395 H         1 UNK         0.0695 
     78 H78        21.8177  -28.4691  -47.4178 H         1 UNK         0.0983 
     79 H79        19.7643  -26.8053  -46.2294 H         1 UNK         0.3095 
     80 H80        21.1451  -23.7582  -46.6169 H         1 UNK         0.0454 
     81 H81        20.9960  -23.9102  -49.0977 H         1 UNK         0.0851 
     82 H82        19.4494  -24.7356  -48.9790 H         1 UNK         0.0851 
     83 H83        19.6065  -23.0600  -48.4478 H         1 UNK         0.0851 
     84 H84        18.3933  -24.6483  -46.7589 H         1 UNK         0.2976 
     85 H85        22.1922  -30.3516  -45.3281 H         1 UNK         0.3116 
     86 H86        24.4170  -29.2226  -43.8954 H         1 UNK         0.0646 
     87 H87        24.7145  -31.5591  -43.1245 H         1 UNK         0.0847 
     88 H88        24.3962  -31.5369  -44.8459 H         1 UNK         0.0847 
     89 H89        23.1181  -31.9921  -43.7170 H         1 UNK         0.0847 
     90 H90        22.1334  -27.8228  -43.0718 H         1 UNK         0.3040 
     91 H91        21.0303  -28.7938  -40.5572 H         1 UNK         0.1015 
     92 H92        20.7525  -26.1101  -41.9935 H         1 UNK         0.0786 
     93 H93        19.6637  -27.4905  -42.1446 H         1 UNK         0.0786 
     94 H94        19.7963  -26.6402  -40.6147 H         1 UNK         0.0786 
     95 H95        23.4301  -29.0500  -39.9731 H         1 UNK         0.3172 
     96 H96        24.0468  -27.5019  -37.7044 H         1 UNK         0.0595 
     97 H97        24.8739  -25.7151  -39.2240 H         1 UNK         0.0839 
     98 H98        25.8318  -26.8805  -40.1353 H         1 UNK         0.0839 
     99 H99        26.2504  -26.4934  -38.4719 H         1 UNK         0.0839 
    100 H100       25.0677  -29.6811  -40.2994 H         1 UNK         0.2998 
    101 H101       26.8227  -31.2525  -38.4790 H         1 UNK         0.0822 
    102 H102       27.8740  -30.5849  -40.6019 H         1 UNK         0.0787 
    103 H103       27.5786  -32.3109  -40.6286 H         1 UNK         0.0787 
    104 H104       26.5320  -31.2187  -41.5394 H         1 UNK         0.0787 
    105 H105       25.4251  -32.8839  -41.1311 H         1 UNK         0.3055 
    106 H106       24.3263  -34.9361  -39.6049 H         1 UNK         0.1106 
    107 H107       23.7473  -34.1840  -42.5226 H         1 UNK         0.0828 
    108 H108       25.0765  -35.1981  -41.9570 H         1 UNK         0.0828 
    109 H109       23.4183  -35.7473  -41.7922 H         1 UNK         0.0828 
    110 H110       22.6949  -32.0028  -40.7106 H         1 UNK         0.2931 
    111 H111       20.1197  -32.9538  -39.5367 H         1 UNK         0.0412 
    112 H112       21.9035  -30.2358  -37.3656 H         1 UNK         0.3472 
    113 H113       22.7094  -31.5092  -38.2504 H         1 UNK         0.3472 
    114 H114       20.5311  -30.8155  -41.6818 H         1 UNK         0.0970 
    115 H115       19.0159  -31.2123  -40.9309 H         1 UNK         0.0970 
    116 H116       17.4303  -32.8687  -41.7265 H         1 UNK         0.0612 
    117 H117       17.6144  -33.7910  -43.1962 H         1 UNK         0.0612 
@<TRIPOS>BOND
     1    1    2 1    
     2    1   62 1    
     3    1   63 1    
     4    1   64 1    
     5    2    3 2    
     6    2    4 am   BACKBONE|DICT|INTERRES
     7    4    5 1    
     8    4   65 1    
     9    5    6 1    
    10    5   25 1    
    11    5   66 1    
    12    6    7 1    
    13    6   67 1    
    14    6   68 1    
    15    7    8 1    
    16    8    9 1    
    17    8   69 1    
    18    8   70 1    
    19    9   10 ar   
    20    9   14 ar   
    21   10   11 ar   
    22   10   71 1    
    23   11   12 ar   
    24   11   61 1    
    25   12   13 ar   
    26   12   72 1    
    27   13   14 ar   
    28   13   15 1    
    29   14   73 1    
    30   15   16 1    
    31   15   74 1    
    32   15   75 1    
    33   16   17 1    
    34   17   18 1    
    35   17   76 1    
    36   17   77 1    
    37   18   19 1    
    38   18   27 1    
    39   18   78 1    
    40   19   20 am   BACKBONE|DICT|INTERRES
    41   19   79 1    
    42   20   21 2    
    43   20   22 1    
    44   22   23 1    
    45   22   24 1    
    46   22   80 1    
    47   23   81 1    
    48   23   82 1    
    49   23   83 1    
    50   24   25 am   BACKBONE|DICT|INTERRES
    51   24   84 1    
    52   25   26 2    
    53   27   28 2    
    54   27   29 am   BACKBONE|DICT|INTERRES
    55   29   30 1    
    56   29   85 1    
    57   30   31 1    
    58   30   32 1    
    59   30   86 1    
    60   31   87 1    
    61   31   88 1    
    62   31   89 1    
    63   32   33 2    
    64   32   34 am   BACKBONE|DICT|INTERRES
    65   34   35 1    
    66   34   90 1    
    67   35   36 1    
    68   35   37 1    
    69   35   91 1    
    70   36   92 1    
    71   36   93 1    
    72   36   94 1    
    73   37   38 2    
    74   37   39 am   BACKBONE|DICT|INTERRES
    75   39   40 1    
    76   39   95 1    
    77   40   41 1    
    78   40   42 1    
    79   40   96 1    
    80   41   97 1    
    81   41   98 1    
    82   41   99 1    
    83   42   43 2    
    84   42   44 am   BACKBONE|DICT|INTERRES
    85   44   45 1    
    86   44  100 1    
    87   45   46 1    
    88   45   47 1    
    89   45  101 1    
    90   46  102 1    
    91   46  103 1    
    92   46  104 1    
    93   47   48 2    
    94   47   49 am   BACKBONE|DICT|INTERRES
    95   49   50 1    
    96   49  105 1    
    97   50   51 1    
    98   50   52 1    
    99   50  106 1    
   100   51  107 1    
   101   51  108 1    
   102   51  109 1    
   103   52   53 2    
   104   52   54 am   BACKBONE|DICT|INTERRES
   105   54   55 1    
   106   54  110 1    
   107   55   56 1    
   108   55   59 1    
   109   55  111 1    
   110   56   57 am   BACKBONE|DICT|INTERRES
   111   56   58 2    
   112   57  112 1    
   113   57  113 1    
   114   59   60 1    
   115   59  114 1    
   116   59  115 1    
   117   60   61 1    
   118   61  116 1    
   119   61  117 1    
@<TRIPOS>SUBSTRUCTURE
     1 UNK         1 GROUP             0       ****    0 ROOT    
