@<TRIPOS>MOLECULE
3R8
117   119    1
SMALL
USER_CHARGES


@<TRIPOS>ATOM
      1 CA         18.7757  -24.1087  -40.4547 C.3       0 UNK        -0.2013 
      2 C          18.6026  -23.9592  -41.9585 C.2       0 UNK         0.4866 
      3 O          19.2778  -23.1361  -42.5760 O.2       0 UNK        -0.5176 
      4 N          17.6980  -24.7452  -42.5537 N.am      1 UNK        -0.4884 
      5 CA         17.4766  -24.8306  -43.9978 C.3       1 UNK         0.0853 
      6 C6         16.1090  -25.4816  -44.3470 C.3       10 UNK        -0.0849 
      7 S7         15.6959  -27.0037  -43.4093 S.3       10 UNK        -0.2776 
      8 C8         15.5666  -28.2832  -44.7063 C.3       10 UNK         0.0316 
      9 C9         16.6447  -29.3498  -44.5649 C.ar      10 UNK        -0.0863 
     10 C10        16.5806  -30.2703  -43.5134 C.ar      10 UNK        -0.1009 
     11 C11        17.5636  -31.2530  -43.3744 C.ar      10 UNK        -0.0712 
     12 C12        18.5962  -31.3294  -44.3102 C.ar      10 UNK        -0.0894 
     13 C13        18.6887  -30.4074  -45.3594 C.ar      10 UNK        -0.0745 
     14 C14        17.6984  -29.4263  -45.4841 C.ar      10 UNK        -0.0972 
     15 C15        19.8326  -30.4713  -46.3730 C.3       10 UNK         0.0209 
     16 S16        21.4062  -31.0578  -45.6516 S.3       10 UNK        -0.2568 
     17 C17        22.5853  -29.7036  -45.9879 C.3       10 UNK        -0.0983 
     18 CA         22.4873  -28.4188  -45.1163 C.3       3 UNK         0.0876 
     19 N          21.6249  -27.4183  -45.7485 N.am      3 UNK        -0.4424 
     20 C          21.5860  -26.1144  -45.4450 C.2       2 UNK         0.4918 
     21 O          22.2606  -25.6022  -44.5519 O.2       2 UNK        -0.4875 
     22 CA         20.6038  -25.2367  -46.2500 C.3       2 UNK         0.0481 
     23 CB         20.0863  -25.9041  -47.5453 C.3       2 UNK        -0.1831 
     24 N          19.4673  -24.7764  -45.4428 N.am      2 UNK        -0.4498 
     25 C          18.6619  -25.5373  -44.6856 C.2       1 UNK         0.5027 
     26 O          18.8294  -26.7445  -44.5163 O.2       1 UNK        -0.4969 
     27 C          22.1749  -28.6609  -43.6184 C.2       3 UNK         0.5005 
     28 O          23.0595  -29.1128  -42.8867 O.2       3 UNK        -0.5279 
     29 N          20.9658  -28.3013  -43.1560 N.am      4 UNK        -0.4463 
     30 CA         20.5890  -28.3465  -41.7403 C.3       4 UNK         0.0283 
     31 CB         19.0805  -28.1206  -41.5875 C.3       4 UNK        -0.1875 
     32 C          21.3670  -27.3414  -40.8746 C.2       4 UNK         0.4949 
     33 O          21.5491  -27.6006  -39.6863 O.2       4 UNK        -0.5039 
     34 N          21.8660  -26.2472  -41.4732 N.am      5 UNK        -0.4663 
     35 CA         22.7490  -25.2815  -40.8063 C.3       5 UNK         0.0242 
     36 CB         22.8657  -24.0092  -41.6594 C.3       5 UNK        -0.1982 
     37 C          24.1450  -25.8569  -40.5029 C.2       5 UNK         0.5017 
     38 O          24.7948  -25.3956  -39.5649 O.2       5 UNK        -0.5012 
     39 N          24.5633  -26.8688  -41.2767 N.am      6 UNK        -0.4439 
     40 CA         25.7737  -27.6611  -41.0494 C.3       6 UNK         0.0297 
     41 CB         26.3659  -28.0602  -42.4129 C.3       6 UNK        -0.2006 
     42 C          25.5001  -28.9098  -40.1866 C.2       6 UNK         0.4892 
     43 O          26.4386  -29.6619  -39.9213 O.2       6 UNK        -0.5089 
     44 N          24.2352  -29.1185  -39.7822 N.am      7 UNK        -0.4243 
     45 CA         23.7039  -30.2688  -39.0425 C.3       7 UNK         0.0196 
     46 CB         24.2744  -30.3122  -37.6088 C.3       7 UNK        -0.2007 
     47 C          23.8704  -31.6002  -39.8011 C.2       7 UNK         0.5020 
     48 O          24.1117  -32.6357  -39.1794 O.2       7 UNK        -0.5147 
     49 N          23.7347  -31.5582  -41.1345 N.am      8 UNK        -0.4734 
     50 CA         23.9286  -32.7109  -42.0214 C.3       8 UNK         0.0238 
     51 CB         24.3683  -32.2007  -43.4028 C.3       8 UNK        -0.1912 
     52 C          22.7050  -33.6450  -42.1265 C.2       8 UNK         0.5038 
     53 O          22.7700  -34.6213  -42.8758 O.2       8 UNK        -0.5046 
     54 N          21.6219  -33.3430  -41.3964 N.am      9 UNK        -0.4200 
     55 CA         20.3957  -34.1518  -41.2988 C.3       9 UNK         0.0839 
     56 C          20.6558  -35.5950  -40.7848 C.2       9 UNK         0.5513 
     57 N          19.9667  -36.5844  -41.3368 N.am      9 UNK        -0.7519 
     58 O          21.4352  -35.8157  -39.8601 O.2       9 UNK        -0.4960 
     59 C59        19.3211  -33.4646  -40.4139 C.3       10 UNK        -0.0876 
     60 S60        18.8614  -31.8082  -41.0169 S.3       10 UNK        -0.2414 
     61 C61        17.5452  -32.2230  -42.2056 C.3       10 UNK         0.0169 
     62 H62        19.8067  -24.3714  -40.2207 H         1 UNK         0.0903 
     63 H63        18.5415  -23.1694  -39.9547 H         1 UNK         0.0903 
     64 H64        18.1283  -24.8835  -40.0444 H         1 UNK         0.0903 
     65 H65        17.1700  -25.4147  -42.0108 H         1 UNK         0.3096 
     66 H66        17.4394  -23.8081  -44.3811 H         1 UNK         0.1121 
     67 H67        15.3187  -24.7622  -44.1268 H         1 UNK         0.0849 
     68 H68        16.0331  -25.6577  -45.4211 H         1 UNK         0.0849 
     69 H69        14.5876  -28.7581  -44.6271 H         1 UNK         0.0865 
     70 H70        15.5981  -27.8368  -45.7005 H         1 UNK         0.0865 
     71 H71        15.7777  -30.2043  -42.7918 H         1 UNK         0.1346 
     72 H72        19.3448  -32.1004  -44.1938 H         1 UNK         0.1412 
     73 H73        17.7540  -28.7084  -46.2908 H         1 UNK         0.1426 
     74 H74        19.5455  -31.1522  -47.1752 H         1 UNK         0.0716 
     75 H75        19.9808  -29.4964  -46.8371 H         1 UNK         0.0716 
     76 H76        23.5774  -30.1345  -45.8437 H         1 UNK         0.0695 
     77 H77        22.5453  -29.4576  -47.0504 H         1 UNK         0.0695 
     78 H78        23.4858  -27.9749  -45.1198 H         1 UNK         0.0983 
     79 H79        21.0011  -27.7558  -46.4645 H         1 UNK         0.3095 
     80 H80        21.1616  -24.3447  -46.5389 H         1 UNK         0.0454 
     81 H81        19.4474  -26.7647  -47.3432 H         1 UNK         0.0851 
     82 H82        19.5012  -25.1995  -48.1364 H         1 UNK         0.0851 
     83 H83        20.9104  -26.2364  -48.1784 H         1 UNK         0.0851 
     84 H84        19.3054  -23.7787  -45.4540 H         1 UNK         0.2976 
     85 H85        20.2760  -27.9186  -43.7985 H         1 UNK         0.3116 
     86 H86        20.8177  -29.3487  -41.3716 H         1 UNK         0.0646 
     87 H87        18.7632  -28.2795  -40.5563 H         1 UNK         0.0847 
     88 H88        18.5139  -28.8081  -42.2117 H         1 UNK         0.0847 
     89 H89        18.7951  -27.1093  -41.8665 H         1 UNK         0.0847 
     90 H90        21.7034  -26.1072  -42.4642 H         1 UNK         0.3040 
     91 H91        22.2940  -25.0108  -39.8507 H         1 UNK         0.1015 
     92 H92        21.8870  -23.5856  -41.8828 H         1 UNK         0.0786 
     93 H93        23.3726  -24.2010  -42.6055 H         1 UNK         0.0786 
     94 H94        23.4382  -23.2423  -41.1358 H         1 UNK         0.0786 
     95 H95        23.9460  -27.2036  -42.0059 H         1 UNK         0.3172 
     96 H96        26.5148  -27.0563  -40.5229 H         1 UNK         0.0595 
     97 H97        27.3106  -28.5911  -42.2878 H         1 UNK         0.0839 
     98 H98        26.5684  -27.1849  -43.0303 H         1 UNK         0.0839 
     99 H99        25.6976  -28.7177  -42.9698 H         1 UNK         0.0839 
    100 H100       23.5428  -28.4251  -40.0354 H         1 UNK         0.2998 
    101 H101       22.6284  -30.1045  -38.9609 H         1 UNK         0.0822 
    102 H102       24.1275  -29.3620  -37.0954 H         1 UNK         0.0787 
    103 H103       23.7789  -31.0803  -37.0137 H         1 UNK         0.0787 
    104 H104       25.3416  -30.5359  -37.6034 H         1 UNK         0.0787 
    105 H105       23.5302  -30.6711  -41.5866 H         1 UNK         0.3055 
    106 H106       24.7434  -33.3199  -41.6228 H         1 UNK         0.1106 
    107 H107       24.5784  -33.0262  -44.0840 H         1 UNK         0.0828 
    108 H108       23.5941  -31.5889  -43.8604 H         1 UNK         0.0828 
    109 H109       25.2740  -31.5976  -43.3348 H         1 UNK         0.0828 
    110 H110       21.6586  -32.5209  -40.8144 H         1 UNK         0.2931 
    111 H111       19.9989  -34.2264  -42.3134 H         1 UNK         0.0412 
    112 H112       20.1085  -37.5258  -41.0042 H         1 UNK         0.3472 
    113 H113       19.3179  -36.4128  -42.0896 H         1 UNK         0.3472 
    114 H114       19.6832  -33.3622  -39.3890 H         1 UNK         0.0970 
    115 H115       18.4185  -34.0761  -40.3515 H         1 UNK         0.0970 
    116 H116       16.5808  -32.2090  -41.6956 H         1 UNK         0.0612 
    117 H117       17.6836  -33.2362  -42.5857 H         1 UNK         0.0612 
@<TRIPOS>BOND
     1    1    2 1    
     2    1   62 1    
     3    1   63 1    
     4    1   64 1    
     5    2    3 2    
     6    2    4 am   BACKBONE|DICT|INTERRES
     7    4    5 1    
     8    4   65 1    
     9    5    6 1    
    10    5   25 1    
    11    5   66 1    
    12    6    7 1    
    13    6   67 1    
    14    6   68 1    
    15    7    8 1    
    16    8    9 1    
    17    8   69 1    
    18    8   70 1    
    19    9   10 ar   
    20    9   14 ar   
    21   10   11 ar   
    22   10   71 1    
    23   11   12 ar   
    24   11   61 1    
    25   12   13 ar   
    26   12   72 1    
    27   13   14 ar   
    28   13   15 1    
    29   14   73 1    
    30   15   16 1    
    31   15   74 1    
    32   15   75 1    
    33   16   17 1    
    34   17   18 1    
    35   17   76 1    
    36   17   77 1    
    37   18   19 1    
    38   18   27 1    
    39   18   78 1    
    40   19   20 am   BACKBONE|DICT|INTERRES
    41   19   79 1    
    42   20   21 2    
    43   20   22 1    
    44   22   23 1    
    45   22   24 1    
    46   22   80 1    
    47   23   81 1    
    48   23   82 1    
    49   23   83 1    
    50   24   25 am   BACKBONE|DICT|INTERRES
    51   24   84 1    
    52   25   26 2    
    53   27   28 2    
    54   27   29 am   BACKBONE|DICT|INTERRES
    55   29   30 1    
    56   29   85 1    
    57   30   31 1    
    58   30   32 1    
    59   30   86 1    
    60   31   87 1    
    61   31   88 1    
    62   31   89 1    
    63   32   33 2    
    64   32   34 am   BACKBONE|DICT|INTERRES
    65   34   35 1    
    66   34   90 1    
    67   35   36 1    
    68   35   37 1    
    69   35   91 1    
    70   36   92 1    
    71   36   93 1    
    72   36   94 1    
    73   37   38 2    
    74   37   39 am   BACKBONE|DICT|INTERRES
    75   39   40 1    
    76   39   95 1    
    77   40   41 1    
    78   40   42 1    
    79   40   96 1    
    80   41   97 1    
    81   41   98 1    
    82   41   99 1    
    83   42   43 2    
    84   42   44 am   BACKBONE|DICT|INTERRES
    85   44   45 1    
    86   44  100 1    
    87   45   46 1    
    88   45   47 1    
    89   45  101 1    
    90   46  102 1    
    91   46  103 1    
    92   46  104 1    
    93   47   48 2    
    94   47   49 am   BACKBONE|DICT|INTERRES
    95   49   50 1    
    96   49  105 1    
    97   50   51 1    
    98   50   52 1    
    99   50  106 1    
   100   51  107 1    
   101   51  108 1    
   102   51  109 1    
   103   52   53 2    
   104   52   54 am   BACKBONE|DICT|INTERRES
   105   54   55 1    
   106   54  110 1    
   107   55   56 1    
   108   55   59 1    
   109   55  111 1    
   110   56   57 am   BACKBONE|DICT|INTERRES
   111   56   58 2    
   112   57  112 1    
   113   57  113 1    
   114   59   60 1    
   115   59  114 1    
   116   59  115 1    
   117   60   61 1    
   118   61  116 1    
   119   61  117 1    
@<TRIPOS>SUBSTRUCTURE
     1 UNK         1 GROUP             0       ****    0 ROOT    
