@<TRIPOS>MOLECULE
3R8
117   119    1
SMALL
USER_CHARGES


@<TRIPOS>ATOM
      1 CA         19.1102  -24.3842  -39.3634 C.3       0 UNK        -0.2013 
      2 C          19.1230  -24.4186  -40.8848 C.2       0 UNK         0.4866 
      3 O          19.3128  -23.3819  -41.5206 O.2       0 UNK        -0.5176 
      4 N          18.9155  -25.6030  -41.4720 N.am      1 UNK        -0.4884 
      5 CA         18.9029  -25.8345  -42.9174 C.3       1 UNK         0.0853 
      6 C6         18.2740  -27.1990  -43.3020 C.3       10 UNK        -0.0849 
      7 S7         16.6803  -27.5526  -42.4865 S.3       10 UNK        -0.2776 
      8 C8         15.9744  -28.8694  -43.5360 C.3       10 UNK         0.0316 
      9 C9         17.0096  -29.8655  -44.0498 C.ar      10 UNK        -0.0863 
     10 C10        17.7001  -30.7050  -43.1690 C.ar      10 UNK        -0.1009 
     11 C11        18.6418  -31.6226  -43.6507 C.ar      10 UNK        -0.0712 
     12 C12        18.8917  -31.6907  -45.0267 C.ar      10 UNK        -0.0894 
     13 C13        18.2134  -30.8509  -45.9157 C.ar      10 UNK        -0.0745 
     14 C14        17.2722  -29.9449  -45.4201 C.ar      10 UNK        -0.0972 
     15 C15        18.4801  -30.9223  -47.4152 C.3       10 UNK         0.0209 
     16 S16        20.1354  -30.3156  -47.8838 S.3       10 UNK        -0.2568 
     17 C17        20.1418  -28.6069  -47.2273 C.3       10 UNK        -0.0983 
     18 CA         21.5419  -27.9713  -46.9929 C.3       3 UNK         0.0876 
     19 N          21.3830  -26.6664  -46.3368 N.am      3 UNK        -0.4424 
     20 C          22.3489  -25.8397  -45.9068 C.2       2 UNK         0.4918 
     21 O          23.5513  -26.0165  -46.1021 O.2       2 UNK        -0.4875 
     22 CA         21.8950  -24.6368  -45.0573 C.3       2 UNK         0.0481 
     23 CB         21.8405  -23.3646  -45.9169 C.3       2 UNK        -0.1831 
     24 N          20.6008  -24.8289  -44.3869 N.am      2 UNK        -0.4498 
     25 C          20.3394  -25.7682  -43.4653 C.2       1 UNK         0.5027 
     26 O          21.1600  -26.6059  -43.0768 O.2       1 UNK        -0.4969 
     27 C          22.4977  -28.9109  -46.2180 C.2       3 UNK         0.5005 
     28 O          23.2952  -29.6151  -46.8407 O.2       3 UNK        -0.5279 
     29 N          22.4260  -28.8712  -44.8816 N.am      4 UNK        -0.4463 
     30 CA         23.2777  -29.6340  -43.9759 C.3       4 UNK         0.0283 
     31 CB         22.4650  -30.7944  -43.3802 C.3       4 UNK        -0.1875 
     32 C          23.8603  -28.6920  -42.9151 C.2       4 UNK         0.4949 
     33 O          23.8137  -29.0075  -41.7248 O.2       4 UNK        -0.5039 
     34 N          24.3644  -27.5340  -43.3705 N.am      5 UNK        -0.4663 
     35 CA         24.9916  -26.4307  -42.6256 C.3       5 UNK         0.0242 
     36 CB         26.2937  -26.8913  -41.9410 C.3       5 UNK        -0.1982 
     37 C          24.0637  -25.7145  -41.6272 C.2       5 UNK         0.5017 
     38 O          23.9200  -24.4940  -41.7012 O.2       5 UNK        -0.5012 
     39 N          23.4610  -26.4849  -40.7201 N.am      6 UNK        -0.4439 
     40 CA         22.4986  -26.0590  -39.7125 C.3       6 UNK         0.0297 
     41 CB         23.2263  -25.4408  -38.5019 C.3       6 UNK        -0.2006 
     42 C          21.5995  -27.2494  -39.3429 C.2       6 UNK         0.4892 
     43 O          21.4502  -27.5604  -38.1608 O.2       6 UNK        -0.5089 
     44 N          21.0300  -27.8994  -40.3709 N.am      7 UNK        -0.4243 
     45 CA         20.1468  -29.0741  -40.2940 C.3       7 UNK         0.0196 
     46 CB         18.8097  -28.7219  -39.6044 C.3       7 UNK        -0.2007 
     47 C          20.8071  -30.3165  -39.6602 C.2       7 UNK         0.5020 
     48 O          20.1321  -31.0842  -38.9710 O.2       7 UNK        -0.5147 
     49 N          22.1048  -30.5291  -39.9170 N.am      8 UNK        -0.4734 
     50 CA         22.8752  -31.6742  -39.4214 C.3       8 UNK         0.0238 
     51 CB         24.3684  -31.2966  -39.3934 C.3       8 UNK        -0.1912 
     52 C          22.6015  -32.9525  -40.2409 C.2       8 UNK         0.5038 
     53 O          23.5164  -33.4860  -40.8714 O.2       8 UNK        -0.5046 
     54 N          21.3406  -33.4043  -40.2400 N.am      9 UNK        -0.4200 
     55 CA         20.8820  -34.6461  -40.8802 C.3       9 UNK         0.0839 
     56 C          21.5560  -35.9037  -40.2611 C.2       9 UNK         0.5513 
     57 N          21.8690  -36.9040  -41.0733 N.am      9 UNK        -0.7519 
     58 O          21.7506  -35.9977  -39.0506 O.2       9 UNK        -0.4960 
     59 C59        19.3355  -34.7930  -40.8164 C.3       10 UNK        -0.0876 
     60 S60        18.2851  -33.6032  -41.7370 S.3       10 UNK        -0.2414 
     61 C61        19.4041  -32.5266  -42.6888 C.3       10 UNK         0.0169 
     62 H62        20.0344  -23.9457  -38.9882 H         1 UNK         0.0903 
     63 H63        18.2783  -23.7752  -39.0106 H         1 UNK         0.0903 
     64 H64        19.0081  -25.3800  -38.9321 H         1 UNK         0.0903 
     65 H65        18.7528  -26.4222  -40.9062 H         1 UNK         0.3096 
     66 H66        18.3034  -25.0454  -43.3772 H         1 UNK         0.1121 
     67 H67        18.9454  -28.0236  -43.0560 H         1 UNK         0.0849 
     68 H68        18.1268  -27.2418  -44.3828 H         1 UNK         0.0849 
     69 H69        15.2144  -29.4053  -42.9658 H         1 UNK         0.0865 
     70 H70        15.4490  -28.3992  -44.3686 H         1 UNK         0.0865 
     71 H71        17.5038  -30.6440  -42.1071 H         1 UNK         0.1346 
     72 H72        19.6206  -32.3911  -45.4111 H         1 UNK         0.1412 
     73 H73        16.7437  -29.2964  -46.1057 H         1 UNK         0.1426 
     74 H74        18.3803  -31.9572  -47.7452 H         1 UNK         0.0716 
     75 H75        17.7307  -30.3546  -47.9692 H         1 UNK         0.0716 
     76 H76        19.5930  -28.5998  -46.2854 H         1 UNK         0.0695 
     77 H77        19.5646  -27.9851  -47.9134 H         1 UNK         0.0695 
     78 H78        22.0014  -27.7873  -47.9662 H         1 UNK         0.0983 
     79 H79        20.4323  -26.3928  -46.1418 H         1 UNK         0.3095 
     80 H80        22.6468  -24.4892  -44.2795 H         1 UNK         0.0454 
     81 H81        21.0854  -23.4364  -46.7007 H         1 UNK         0.0851 
     82 H82        22.7992  -23.1817  -46.4045 H         1 UNK         0.0851 
     83 H83        21.6163  -22.4858  -45.3121 H         1 UNK         0.0851 
     84 H84        19.8718  -24.1725  -44.6294 H         1 UNK         0.2976 
     85 H85        21.7994  -28.2059  -44.4420 H         1 UNK         0.3116 
     86 H86        24.1316  -30.0558  -44.5098 H         1 UNK         0.0646 
     87 H87        22.0818  -31.4508  -44.1615 H         1 UNK         0.0847 
     88 H88        21.6164  -30.4276  -42.8053 H         1 UNK         0.0847 
     89 H89        23.0823  -31.4037  -42.7205 H         1 UNK         0.0847 
     90 H90        24.2829  -27.3668  -44.3665 H         1 UNK         0.3040 
     91 H91        25.2637  -25.6878  -43.3778 H         1 UNK         0.1015 
     92 H92        26.1128  -27.6553  -41.1841 H         1 UNK         0.0786 
     93 H93        26.7892  -26.0555  -41.4451 H         1 UNK         0.0786 
     94 H94        26.9973  -27.3004  -42.6660 H         1 UNK         0.0786 
     95 H95        23.6162  -27.4892  -40.8069 H         1 UNK         0.3172 
     96 H96        21.8537  -25.2980  -40.1535 H         1 UNK         0.0595 
     97 H97        23.8969  -26.1589  -38.0286 H         1 UNK         0.0839 
     98 H98        22.5145  -25.1077  -37.7456 H         1 UNK         0.0839 
     99 H99        23.8167  -24.5719  -38.7924 H         1 UNK         0.0839 
    100 H100       21.2263  -27.5529  -41.3066 H         1 UNK         0.2998 
    101 H101       19.9203  -29.3513  -41.3237 H         1 UNK         0.0822 
    102 H102       18.3313  -27.8557  -40.0524 H         1 UNK         0.0787 
    103 H103       18.1014  -29.5476  -39.6845 H         1 UNK         0.0787 
    104 H104       18.9446  -28.5153  -38.5422 H         1 UNK         0.0787 
    105 H105       22.6068  -29.8852  -40.5230 H         1 UNK         0.3055 
    106 H106       22.5724  -31.8830  -38.3925 H         1 UNK         0.1106 
    107 H107       24.7584  -31.1097  -40.3945 H         1 UNK         0.0828 
    108 H108       24.9650  -32.0989  -38.9575 H         1 UNK         0.0828 
    109 H109       24.5414  -30.4021  -38.7949 H         1 UNK         0.0828 
    110 H110       20.6527  -32.8812  -39.7088 H         1 UNK         0.2931 
    111 H111       21.1862  -34.6036  -41.9267 H         1 UNK         0.0412 
    112 H112       21.7039  -36.8417  -42.0663 H         1 UNK         0.3472 
    113 H113       22.2909  -37.7350  -40.6881 H         1 UNK         0.3472 
    114 H114       19.0091  -34.7762  -39.7747 H         1 UNK         0.0970 
    115 H115       19.0487  -35.7792  -41.1878 H         1 UNK         0.0970 
    116 H116       20.1190  -33.1379  -43.2394 H         1 UNK         0.0612 
    117 H117       19.9731  -31.9041  -42.0018 H         1 UNK         0.0612 
@<TRIPOS>BOND
     1    1    2 1    
     2    1   62 1    
     3    1   63 1    
     4    1   64 1    
     5    2    3 2    
     6    2    4 am   BACKBONE|DICT|INTERRES
     7    4    5 1    
     8    4   65 1    
     9    5    6 1    
    10    5   25 1    
    11    5   66 1    
    12    6    7 1    
    13    6   67 1    
    14    6   68 1    
    15    7    8 1    
    16    8    9 1    
    17    8   69 1    
    18    8   70 1    
    19    9   10 ar   
    20    9   14 ar   
    21   10   11 ar   
    22   10   71 1    
    23   11   12 ar   
    24   11   61 1    
    25   12   13 ar   
    26   12   72 1    
    27   13   14 ar   
    28   13   15 1    
    29   14   73 1    
    30   15   16 1    
    31   15   74 1    
    32   15   75 1    
    33   16   17 1    
    34   17   18 1    
    35   17   76 1    
    36   17   77 1    
    37   18   19 1    
    38   18   27 1    
    39   18   78 1    
    40   19   20 am   BACKBONE|DICT|INTERRES
    41   19   79 1    
    42   20   21 2    
    43   20   22 1    
    44   22   23 1    
    45   22   24 1    
    46   22   80 1    
    47   23   81 1    
    48   23   82 1    
    49   23   83 1    
    50   24   25 am   BACKBONE|DICT|INTERRES
    51   24   84 1    
    52   25   26 2    
    53   27   28 2    
    54   27   29 am   BACKBONE|DICT|INTERRES
    55   29   30 1    
    56   29   85 1    
    57   30   31 1    
    58   30   32 1    
    59   30   86 1    
    60   31   87 1    
    61   31   88 1    
    62   31   89 1    
    63   32   33 2    
    64   32   34 am   BACKBONE|DICT|INTERRES
    65   34   35 1    
    66   34   90 1    
    67   35   36 1    
    68   35   37 1    
    69   35   91 1    
    70   36   92 1    
    71   36   93 1    
    72   36   94 1    
    73   37   38 2    
    74   37   39 am   BACKBONE|DICT|INTERRES
    75   39   40 1    
    76   39   95 1    
    77   40   41 1    
    78   40   42 1    
    79   40   96 1    
    80   41   97 1    
    81   41   98 1    
    82   41   99 1    
    83   42   43 2    
    84   42   44 am   BACKBONE|DICT|INTERRES
    85   44   45 1    
    86   44  100 1    
    87   45   46 1    
    88   45   47 1    
    89   45  101 1    
    90   46  102 1    
    91   46  103 1    
    92   46  104 1    
    93   47   48 2    
    94   47   49 am   BACKBONE|DICT|INTERRES
    95   49   50 1    
    96   49  105 1    
    97   50   51 1    
    98   50   52 1    
    99   50  106 1    
   100   51  107 1    
   101   51  108 1    
   102   51  109 1    
   103   52   53 2    
   104   52   54 am   BACKBONE|DICT|INTERRES
   105   54   55 1    
   106   54  110 1    
   107   55   56 1    
   108   55   59 1    
   109   55  111 1    
   110   56   57 am   BACKBONE|DICT|INTERRES
   111   56   58 2    
   112   57  112 1    
   113   57  113 1    
   114   59   60 1    
   115   59  114 1    
   116   59  115 1    
   117   60   61 1    
   118   61  116 1    
   119   61  117 1    
@<TRIPOS>SUBSTRUCTURE
     1 UNK         1 GROUP             0       ****    0 ROOT    
