@<TRIPOS>MOLECULE
3R8
117   119    1
SMALL
USER_CHARGES


@<TRIPOS>ATOM
      1 CA         16.4354  -24.6536  -48.8334 C.3       0 UNK        -0.2013 
      2 C          17.8523  -25.0440  -48.4402 C.2       0 UNK         0.4866 
      3 O          18.7442  -25.0534  -49.2894 O.2       0 UNK        -0.5176 
      4 N          18.0679  -25.3615  -47.1610 N.am      1 UNK        -0.4884 
      5 CA         19.3534  -25.7567  -46.5877 C.3       1 UNK         0.0853 
      6 C6         19.7148  -27.2385  -46.8871 C.3       10 UNK        -0.0849 
      7 S7         18.4703  -28.4510  -46.3119 S.3       10 UNK        -0.2776 
      8 C8         19.3877  -29.2519  -44.9649 C.3       10 UNK         0.0316 
      9 C9         18.4764  -30.1073  -44.1006 C.ar      10 UNK        -0.0863 
     10 C10        18.3381  -31.4765  -44.3527 C.ar      10 UNK        -0.1009 
     11 C11        17.5102  -32.2621  -43.5452 C.ar      10 UNK        -0.0712 
     12 C12        16.8340  -31.6720  -42.4731 C.ar      10 UNK        -0.0894 
     13 C13        16.9548  -30.3025  -42.2181 C.ar      10 UNK        -0.0745 
     14 C14        17.7757  -29.5247  -43.0403 C.ar      10 UNK        -0.0972 
     15 C15        16.1560  -29.6669  -41.0865 C.3       10 UNK         0.0209 
     16 S16        17.2032  -29.1678  -39.6801 S.3       10 UNK        -0.2568 
     17 C17        17.6667  -27.4620  -40.1353 C.3       10 UNK        -0.0983 
     18 CA         19.1765  -27.3328  -40.4555 C.3       3 UNK         0.0876 
     19 N          19.4199  -26.2792  -41.4415 N.am      3 UNK        -0.4424 
     20 C          20.4990  -26.2147  -42.2276 C.2       2 UNK         0.4918 
     21 O          21.3453  -27.1053  -42.3154 O.2       2 UNK        -0.4875 
     22 CA         20.6588  -24.9340  -43.0605 C.3       2 UNK         0.0481 
     23 CB         22.0226  -24.2695  -42.8061 C.3       2 UNK        -0.1831 
     24 N          20.5059  -25.2232  -44.4863 N.am      2 UNK        -0.4498 
     25 C          19.3248  -25.4335  -45.0829 C.2       1 UNK         0.5027 
     26 O          18.2409  -25.3699  -44.4935 O.2       1 UNK        -0.4969 
     27 C          20.0078  -27.0526  -39.1860 C.2       3 UNK         0.5005 
     28 O          20.2536  -25.8844  -38.8708 O.2       3 UNK        -0.5279 
     29 N          20.4091  -28.1217  -38.4793 N.am      4 UNK        -0.4463 
     30 CA         21.2696  -28.1109  -37.2843 C.3       4 UNK         0.0283 
     31 CB         20.5250  -27.5006  -36.0777 C.3       4 UNK        -0.1875 
     32 C          22.6397  -27.4478  -37.5451 C.2       4 UNK         0.4949 
     33 O          23.1296  -26.6722  -36.7224 O.2       4 UNK        -0.5039 
     34 N          23.2194  -27.7621  -38.7066 N.am      5 UNK        -0.4663 
     35 CA         24.4772  -27.2376  -39.2267 C.3       5 UNK         0.0242 
     36 CB         24.2001  -25.9259  -39.9870 C.3       5 UNK        -0.1982 
     37 C          25.0940  -28.2999  -40.1459 C.2       5 UNK         0.5017 
     38 O          24.4687  -29.3347  -40.3879 O.2       5 UNK        -0.5012 
     39 N          26.2915  -28.0205  -40.6775 N.am      6 UNK        -0.4439 
     40 CA         27.0455  -28.9104  -41.5732 C.3       6 UNK         0.0297 
     41 CB         28.4146  -28.2784  -41.8738 C.3       6 UNK        -0.2006 
     42 C          26.3261  -29.2800  -42.8880 C.2       6 UNK         0.4892 
     43 O          26.6638  -30.3013  -43.4872 O.2       6 UNK        -0.5089 
     44 N          25.3565  -28.4565  -43.3094 N.am      7 UNK        -0.4243 
     45 CA         24.5082  -28.6950  -44.4781 C.3       7 UNK         0.0196 
     46 CB         23.9547  -27.3488  -44.9740 C.3       7 UNK        -0.2007 
     47 C          23.3503  -29.6762  -44.2122 C.2       7 UNK         0.5020 
     48 O          22.7403  -30.1332  -45.1791 O.2       7 UNK        -0.5147 
     49 N          23.0358  -29.9651  -42.9400 N.am      8 UNK        -0.4734 
     50 CA         21.9294  -30.8414  -42.5448 C.3       8 UNK         0.0238 
     51 CB         21.6377  -30.6606  -41.0472 C.3       8 UNK        -0.1912 
     52 C          22.2077  -32.3174  -42.8699 C.2       8 UNK         0.5038 
     53 O          23.3685  -32.7351  -42.9050 O.2       8 UNK        -0.5046 
     54 N          21.1299  -33.0800  -43.0838 N.am      9 UNK        -0.4200 
     55 CA         21.1709  -34.5229  -43.3485 C.3       9 UNK         0.0839 
     56 C          21.6346  -35.3694  -42.1276 C.2       9 UNK         0.5513 
     57 N          22.1320  -36.5753  -42.3682 N.am      9 UNK        -0.7519 
     58 O          21.5267  -34.9613  -40.9725 O.2       9 UNK        -0.4960 
     59 C59        19.8319  -35.0237  -43.9499 C.3       10 UNK        -0.0876 
     60 S60        18.3796  -34.8093  -42.8583 S.3       10 UNK        -0.2414 
     61 C61        17.2948  -33.7372  -43.8505 C.3       10 UNK         0.0169 
     62 H62        16.4222  -23.6403  -49.2336 H         1 UNK         0.0903 
     63 H63        16.0602  -25.3290  -49.6018 H         1 UNK         0.0903 
     64 H64        15.7519  -24.6927  -47.9853 H         1 UNK         0.0903 
     65 H65        17.3219  -25.3147  -46.4766 H         1 UNK         0.3096 
     66 H66        20.1233  -25.1199  -47.0303 H         1 UNK         0.1121 
     67 H67        20.6938  -27.4835  -46.4710 H         1 UNK         0.0849 
     68 H68        19.8247  -27.3703  -47.9646 H         1 UNK         0.0849 
     69 H69        20.1794  -29.8635  -45.3977 H         1 UNK         0.0865 
     70 H70        19.8795  -28.4987  -44.3472 H         1 UNK         0.0865 
     71 H71        18.8616  -31.9258  -45.1859 H         1 UNK         0.1346 
     72 H72        16.1907  -32.2801  -41.8515 H         1 UNK         0.1412 
     73 H73        17.8650  -28.4619  -42.8641 H         1 UNK         0.1426 
     74 H74        15.4117  -30.3722  -40.7137 H         1 UNK         0.0716 
     75 H75        15.5876  -28.8164  -41.4648 H         1 UNK         0.0716 
     76 H76        17.3636  -26.7863  -39.3326 H         1 UNK         0.0695 
     77 H77        17.0714  -27.1595  -40.9977 H         1 UNK         0.0695 
     78 H78        19.5232  -28.2708  -40.8945 H         1 UNK         0.0983 
     79 H79        18.7907  -25.4903  -41.4151 H         1 UNK         0.3095 
     80 H80        19.8887  -24.2181  -42.7641 H         1 UNK         0.0454 
     81 H81        22.8549  -24.9128  -43.0898 H         1 UNK         0.0851 
     82 H82        22.1447  -24.0313  -41.7485 H         1 UNK         0.0851 
     83 H83        22.1180  -23.3353  -43.3594 H         1 UNK         0.0851 
     84 H84        21.3567  -25.3116  -45.0225 H         1 UNK         0.2976 
     85 H85        20.1133  -29.0362  -38.7929 H         1 UNK         0.3116 
     86 H86        21.4787  -29.1549  -37.0462 H         1 UNK         0.0646 
     87 H87        20.3261  -26.4378  -36.2186 H         1 UNK         0.0847 
     88 H88        21.1128  -27.6015  -35.1645 H         1 UNK         0.0847 
     89 H89        19.5718  -28.0001  -35.9049 H         1 UNK         0.0847 
     90 H90        22.8001  -28.4709  -39.2944 H         1 UNK         0.3040 
     91 H91        25.1689  -27.0554  -38.4012 H         1 UNK         0.1015 
     92 H92        23.5500  -26.0941  -40.8463 H         1 UNK         0.0786 
     93 H93        25.1206  -25.4703  -40.3530 H         1 UNK         0.0786 
     94 H94        23.7136  -25.1914  -39.3447 H         1 UNK         0.0786 
     95 H95        26.7360  -27.1461  -40.4350 H         1 UNK         0.3172 
     96 H96        27.2148  -29.8437  -41.0321 H         1 UNK         0.0595 
     97 H97        29.0140  -28.9295  -42.5121 H         1 UNK         0.0839 
     98 H98        28.9864  -28.1115  -40.9608 H         1 UNK         0.0839 
     99 H99        28.3139  -27.3223  -42.3891 H         1 UNK         0.0839 
    100 H100       25.1472  -27.6411  -42.7532 H         1 UNK         0.2998 
    101 H101       25.1220  -29.1234  -45.2737 H         1 UNK         0.0822 
    102 H102       23.3811  -27.4783  -45.8928 H         1 UNK         0.0787 
    103 H103       23.2902  -26.8984  -44.2376 H         1 UNK         0.0787 
    104 H104       24.7552  -26.6407  -45.1891 H         1 UNK         0.0787 
    105 H105       23.6161  -29.6062  -42.1894 H         1 UNK         0.3055 
    106 H106       21.0483  -30.5250  -43.1018 H         1 UNK         0.1106 
    107 H107       20.7162  -31.1713  -40.7644 H         1 UNK         0.0828 
    108 H108       22.4390  -31.0683  -40.4296 H         1 UNK         0.0828 
    109 H109       21.5212  -29.6077  -40.7957 H         1 UNK         0.0828 
    110 H110       20.2074  -32.6827  -42.9789 H         1 UNK         0.2931 
    111 H111       21.9300  -34.6649  -44.1209 H         1 UNK         0.0412 
    112 H112       22.4291  -37.1459  -41.5917 H         1 UNK         0.3472 
    113 H113       22.2247  -36.9250  -43.3095 H         1 UNK         0.3472 
    114 H114       19.9064  -36.0821  -44.2057 H         1 UNK         0.0970 
    115 H115       19.6569  -34.5158  -44.8990 H         1 UNK         0.0970 
    116 H116       16.2598  -34.0015  -43.6282 H         1 UNK         0.0612 
    117 H117       17.4264  -33.9372  -44.9147 H         1 UNK         0.0612 
@<TRIPOS>BOND
     1    1    2 1    
     2    1   62 1    
     3    1   63 1    
     4    1   64 1    
     5    2    3 2    
     6    2    4 am   BACKBONE|DICT|INTERRES
     7    4    5 1    
     8    4   65 1    
     9    5    6 1    
    10    5   25 1    
    11    5   66 1    
    12    6    7 1    
    13    6   67 1    
    14    6   68 1    
    15    7    8 1    
    16    8    9 1    
    17    8   69 1    
    18    8   70 1    
    19    9   10 ar   
    20    9   14 ar   
    21   10   11 ar   
    22   10   71 1    
    23   11   12 ar   
    24   11   61 1    
    25   12   13 ar   
    26   12   72 1    
    27   13   14 ar   
    28   13   15 1    
    29   14   73 1    
    30   15   16 1    
    31   15   74 1    
    32   15   75 1    
    33   16   17 1    
    34   17   18 1    
    35   17   76 1    
    36   17   77 1    
    37   18   19 1    
    38   18   27 1    
    39   18   78 1    
    40   19   20 am   BACKBONE|DICT|INTERRES
    41   19   79 1    
    42   20   21 2    
    43   20   22 1    
    44   22   23 1    
    45   22   24 1    
    46   22   80 1    
    47   23   81 1    
    48   23   82 1    
    49   23   83 1    
    50   24   25 am   BACKBONE|DICT|INTERRES
    51   24   84 1    
    52   25   26 2    
    53   27   28 2    
    54   27   29 am   BACKBONE|DICT|INTERRES
    55   29   30 1    
    56   29   85 1    
    57   30   31 1    
    58   30   32 1    
    59   30   86 1    
    60   31   87 1    
    61   31   88 1    
    62   31   89 1    
    63   32   33 2    
    64   32   34 am   BACKBONE|DICT|INTERRES
    65   34   35 1    
    66   34   90 1    
    67   35   36 1    
    68   35   37 1    
    69   35   91 1    
    70   36   92 1    
    71   36   93 1    
    72   36   94 1    
    73   37   38 2    
    74   37   39 am   BACKBONE|DICT|INTERRES
    75   39   40 1    
    76   39   95 1    
    77   40   41 1    
    78   40   42 1    
    79   40   96 1    
    80   41   97 1    
    81   41   98 1    
    82   41   99 1    
    83   42   43 2    
    84   42   44 am   BACKBONE|DICT|INTERRES
    85   44   45 1    
    86   44  100 1    
    87   45   46 1    
    88   45   47 1    
    89   45  101 1    
    90   46  102 1    
    91   46  103 1    
    92   46  104 1    
    93   47   48 2    
    94   47   49 am   BACKBONE|DICT|INTERRES
    95   49   50 1    
    96   49  105 1    
    97   50   51 1    
    98   50   52 1    
    99   50  106 1    
   100   51  107 1    
   101   51  108 1    
   102   51  109 1    
   103   52   53 2    
   104   52   54 am   BACKBONE|DICT|INTERRES
   105   54   55 1    
   106   54  110 1    
   107   55   56 1    
   108   55   59 1    
   109   55  111 1    
   110   56   57 am   BACKBONE|DICT|INTERRES
   111   56   58 2    
   112   57  112 1    
   113   57  113 1    
   114   59   60 1    
   115   59  114 1    
   116   59  115 1    
   117   60   61 1    
   118   61  116 1    
   119   61  117 1    
@<TRIPOS>SUBSTRUCTURE
     1 UNK         1 GROUP             0       ****    0 ROOT    
