@<TRIPOS>MOLECULE
3R8
117   119    1
SMALL
USER_CHARGES


@<TRIPOS>ATOM
      1 CA         15.8352  -30.6336  -41.4609 C.3       0 UNK        -0.2013 
      2 C          15.3735  -29.3057  -42.0440 C.2       0 UNK         0.4866 
      3 O          14.2335  -28.9050  -41.8068 O.2       0 UNK        -0.5176 
      4 N          16.2401  -28.6221  -42.8019 N.am      1 UNK        -0.4884 
      5 CA         15.9889  -27.3029  -43.3756 C.3       1 UNK         0.0853 
      6 C6         14.9583  -27.3133  -44.5463 C.3       10 UNK        -0.0849 
      7 S7         15.5667  -27.8140  -46.1930 S.3       10 UNK        -0.2776 
      8 C8         15.6240  -29.6337  -46.0774 C.3       10 UNK         0.0316 
      9 C9         17.0571  -30.1307  -45.9447 C.ar      10 UNK        -0.0863 
     10 C10        17.4545  -30.9061  -44.8507 C.ar      10 UNK        -0.1009 
     11 C11        18.7824  -31.3280  -44.7215 C.ar      10 UNK        -0.0712 
     12 C12        19.7083  -30.9900  -45.7141 C.ar      10 UNK        -0.0894 
     13 C13        19.3216  -30.2172  -46.8123 C.ar      10 UNK        -0.0745 
     14 C14        17.9934  -29.8073  -46.9298 C.ar      10 UNK        -0.0972 
     15 C15        20.3387  -29.7874  -47.8576 C.3       10 UNK         0.0209 
     16 S16        20.6650  -27.9967  -47.7695 S.3       10 UNK        -0.2568 
     17 C17        21.4929  -27.8719  -46.1514 C.3       10 UNK        -0.0983 
     18 CA         21.4153  -26.4505  -45.5483 C.3       3 UNK         0.0876 
     19 N          20.0365  -26.0115  -45.2832 N.am      3 UNK        -0.4424 
     20 C          19.7084  -24.7641  -44.9186 C.2       2 UNK         0.4918 
     21 O          20.5363  -23.8579  -44.8117 O.2       2 UNK        -0.4875 
     22 CA         18.2320  -24.4236  -44.6296 C.3       2 UNK         0.0481 
     23 CB         17.6925  -23.4730  -45.7125 C.3       2 UNK        -0.1831 
     24 N          17.2693  -25.5196  -44.4633 N.am      2 UNK        -0.4498 
     25 C          17.3228  -26.5610  -43.6214 C.2       1 UNK         0.5027 
     26 O          18.3425  -26.9121  -43.0203 O.2       1 UNK        -0.4969 
     27 C          22.3212  -26.3734  -44.3013 C.2       3 UNK         0.5005 
     28 O          23.5030  -26.0583  -44.4489 O.2       3 UNK        -0.5279 
     29 N          21.7550  -26.6560  -43.1147 N.am      4 UNK        -0.4463 
     30 CA         22.4242  -26.7369  -41.8093 C.3       4 UNK         0.0283 
     31 CB         22.8386  -25.3327  -41.3166 C.3       4 UNK        -0.1875 
     32 C          23.5738  -27.7657  -41.8176 C.2       4 UNK         0.4949 
     33 O          23.2963  -28.9629  -41.7271 O.2       4 UNK        -0.5039 
     34 N          24.8175  -27.2799  -41.9520 N.am      5 UNK        -0.4663 
     35 CA         26.0670  -28.0283  -42.1450 C.3       5 UNK         0.0242 
     36 CB         26.0177  -28.7824  -43.4946 C.3       5 UNK        -0.1982 
     37 C          26.4379  -28.9545  -40.9693 C.2       5 UNK         0.5017 
     38 O          25.8222  -28.8953  -39.9026 O.2       5 UNK        -0.5012 
     39 N          27.4455  -29.8121  -41.1912 N.am      6 UNK        -0.4439 
     40 CA         27.9076  -30.8437  -40.2525 C.3       6 UNK         0.0297 
     41 CB         29.2076  -31.4672  -40.7860 C.3       6 UNK        -0.2006 
     42 C          26.8602  -31.9392  -39.9706 C.2       6 UNK         0.4892 
     43 O          26.9555  -32.6163  -38.9468 O.2       6 UNK        -0.5089 
     44 N          25.8700  -32.0721  -40.8651 N.am      7 UNK        -0.4243 
     45 CA         24.6742  -32.8982  -40.6939 C.3       7 UNK         0.0196 
     46 CB         23.9514  -33.0020  -42.0465 C.3       7 UNK        -0.2007 
     47 C          23.7138  -32.3668  -39.6109 C.2       7 UNK         0.5020 
     48 O          22.8835  -33.1379  -39.1294 O.2       7 UNK        -0.5147 
     49 N          23.8458  -31.0802  -39.2465 N.am      8 UNK        -0.4734 
     50 CA         23.0646  -30.3495  -38.2434 C.3       8 UNK         0.0238 
     51 CB         23.3388  -30.8990  -36.8269 C.3       8 UNK        -0.1912 
     52 C          21.5666  -30.2843  -38.5919 C.2       8 UNK         0.5038 
     53 O          20.7193  -30.5142  -37.7263 O.2       8 UNK        -0.5046 
     54 N          21.2720  -29.9698  -39.8599 N.am      9 UNK        -0.4200 
     55 CA         19.9086  -29.8338  -40.3967 C.3       9 UNK         0.0839 
     56 C          19.1200  -28.6020  -39.8597 C.2       9 UNK         0.5513 
     57 N          19.7479  -27.6328  -39.2037 N.am      9 UNK        -0.7519 
     58 O          17.9067  -28.5375  -40.0218 O.2       9 UNK        -0.4960 
     59 C59        19.9018  -29.8728  -41.9477 C.3       10 UNK        -0.0876 
     60 S60        20.6188  -31.4124  -42.6174 S.3       10 UNK        -0.2414 
     61 C61        19.2152  -32.1545  -43.5155 C.3       10 UNK         0.0169 
     62 H62        15.6495  -30.6520  -40.3872 H         1 UNK         0.0903 
     63 H63        15.2871  -31.4577  -41.9163 H         1 UNK         0.0903 
     64 H64        16.8994  -30.8007  -41.6136 H         1 UNK         0.0903 
     65 H65        17.1916  -28.9407  -42.9188 H         1 UNK         0.3096 
     66 H66        15.5289  -26.7206  -42.5734 H         1 UNK         0.1121 
     67 H67        14.0981  -27.9343  -44.2934 H         1 UNK         0.0849 
     68 H68        14.5397  -26.3119  -44.6583 H         1 UNK         0.0849 
     69 H69        15.0053  -29.9806  -45.2485 H         1 UNK         0.0865 
     70 H70        15.1884  -30.0580  -46.9831 H         1 UNK         0.0865 
     71 H71        16.7288  -31.1800  -44.0992 H         1 UNK         0.1346 
     72 H72        20.7369  -31.3091  -45.6152 H         1 UNK         0.1412 
     73 H73        17.6952  -29.2030  -47.7761 H         1 UNK         0.1426 
     74 H74        19.9604  -30.0318  -48.8512 H         1 UNK         0.0716 
     75 H75        21.2767  -30.3326  -47.7409 H         1 UNK         0.0716 
     76 H76        21.0612  -28.5909  -45.4543 H         1 UNK         0.0695 
     77 H77        22.5320  -28.1749  -46.2972 H         1 UNK         0.0695 
     78 H78        21.8360  -25.7562  -46.2794 H         1 UNK         0.0983 
     79 H79        19.3096  -26.7084  -45.3561 H         1 UNK         0.3095 
     80 H80        18.2328  -23.8791  -43.6835 H         1 UNK         0.0454 
     81 H81        18.3456  -22.6088  -45.8437 H         1 UNK         0.0851 
     82 H82        17.6148  -23.9709  -46.6799 H         1 UNK         0.0851 
     83 H83        16.7068  -23.0875  -45.4518 H         1 UNK         0.0851 
     84 H84        16.3989  -25.3925  -44.9595 H         1 UNK         0.2976 
     85 H85        20.7657  -26.8734  -43.1148 H         1 UNK         0.3116 
     86 H86        21.6820  -27.1174  -41.1090 H         1 UNK         0.0646 
     87 H87        23.3398  -25.3875  -40.3491 H         1 UNK         0.0847 
     88 H88        21.9641  -24.6951  -41.1867 H         1 UNK         0.0847 
     89 H89        23.5093  -24.8254  -42.0104 H         1 UNK         0.0847 
     90 H90        24.9076  -26.2757  -42.0124 H         1 UNK         0.3040 
     91 H91        26.8590  -27.2801  -42.2048 H         1 UNK         0.1015 
     92 H92        25.6918  -28.1228  -44.2995 H         1 UNK         0.0786 
     93 H93        25.3269  -29.6262  -43.4631 H         1 UNK         0.0786 
     94 H94        26.9963  -29.1666  -43.7831 H         1 UNK         0.0786 
     95 H95        27.9117  -29.7810  -42.0869 H         1 UNK         0.3172 
     96 H96        28.1277  -30.3537  -39.3017 H         1 UNK         0.0595 
     97 H97        29.5933  -32.2168  -40.0932 H         1 UNK         0.0839 
     98 H98        29.9877  -30.7161  -40.9117 H         1 UNK         0.0839 
     99 H99        29.0559  -31.9609  -41.7467 H         1 UNK         0.0839 
    100 H100       25.8902  -31.4774  -41.6800 H         1 UNK         0.2998 
    101 H101       24.9901  -33.8985  -40.3901 H         1 UNK         0.0822 
    102 H102       24.5863  -33.4619  -42.8039 H         1 UNK         0.0787 
    103 H103       23.0514  -33.6133  -41.9640 H         1 UNK         0.0787 
    104 H104       23.6447  -32.0212  -42.4133 H         1 UNK         0.0787 
    105 H105       24.5496  -30.5206  -39.7179 H         1 UNK         0.3055 
    106 H106       23.4257  -29.3198  -38.2703 H         1 UNK         0.1106 
    107 H107       22.9606  -31.9144  -36.7044 H         1 UNK         0.0828 
    108 H108       24.4062  -30.9098  -36.6064 H         1 UNK         0.0828 
    109 H109       22.8579  -30.2803  -36.0683 H         1 UNK         0.0828 
    110 H110       22.0294  -29.8042  -40.5174 H         1 UNK         0.2931 
    111 H111       19.3500  -30.7075  -40.0547 H         1 UNK         0.0412 
    112 H112       20.7356  -27.6883  -39.0221 H         1 UNK         0.3472 
    113 H113       19.2125  -26.8526  -38.8572 H         1 UNK         0.3472 
    114 H114       18.8909  -29.7531  -42.3337 H         1 UNK         0.0970 
    115 H115       20.4707  -29.0360  -42.3518 H         1 UNK         0.0970 
    116 H116       19.5096  -33.1463  -43.8606 H         1 UNK         0.0612 
    117 H117       18.3882  -32.3045  -42.8205 H         1 UNK         0.0612 
@<TRIPOS>BOND
     1    1    2 1    
     2    1   62 1    
     3    1   63 1    
     4    1   64 1    
     5    2    3 2    
     6    2    4 am   BACKBONE|DICT|INTERRES
     7    4    5 1    
     8    4   65 1    
     9    5    6 1    
    10    5   25 1    
    11    5   66 1    
    12    6    7 1    
    13    6   67 1    
    14    6   68 1    
    15    7    8 1    
    16    8    9 1    
    17    8   69 1    
    18    8   70 1    
    19    9   10 ar   
    20    9   14 ar   
    21   10   11 ar   
    22   10   71 1    
    23   11   12 ar   
    24   11   61 1    
    25   12   13 ar   
    26   12   72 1    
    27   13   14 ar   
    28   13   15 1    
    29   14   73 1    
    30   15   16 1    
    31   15   74 1    
    32   15   75 1    
    33   16   17 1    
    34   17   18 1    
    35   17   76 1    
    36   17   77 1    
    37   18   19 1    
    38   18   27 1    
    39   18   78 1    
    40   19   20 am   BACKBONE|DICT|INTERRES
    41   19   79 1    
    42   20   21 2    
    43   20   22 1    
    44   22   23 1    
    45   22   24 1    
    46   22   80 1    
    47   23   81 1    
    48   23   82 1    
    49   23   83 1    
    50   24   25 am   BACKBONE|DICT|INTERRES
    51   24   84 1    
    52   25   26 2    
    53   27   28 2    
    54   27   29 am   BACKBONE|DICT|INTERRES
    55   29   30 1    
    56   29   85 1    
    57   30   31 1    
    58   30   32 1    
    59   30   86 1    
    60   31   87 1    
    61   31   88 1    
    62   31   89 1    
    63   32   33 2    
    64   32   34 am   BACKBONE|DICT|INTERRES
    65   34   35 1    
    66   34   90 1    
    67   35   36 1    
    68   35   37 1    
    69   35   91 1    
    70   36   92 1    
    71   36   93 1    
    72   36   94 1    
    73   37   38 2    
    74   37   39 am   BACKBONE|DICT|INTERRES
    75   39   40 1    
    76   39   95 1    
    77   40   41 1    
    78   40   42 1    
    79   40   96 1    
    80   41   97 1    
    81   41   98 1    
    82   41   99 1    
    83   42   43 2    
    84   42   44 am   BACKBONE|DICT|INTERRES
    85   44   45 1    
    86   44  100 1    
    87   45   46 1    
    88   45   47 1    
    89   45  101 1    
    90   46  102 1    
    91   46  103 1    
    92   46  104 1    
    93   47   48 2    
    94   47   49 am   BACKBONE|DICT|INTERRES
    95   49   50 1    
    96   49  105 1    
    97   50   51 1    
    98   50   52 1    
    99   50  106 1    
   100   51  107 1    
   101   51  108 1    
   102   51  109 1    
   103   52   53 2    
   104   52   54 am   BACKBONE|DICT|INTERRES
   105   54   55 1    
   106   54  110 1    
   107   55   56 1    
   108   55   59 1    
   109   55  111 1    
   110   56   57 am   BACKBONE|DICT|INTERRES
   111   56   58 2    
   112   57  112 1    
   113   57  113 1    
   114   59   60 1    
   115   59  114 1    
   116   59  115 1    
   117   60   61 1    
   118   61  116 1    
   119   61  117 1    
@<TRIPOS>SUBSTRUCTURE
     1 UNK         1 GROUP             0       ****    0 ROOT    
