@<TRIPOS>MOLECULE
3R8
117   119    1
SMALL
USER_CHARGES


@<TRIPOS>ATOM
      1 CA         15.2120  -31.4699  -41.1461 C.3       0 UNK        -0.2013 
      2 C          15.5264  -30.0006  -40.9086 C.2       0 UNK         0.4866 
      3 O          15.5409  -29.5593  -39.7595 O.2       0 UNK        -0.5176 
      4 N          15.7723  -29.2480  -41.9890 N.am      1 UNK        -0.4884 
      5 CA         16.1846  -27.8399  -41.9744 C.3       1 UNK         0.0853 
      6 C6         15.5439  -27.0221  -43.1368 C.3       10 UNK        -0.0849 
      7 S7         16.2320  -27.0809  -44.8378 S.3       10 UNK        -0.2776 
      8 C8         16.5359  -28.8341  -45.2317 C.3       10 UNK         0.0316 
      9 C9         18.0230  -29.1586  -45.2008 C.ar      10 UNK        -0.0863 
     10 C10        18.5781  -29.9158  -44.1653 C.ar      10 UNK        -0.1009 
     11 C11        19.9461  -30.2051  -44.1500 C.ar      10 UNK        -0.0712 
     12 C12        20.7630  -29.7384  -45.1845 C.ar      10 UNK        -0.0894 
     13 C13        20.2158  -28.9957  -46.2348 C.ar      10 UNK        -0.0745 
     14 C14        18.8482  -28.7090  -46.2353 C.ar      10 UNK        -0.0972 
     15 C15        21.0835  -28.5260  -47.3917 C.3       10 UNK         0.0209 
     16 S16        21.4201  -26.7400  -47.3096 S.3       10 UNK        -0.2568 
     17 C17        22.8146  -26.6686  -46.1408 C.3       10 UNK        -0.0983 
     18 CA         22.5301  -25.7291  -44.9378 C.3       3 UNK         0.0876 
     19 N          21.6230  -26.3464  -43.9765 N.am      3 UNK        -0.4424 
     20 C          20.3666  -25.9911  -43.7092 C.2       2 UNK         0.4918 
     21 O          19.6972  -25.1855  -44.3594 O.2       2 UNK        -0.4875 
     22 CA         19.8118  -26.5905  -42.4177 C.3       2 UNK         0.0481 
     23 CB         20.1792  -25.7037  -41.2140 C.3       2 UNK        -0.1831 
     24 N          18.3670  -26.7733  -42.4777 N.am      2 UNK        -0.4498 
     25 C          17.7133  -27.7048  -41.7738 C.2       1 UNK         0.5027 
     26 O          18.2838  -28.4477  -40.9682 O.2       1 UNK        -0.4969 
     27 C          23.8255  -25.3886  -44.1692 C.2       3 UNK         0.5005 
     28 O          23.9183  -25.6316  -42.9624 O.2       3 UNK        -0.5279 
     29 N          24.8343  -24.8594  -44.8753 N.am      4 UNK        -0.4463 
     30 CA         26.1837  -24.6527  -44.3339 C.3       4 UNK         0.0283 
     31 CB         27.0018  -23.7984  -45.3158 C.3       4 UNK        -0.1875 
     32 C          26.9225  -25.9718  -44.0243 C.2       4 UNK         0.4949 
     33 O          27.8033  -25.9824  -43.1645 O.2       4 UNK        -0.5039 
     34 N          26.5608  -27.0504  -44.7347 N.am      5 UNK        -0.4663 
     35 CA         27.1577  -28.3799  -44.6000 C.3       5 UNK         0.0242 
     36 CB         26.8385  -29.2034  -45.8590 C.3       5 UNK        -0.1982 
     37 C          26.7082  -29.1396  -43.3399 C.2       5 UNK         0.5017 
     38 O          27.5184  -29.8712  -42.7693 O.2       5 UNK        -0.5012 
     39 N          25.4401  -28.9796  -42.9385 N.am      6 UNK        -0.4439 
     40 CA         24.8117  -29.6853  -41.8218 C.3       6 UNK         0.0297 
     41 CB         24.5979  -31.1729  -42.1716 C.3       6 UNK        -0.2006 
     42 C          23.4714  -29.0236  -41.4860 C.2       6 UNK         0.4892 
     43 O          22.8574  -28.4106  -42.3630 O.2       6 UNK        -0.5089 
     44 N          23.0321  -29.2019  -40.2358 N.am      7 UNK        -0.4243 
     45 CA         21.7608  -28.7207  -39.7036 C.3       7 UNK         0.0196 
     46 CB         22.0186  -27.5107  -38.7899 C.3       7 UNK        -0.2007 
     47 C          21.0847  -29.8498  -38.9229 C.2       7 UNK         0.5020 
     48 O          21.7828  -30.6206  -38.2601 O.2       7 UNK        -0.5147 
     49 N          19.7467  -29.9139  -39.0058 N.am      8 UNK        -0.4734 
     50 CA         18.8633  -30.8890  -38.3455 C.3       8 UNK         0.0238 
     51 CB         18.8420  -30.6551  -36.8199 C.3       8 UNK        -0.1912 
     52 C          19.1880  -32.3494  -38.7233 C.2       8 UNK         0.5038 
     53 O          19.1307  -33.2405  -37.8741 O.2       8 UNK        -0.5046 
     54 N          19.5510  -32.5524  -39.9949 N.am      9 UNK        -0.4200 
     55 CA         20.0386  -33.8188  -40.5583 C.3       9 UNK         0.0839 
     56 C          18.9555  -34.9097  -40.8111 C.2       9 UNK         0.5513 
     57 N          17.6727  -34.6372  -40.6058 N.am      9 UNK        -0.7519 
     58 O          19.2900  -36.0306  -41.1862 O.2       9 UNK        -0.4960 
     59 C59        20.9389  -33.5594  -41.7958 C.3       10 UNK        -0.0876 
     60 S60        20.0661  -32.7836  -43.2009 S.3       10 UNK        -0.2414 
     61 C61        20.5330  -31.0347  -43.0206 C.3       10 UNK         0.0169 
     62 H62        15.8168  -32.0929  -40.4888 H         1 UNK         0.0903 
     63 H63        14.1625  -31.6678  -40.9300 H         1 UNK         0.0903 
     64 H64        15.4121  -31.7708  -42.1744 H         1 UNK         0.0903 
     65 H65        15.7315  -29.6775  -42.8996 H         1 UNK         0.3096 
     66 H66        15.7705  -27.4025  -41.0627 H         1 UNK         0.1121 
     67 H67        14.4855  -27.2786  -43.2083 H         1 UNK         0.0849 
     68 H68        15.5450  -25.9682  -42.8524 H         1 UNK         0.0849 
     69 H69        15.9604  -29.4961  -44.5889 H         1 UNK         0.0865 
     70 H70        16.1628  -29.0218  -46.2398 H         1 UNK         0.0865 
     71 H71        17.9533  -30.2876  -43.3663 H         1 UNK         0.1346 
     72 H72        21.8206  -29.9635  -45.1774 H         1 UNK         0.1412 
     73 H73        18.4251  -28.1281  -47.0438 H         1 UNK         0.1426 
     74 H74        20.5683  -28.7384  -48.3296 H         1 UNK         0.0716 
     75 H75        22.0218  -29.0815  -47.4325 H         1 UNK         0.0716 
     76 H76        23.0684  -27.6709  -45.7906 H         1 UNK         0.0695 
     77 H77        23.6702  -26.3302  -46.7264 H         1 UNK         0.0695 
     78 H78        22.1137  -24.7843  -45.2943 H         1 UNK         0.0983 
     79 H79        22.0888  -26.9822  -43.3292 H         1 UNK         0.3095 
     80 H80        20.2722  -27.5729  -42.3138 H         1 UNK         0.0454 
     81 H81        21.2599  -25.5753  -41.1398 H         1 UNK         0.0851 
     82 H82        19.7381  -24.7102  -41.3011 H         1 UNK         0.0851 
     83 H83        19.8361  -26.1379  -40.2758 H         1 UNK         0.0851 
     84 H84        17.8837  -26.2450  -43.1947 H         1 UNK         0.2976 
     85 H85        24.6964  -24.6445  -45.8531 H         1 UNK         0.3116 
     86 H86        26.0933  -24.0996  -43.3963 H         1 UNK         0.0646 
     87 H87        28.0017  -23.6058  -44.9243 H         1 UNK         0.0847 
     88 H88        26.5324  -22.8296  -45.4873 H         1 UNK         0.0847 
     89 H89        27.1209  -24.2916  -46.2813 H         1 UNK         0.0847 
     90 H90        25.8430  -26.9412  -45.4346 H         1 UNK         0.3040 
     91 H91        28.2423  -28.2619  -44.5388 H         1 UNK         0.1015 
     92 H92        25.7648  -29.3426  -45.9920 H         1 UNK         0.0786 
     93 H93        27.2901  -30.1949  -45.8009 H         1 UNK         0.0786 
     94 H94        27.2298  -28.7244  -46.7568 H         1 UNK         0.0786 
     95 H95        24.8361  -28.3164  -43.4077 H         1 UNK         0.3172 
     96 H96        25.4627  -29.6044  -40.9487 H         1 UNK         0.0595 
     97 H97        24.0619  -31.6938  -41.3773 H         1 UNK         0.0839 
     98 H98        24.0205  -31.2904  -43.0891 H         1 UNK         0.0839 
     99 H99        25.5453  -31.6942  -42.3076 H         1 UNK         0.0839 
    100 H100       23.5595  -29.7873  -39.6009 H         1 UNK         0.2998 
    101 H101       21.0994  -28.4289  -40.5159 H         1 UNK         0.0822 
    102 H102       21.0856  -27.1243  -38.3780 H         1 UNK         0.0787 
    103 H103       22.6621  -27.7721  -37.9488 H         1 UNK         0.0787 
    104 H104       22.4988  -26.6980  -39.3348 H         1 UNK         0.0787 
    105 H105       19.2671  -29.2545  -39.6197 H         1 UNK         0.3055 
    106 H106       17.8572  -30.6959  -38.7212 H         1 UNK         0.1106 
    107 H107       19.8061  -30.8785  -36.3621 H         1 UNK         0.0828 
    108 H108       18.5880  -29.6224  -36.5813 H         1 UNK         0.0828 
    109 H109       18.0979  -31.2895  -36.3369 H         1 UNK         0.0828 
    110 H110       19.5393  -31.7669  -40.6262 H         1 UNK         0.2931 
    111 H111       20.6918  -34.2550  -39.7998 H         1 UNK         0.0412 
    112 H112       16.9830  -35.3545  -40.7671 H         1 UNK         0.3472 
    113 H113       17.3939  -33.7303  -40.2730 H         1 UNK         0.3472 
    114 H114       21.3772  -34.4961  -42.1452 H         1 UNK         0.0970 
    115 H115       21.7882  -32.9371  -41.5100 H         1 UNK         0.0970 
    116 H116       20.1803  -30.6456  -42.0652 H         1 UNK         0.0612 
    117 H117       21.6196  -30.9505  -43.0107 H         1 UNK         0.0612 
@<TRIPOS>BOND
     1    1    2 1    
     2    1   62 1    
     3    1   63 1    
     4    1   64 1    
     5    2    3 2    
     6    2    4 am   BACKBONE|DICT|INTERRES
     7    4    5 1    
     8    4   65 1    
     9    5    6 1    
    10    5   25 1    
    11    5   66 1    
    12    6    7 1    
    13    6   67 1    
    14    6   68 1    
    15    7    8 1    
    16    8    9 1    
    17    8   69 1    
    18    8   70 1    
    19    9   10 ar   
    20    9   14 ar   
    21   10   11 ar   
    22   10   71 1    
    23   11   12 ar   
    24   11   61 1    
    25   12   13 ar   
    26   12   72 1    
    27   13   14 ar   
    28   13   15 1    
    29   14   73 1    
    30   15   16 1    
    31   15   74 1    
    32   15   75 1    
    33   16   17 1    
    34   17   18 1    
    35   17   76 1    
    36   17   77 1    
    37   18   19 1    
    38   18   27 1    
    39   18   78 1    
    40   19   20 am   BACKBONE|DICT|INTERRES
    41   19   79 1    
    42   20   21 2    
    43   20   22 1    
    44   22   23 1    
    45   22   24 1    
    46   22   80 1    
    47   23   81 1    
    48   23   82 1    
    49   23   83 1    
    50   24   25 am   BACKBONE|DICT|INTERRES
    51   24   84 1    
    52   25   26 2    
    53   27   28 2    
    54   27   29 am   BACKBONE|DICT|INTERRES
    55   29   30 1    
    56   29   85 1    
    57   30   31 1    
    58   30   32 1    
    59   30   86 1    
    60   31   87 1    
    61   31   88 1    
    62   31   89 1    
    63   32   33 2    
    64   32   34 am   BACKBONE|DICT|INTERRES
    65   34   35 1    
    66   34   90 1    
    67   35   36 1    
    68   35   37 1    
    69   35   91 1    
    70   36   92 1    
    71   36   93 1    
    72   36   94 1    
    73   37   38 2    
    74   37   39 am   BACKBONE|DICT|INTERRES
    75   39   40 1    
    76   39   95 1    
    77   40   41 1    
    78   40   42 1    
    79   40   96 1    
    80   41   97 1    
    81   41   98 1    
    82   41   99 1    
    83   42   43 2    
    84   42   44 am   BACKBONE|DICT|INTERRES
    85   44   45 1    
    86   44  100 1    
    87   45   46 1    
    88   45   47 1    
    89   45  101 1    
    90   46  102 1    
    91   46  103 1    
    92   46  104 1    
    93   47   48 2    
    94   47   49 am   BACKBONE|DICT|INTERRES
    95   49   50 1    
    96   49  105 1    
    97   50   51 1    
    98   50   52 1    
    99   50  106 1    
   100   51  107 1    
   101   51  108 1    
   102   51  109 1    
   103   52   53 2    
   104   52   54 am   BACKBONE|DICT|INTERRES
   105   54   55 1    
   106   54  110 1    
   107   55   56 1    
   108   55   59 1    
   109   55  111 1    
   110   56   57 am   BACKBONE|DICT|INTERRES
   111   56   58 2    
   112   57  112 1    
   113   57  113 1    
   114   59   60 1    
   115   59  114 1    
   116   59  115 1    
   117   60   61 1    
   118   61  116 1    
   119   61  117 1    
@<TRIPOS>SUBSTRUCTURE
     1 UNK         1 GROUP             0       ****    0 ROOT    
