@<TRIPOS>MOLECULE
3R8
117   119    1
SMALL
USER_CHARGES


@<TRIPOS>ATOM
      1 CA         18.6661  -25.3086  -49.6818 C.3       0 UNK        -0.2013 
      2 C          17.6229  -25.3218  -48.5675 C.2       0 UNK         0.4866 
      3 O          16.4301  -25.2769  -48.8634 O.2       0 UNK        -0.5176 
      4 N          18.0019  -25.3752  -47.2859 N.am      1 UNK        -0.4884 
      5 CA         19.3553  -25.4268  -46.7296 C.3       1 UNK         0.0853 
      6 C6         20.0778  -26.7857  -46.9665 C.3       10 UNK        -0.0849 
      7 S7         19.1454  -28.2487  -46.3902 S.3       10 UNK        -0.2776 
      8 C8         20.0271  -28.6189  -44.8442 C.3       10 UNK         0.0316 
      9 C9         19.1972  -29.4904  -43.9184 C.ar      10 UNK        -0.0863 
     10 C10        19.5921  -30.7996  -43.6317 C.ar      10 UNK        -0.1009 
     11 C11        18.8612  -31.5816  -42.7304 C.ar      10 UNK        -0.0712 
     12 C12        17.7243  -31.0417  -42.1209 C.ar      10 UNK        -0.0894 
     13 C13        17.3190  -29.7337  -42.4031 C.ar      10 UNK        -0.0745 
     14 C14        18.0543  -28.9658  -43.3092 C.ar      10 UNK        -0.0972 
     15 C15        16.0969  -29.1483  -41.7134 C.3       10 UNK         0.0209 
     16 S16        16.5437  -28.3483  -40.1391 S.3       10 UNK        -0.2568 
     17 C17        17.1736  -26.7247  -40.6912 C.3       10 UNK        -0.0983 
     18 CA         18.7237  -26.6445  -40.7506 C.3       3 UNK         0.0876 
     19 N          19.1460  -25.5911  -41.6852 N.am      3 UNK        -0.4424 
     20 C          20.3368  -25.4838  -42.2865 C.2       2 UNK         0.4918 
     21 O          21.2711  -26.2686  -42.1042 O.2       2 UNK        -0.4875 
     22 CA         20.5274  -24.2893  -43.2355 C.3       2 UNK         0.0481 
     23 CB         21.8983  -23.6262  -43.0195 C.3       2 UNK        -0.1831 
     24 N          20.4060  -24.6891  -44.6383 N.am      2 UNK        -0.4498 
     25 C          19.2632  -25.0525  -45.2368 C.2       1 UNK         0.5027 
     26 O          18.1708  -25.0884  -44.6608 O.2       1 UNK        -0.4969 
     27 C          19.4036  -26.5144  -39.3631 C.2       3 UNK         0.5005 
     28 O          18.7314  -26.4602  -38.3316 O.2       3 UNK        -0.5279 
     29 N          20.7383  -26.4590  -39.3772 N.am      4 UNK        -0.4463 
     30 CA         21.6489  -26.4205  -38.2390 C.3       4 UNK         0.0283 
     31 CB         21.4949  -25.1240  -37.4161 C.3       4 UNK        -0.1875 
     32 C          23.0750  -26.5801  -38.7727 C.2       4 UNK         0.4949 
     33 O          23.7370  -27.5677  -38.4584 O.2       4 UNK        -0.5039 
     34 N          23.5103  -25.6208  -39.6024 N.am      5 UNK        -0.4663 
     35 CA         24.8619  -25.5725  -40.1701 C.3       5 UNK         0.0242 
     36 CB         25.1386  -24.1611  -40.7125 C.3       5 UNK        -0.1982 
     37 C          25.1170  -26.6283  -41.2589 C.2       5 UNK         0.5017 
     38 O          26.2482  -27.0994  -41.3784 O.2       5 UNK        -0.5012 
     39 N          24.0739  -26.9818  -42.0213 N.am      6 UNK        -0.4439 
     40 CA         24.1106  -27.9793  -43.0930 C.3       6 UNK         0.0297 
     41 CB         23.6099  -27.3287  -44.3963 C.3       6 UNK        -0.2006 
     42 C          23.2968  -29.2354  -42.7328 C.2       6 UNK         0.4892 
     43 O          22.9991  -30.0331  -43.6235 O.2       6 UNK        -0.5089 
     44 N          22.9569  -29.4145  -41.4468 N.am      7 UNK        -0.4243 
     45 CA         22.1867  -30.5462  -40.9217 C.3       7 UNK         0.0196 
     46 CB         21.5319  -30.1431  -39.5886 C.3       7 UNK        -0.2007 
     47 C          23.0320  -31.8316  -40.8126 C.2       7 UNK         0.5020 
     48 O          23.2009  -32.3749  -39.7206 O.2       7 UNK        -0.5147 
     49 N          23.5560  -32.2886  -41.9542 N.am      8 UNK        -0.4734 
     50 CA         24.4437  -33.4451  -42.0960 C.3       8 UNK         0.0238 
     51 CB         25.7557  -32.9773  -42.7547 C.3       8 UNK        -0.1912 
     52 C          23.7665  -34.5836  -42.8818 C.2       8 UNK         0.5038 
     53 O          24.4369  -35.2829  -43.6440 O.2       8 UNK        -0.5046 
     54 N          22.4498  -34.7442  -42.6959 N.am      9 UNK        -0.4200 
     55 CA         21.6352  -35.8185  -43.2861 C.3       9 UNK         0.0839 
     56 C          22.0536  -37.2266  -42.7800 C.2       9 UNK         0.5513 
     57 N          21.9901  -38.2374  -43.6356 N.am      9 UNK        -0.7519 
     58 O          22.3884  -37.4155  -41.6121 O.2       9 UNK        -0.4960 
     59 C59        20.1203  -35.5904  -43.0439 C.3       10 UNK        -0.0876 
     60 S60        19.4989  -34.0620  -43.8227 S.3       10 UNK        -0.2414 
     61 C61        19.3285  -32.9848  -42.3667 C.3       10 UNK         0.0169 
     62 H62        18.2517  -24.8459  -50.5772 H         1 UNK         0.0903 
     63 H63        19.5588  -24.7466  -49.4143 H         1 UNK         0.0903 
     64 H64        18.9550  -26.3270  -49.9394 H         1 UNK         0.0903 
     65 H65        17.2963  -25.3600  -46.5581 H         1 UNK         0.3096 
     66 H66        19.9408  -24.6324  -47.1957 H         1 UNK         0.1121 
     67 H67        21.0704  -26.7803  -46.5126 H         1 UNK         0.0849 
     68 H68        20.2659  -26.9227  -48.0309 H         1 UNK         0.0849 
     69 H69        20.9782  -29.0952  -45.0852 H         1 UNK         0.0865 
     70 H70        20.2681  -27.6960  -44.3186 H         1 UNK         0.0865 
     71 H71        20.4845  -31.2048  -44.0900 H         1 UNK         0.1346 
     72 H72        17.1620  -31.6319  -41.4101 H         1 UNK         0.1412 
     73 H73        17.7520  -27.9500  -43.5275 H         1 UNK         0.1426 
     74 H74        15.3765  -29.9417  -41.5084 H         1 UNK         0.0716 
     75 H75        15.5851  -28.4406  -42.3674 H         1 UNK         0.0716 
     76 H76        16.7661  -25.9490  -40.0402 H         1 UNK         0.0695 
     77 H77        16.7506  -26.5206  -41.6760 H         1 UNK         0.0695 
     78 H78        19.0859  -27.5887  -41.1623 H         1 UNK         0.0983 
     79 H79        18.4454  -24.8970  -41.9037 H         1 UNK         0.3095 
     80 H80        19.7592  -23.5435  -43.0198 H         1 UNK         0.0454 
     81 H81        22.7202  -24.2988  -43.2683 H         1 UNK         0.0851 
     82 H82        22.0251  -23.3224  -41.9797 H         1 UNK         0.0851 
     83 H83        22.0051  -22.7296  -43.6301 H         1 UNK         0.0851 
     84 H84        21.2617  -24.6917  -45.1743 H         1 UNK         0.2976 
     85 H85        21.1782  -26.5047  -40.2940 H         1 UNK         0.3116 
     86 H86        21.4311  -27.2753  -37.5955 H         1 UNK         0.0646 
     87 H87        21.5712  -24.2311  -38.0370 H         1 UNK         0.0847 
     88 H88        22.2658  -25.0560  -36.6473 H         1 UNK         0.0847 
     89 H89        20.5337  -25.0885  -36.9039 H         1 UNK         0.0847 
     90 H90        22.9033  -24.8395  -39.8036 H         1 UNK         0.3040 
     91 H91        25.5717  -25.7667  -39.3623 H         1 UNK         0.1015 
     92 H92        24.4653  -23.8989  -41.5281 H         1 UNK         0.0786 
     93 H93        26.1569  -24.0853  -41.0967 H         1 UNK         0.0786 
     94 H94        25.0330  -23.4071  -39.9321 H         1 UNK         0.0786 
     95 H95        23.1664  -26.5554  -41.8571 H         1 UNK         0.3172 
     96 H96        25.1339  -28.3184  -43.2644 H         1 UNK         0.0595 
     97 H97        23.6534  -28.0295  -45.2310 H         1 UNK         0.0839 
     98 H98        24.2223  -26.4688  -44.6673 H         1 UNK         0.0839 
     99 H99        22.5792  -26.9887  -44.3081 H         1 UNK         0.0839 
    100 H100       23.2999  -28.7501  -40.7676 H         1 UNK         0.2998 
    101 H101       21.3798  -30.7573  -41.6208 H         1 UNK         0.0822 
    102 H102       20.9279  -30.9582  -39.1878 H         1 UNK         0.0787 
    103 H103       22.2751  -29.8847  -38.8336 H         1 UNK         0.0787 
    104 H104       20.8679  -29.2895  -39.7179 H         1 UNK         0.0787 
    105 H105       23.3638  -31.7546  -42.7990 H         1 UNK         0.3055 
    106 H106       24.6904  -33.8560  -41.1144 H         1 UNK         0.1106 
    107 H107       26.4766  -33.7932  -42.8223 H         1 UNK         0.0828 
    108 H108       25.5873  -32.6031  -43.7654 H         1 UNK         0.0828 
    109 H109       26.2262  -32.1813  -42.1773 H         1 UNK         0.0828 
    110 H110       21.9847  -34.1356  -42.0417 H         1 UNK         0.2931 
    111 H111       21.8095  -35.7888  -44.3640 H         1 UNK         0.0412 
    112 H112       21.7072  -38.0930  -44.5930 H         1 UNK         0.3472 
    113 H113       22.2414  -39.1625  -43.3225 H         1 UNK         0.3472 
    114 H114       19.8950  -35.5867  -41.9756 H         1 UNK         0.0970 
    115 H115       19.5436  -36.4168  -43.4645 H         1 UNK         0.0970 
    116 H116       20.2865  -32.9165  -41.8526 H         1 UNK         0.0612 
    117 H117       18.6332  -33.4515  -41.6671 H         1 UNK         0.0612 
@<TRIPOS>BOND
     1    1    2 1    
     2    1   62 1    
     3    1   63 1    
     4    1   64 1    
     5    2    3 2    
     6    2    4 am   BACKBONE|DICT|INTERRES
     7    4    5 1    
     8    4   65 1    
     9    5    6 1    
    10    5   25 1    
    11    5   66 1    
    12    6    7 1    
    13    6   67 1    
    14    6   68 1    
    15    7    8 1    
    16    8    9 1    
    17    8   69 1    
    18    8   70 1    
    19    9   10 ar   
    20    9   14 ar   
    21   10   11 ar   
    22   10   71 1    
    23   11   12 ar   
    24   11   61 1    
    25   12   13 ar   
    26   12   72 1    
    27   13   14 ar   
    28   13   15 1    
    29   14   73 1    
    30   15   16 1    
    31   15   74 1    
    32   15   75 1    
    33   16   17 1    
    34   17   18 1    
    35   17   76 1    
    36   17   77 1    
    37   18   19 1    
    38   18   27 1    
    39   18   78 1    
    40   19   20 am   BACKBONE|DICT|INTERRES
    41   19   79 1    
    42   20   21 2    
    43   20   22 1    
    44   22   23 1    
    45   22   24 1    
    46   22   80 1    
    47   23   81 1    
    48   23   82 1    
    49   23   83 1    
    50   24   25 am   BACKBONE|DICT|INTERRES
    51   24   84 1    
    52   25   26 2    
    53   27   28 2    
    54   27   29 am   BACKBONE|DICT|INTERRES
    55   29   30 1    
    56   29   85 1    
    57   30   31 1    
    58   30   32 1    
    59   30   86 1    
    60   31   87 1    
    61   31   88 1    
    62   31   89 1    
    63   32   33 2    
    64   32   34 am   BACKBONE|DICT|INTERRES
    65   34   35 1    
    66   34   90 1    
    67   35   36 1    
    68   35   37 1    
    69   35   91 1    
    70   36   92 1    
    71   36   93 1    
    72   36   94 1    
    73   37   38 2    
    74   37   39 am   BACKBONE|DICT|INTERRES
    75   39   40 1    
    76   39   95 1    
    77   40   41 1    
    78   40   42 1    
    79   40   96 1    
    80   41   97 1    
    81   41   98 1    
    82   41   99 1    
    83   42   43 2    
    84   42   44 am   BACKBONE|DICT|INTERRES
    85   44   45 1    
    86   44  100 1    
    87   45   46 1    
    88   45   47 1    
    89   45  101 1    
    90   46  102 1    
    91   46  103 1    
    92   46  104 1    
    93   47   48 2    
    94   47   49 am   BACKBONE|DICT|INTERRES
    95   49   50 1    
    96   49  105 1    
    97   50   51 1    
    98   50   52 1    
    99   50  106 1    
   100   51  107 1    
   101   51  108 1    
   102   51  109 1    
   103   52   53 2    
   104   52   54 am   BACKBONE|DICT|INTERRES
   105   54   55 1    
   106   54  110 1    
   107   55   56 1    
   108   55   59 1    
   109   55  111 1    
   110   56   57 am   BACKBONE|DICT|INTERRES
   111   56   58 2    
   112   57  112 1    
   113   57  113 1    
   114   59   60 1    
   115   59  114 1    
   116   59  115 1    
   117   60   61 1    
   118   61  116 1    
   119   61  117 1    
@<TRIPOS>SUBSTRUCTURE
     1 UNK         1 GROUP             0       ****    0 ROOT    
