@<TRIPOS>MOLECULE
3R8
117   119    1
SMALL
USER_CHARGES


@<TRIPOS>ATOM
      1 CA         18.1329  -21.3162  -47.3746 C.3       0 UNK        -0.2013 
      2 C          18.4168  -22.1987  -46.1682 C.2       0 UNK         0.4866 
      3 O          18.3903  -21.7160  -45.0355 O.2       0 UNK        -0.5176 
      4 N          18.6976  -23.4863  -46.4015 N.am      1 UNK        -0.4884 
      5 CA         18.9182  -24.5014  -45.3671 C.3       1 UNK         0.0853 
      6 C6         19.6368  -25.7583  -45.9313 C.3       10 UNK        -0.0849 
      7 S7         18.8687  -26.4430  -47.4417 S.3       10 UNK        -0.2776 
      8 C8         19.9111  -27.9062  -47.7532 C.3       10 UNK         0.0316 
      9 C9         19.6173  -29.0683  -46.8099 C.ar      10 UNK        -0.0863 
     10 C10        20.6644  -29.7275  -46.1584 C.ar      10 UNK        -0.1009 
     11 C11        20.4115  -30.8341  -45.3408 C.ar      10 UNK        -0.0712 
     12 C12        19.0961  -31.2744  -45.1640 C.ar      10 UNK        -0.0894 
     13 C13        18.0375  -30.6064  -45.7876 C.ar      10 UNK        -0.0745 
     14 C14        18.3067  -29.5188  -46.6228 C.ar      10 UNK        -0.0972 
     15 C15        16.5989  -31.0441  -45.5562 C.3       10 UNK         0.0209 
     16 S16        15.6879  -29.8325  -44.5435 S.3       10 UNK        -0.2568 
     17 C17        16.4181  -30.0908  -42.8904 C.3       10 UNK        -0.0983 
     18 CA         17.6389  -29.1726  -42.5974 C.3       3 UNK         0.0876 
     19 N          17.3893  -27.7401  -42.8088 N.am      3 UNK        -0.4424 
     20 C          16.5559  -26.9530  -42.1131 C.2       2 UNK         0.4918 
     21 O          15.8199  -27.3601  -41.2138 O.2       2 UNK        -0.4875 
     22 CA         16.5738  -25.4474  -42.4469 C.3       2 UNK         0.0481 
     23 CB         16.6630  -24.6024  -41.1628 C.3       2 UNK        -0.1831 
     24 N          17.6923  -25.0786  -43.3251 N.am      2 UNK        -0.4498 
     25 C          17.6002  -24.8581  -44.6435 C.2       1 UNK         0.5027 
     26 O          16.5481  -24.9440  -45.2822 O.2       1 UNK        -0.4969 
     27 C          18.2847  -29.4518  -41.2208 C.2       3 UNK         0.5005 
     28 O          17.9888  -30.4662  -40.5868 O.2       3 UNK        -0.5279 
     29 N          19.1743  -28.5470  -40.7921 N.am      4 UNK        -0.4463 
     30 CA         19.9331  -28.6108  -39.5428 C.3       4 UNK         0.0283 
     31 CB         19.0695  -28.1003  -38.3713 C.3       4 UNK        -0.1875 
     32 C          21.2509  -27.8352  -39.7063 C.2       4 UNK         0.4949 
     33 O          21.6354  -27.0727  -38.8186 O.2       4 UNK        -0.5039 
     34 N          21.8967  -28.0051  -40.8680 N.am      5 UNK        -0.4663 
     35 CA         23.1478  -27.3375  -41.2303 C.3       5 UNK         0.0242 
     36 CB         23.2620  -27.3092  -42.7662 C.3       5 UNK        -0.1982 
     37 C          24.3728  -28.0249  -40.6017 C.2       5 UNK         0.5017 
     38 O          24.2676  -29.1366  -40.0745 O.2       5 UNK        -0.5012 
     39 N          25.5351  -27.3680  -40.7347 N.am      6 UNK        -0.4439 
     40 CA         26.8538  -27.8122  -40.2566 C.3       6 UNK         0.0297 
     41 CB         27.8807  -26.6983  -40.5204 C.3       6 UNK        -0.2006 
     42 C          27.3523  -29.1520  -40.8389 C.2       6 UNK         0.4892 
     43 O          28.3010  -29.7241  -40.3017 O.2       6 UNK        -0.5089 
     44 N          26.6894  -29.6463  -41.8937 N.am      7 UNK        -0.4243 
     45 CA         26.8428  -30.9915  -42.4523 C.3       7 UNK         0.0196 
     46 CB         26.1161  -31.0410  -43.8077 C.3       7 UNK        -0.2007 
     47 C          26.3311  -32.1181  -41.5270 C.2       7 UNK         0.5020 
     48 O          26.5719  -33.2848  -41.8375 O.2       7 UNK        -0.5147 
     49 N          25.6383  -31.7622  -40.4315 N.am      8 UNK        -0.4734 
     50 CA         25.0065  -32.6425  -39.4400 C.3       8 UNK         0.0238 
     51 CB         26.0377  -33.5551  -38.7403 C.3       8 UNK        -0.1912 
     52 C          23.8208  -33.4050  -40.0530 C.2       8 UNK         0.5038 
     53 O          23.7664  -34.6352  -39.9941 O.2       8 UNK        -0.5046 
     54 N          22.9124  -32.6318  -40.6593 N.am      9 UNK        -0.4200 
     55 CA         21.6877  -33.0807  -41.3350 C.3       9 UNK         0.0839 
     56 C          20.7451  -33.9108  -40.4204 C.2       9 UNK         0.5513 
     57 N          20.0881  -34.9252  -40.9660 N.am      9 UNK        -0.7519 
     58 O          20.5721  -33.6142  -39.2400 O.2       9 UNK        -0.4960 
     59 C59        20.9186  -31.8775  -41.9364 C.3       10 UNK        -0.0876 
     60 S60        21.9480  -30.8513  -43.0391 S.3       10 UNK        -0.2414 
     61 C61        21.5680  -31.5593  -44.6696 C.3       10 UNK         0.0169 
     62 H62        18.8459  -20.4931  -47.4139 H         1 UNK         0.0903 
     63 H63        18.2029  -21.8704  -48.3106 H         1 UNK         0.0903 
     64 H64        17.1301  -20.8959  -47.3038 H         1 UNK         0.0903 
     65 H65        18.6691  -23.8452  -47.3461 H         1 UNK         0.3096 
     66 H66        19.5848  -24.0557  -44.6247 H         1 UNK         0.1121 
     67 H67        19.7064  -26.5435  -45.1760 H         1 UNK         0.0849 
     68 H68        20.6678  -25.4977  -46.1761 H         1 UNK         0.0849 
     69 H69        19.7383  -28.2437  -48.7759 H         1 UNK         0.0865 
     70 H70        20.9612  -27.6138  -47.7023 H         1 UNK         0.0865 
     71 H71        21.6831  -29.3923  -46.2996 H         1 UNK         0.1346 
     72 H72        18.8937  -32.1279  -44.5324 H         1 UNK         0.1412 
     73 H73        17.4888  -29.0131  -47.1183 H         1 UNK         0.1426 
     74 H74        16.5548  -32.0268  -45.0842 H         1 UNK         0.0716 
     75 H75        16.0971  -31.1452  -46.5196 H         1 UNK         0.0716 
     76 H76        16.6981  -31.1417  -42.7985 H         1 UNK         0.0695 
     77 H77        15.6340  -29.9248  -42.1499 H         1 UNK         0.0695 
     78 H78        18.4178  -29.4289  -43.3134 H         1 UNK         0.0983 
     79 H79        17.9089  -27.3144  -43.5608 H         1 UNK         0.3095 
     80 H80        15.6232  -25.2176  -42.9321 H         1 UNK         0.0454 
     81 H81        17.5641  -24.8272  -40.5909 H         1 UNK         0.0851 
     82 H82        15.8090  -24.7866  -40.5096 H         1 UNK         0.0851 
     83 H83        16.6661  -23.5361  -41.3895 H         1 UNK         0.0851 
     84 H84        18.5907  -24.9704  -42.8749 H         1 UNK         0.2976 
     85 H85        19.3621  -27.7417  -41.3729 H         1 UNK         0.3116 
     86 H86        20.2071  -29.6481  -39.3403 H         1 UNK         0.0646 
     87 H87        18.7745  -27.0602  -38.5142 H         1 UNK         0.0847 
     88 H88        19.6120  -28.1617  -37.4271 H         1 UNK         0.0847 
     89 H89        18.1615  -28.6926  -38.2585 H         1 UNK         0.0847 
     90 H90        21.5595  -28.7036  -41.5156 H         1 UNK         0.3040 
     91 H91        23.1124  -26.3086  -40.8641 H         1 UNK         0.1015 
     92 H92        23.4007  -28.3066  -43.1837 H         1 UNK         0.0786 
     93 H93        24.1089  -26.7037  -43.0908 H         1 UNK         0.0786 
     94 H94        22.3713  -26.8778  -43.2236 H         1 UNK         0.0786 
     95 H95        25.5190  -26.4705  -41.1986 H         1 UNK         0.3172 
     96 H96        26.7733  -27.9511  -39.1765 H         1 UNK         0.0595 
     97 H97        27.9884  -26.4925  -41.5862 H         1 UNK         0.0839 
     98 H98        28.8660  -26.9759  -40.1425 H         1 UNK         0.0839 
     99 H99        27.5989  -25.7696  -40.0238 H         1 UNK         0.0839 
    100 H100       25.9314  -29.0934  -42.2646 H         1 UNK         0.2998 
    101 H101       27.9068  -31.1695  -42.6214 H         1 UNK         0.0822 
    102 H102       26.5085  -30.2939  -44.4978 H         1 UNK         0.0787 
    103 H103       26.2403  -32.0147  -44.2838 H         1 UNK         0.0787 
    104 H104       25.0446  -30.8684  -43.6971 H         1 UNK         0.0787 
    105 H105       25.4429  -30.7733  -40.3057 H         1 UNK         0.3055 
    106 H106       24.5844  -31.9881  -38.6749 H         1 UNK         0.1106 
    107 H107       25.5730  -34.1056  -37.9215 H         1 UNK         0.0828 
    108 H108       26.4640  -34.2926  -39.4205 H         1 UNK         0.0828 
    109 H109       26.8576  -32.9750  -38.3171 H         1 UNK         0.0828 
    110 H110       23.0706  -31.6348  -40.6697 H         1 UNK         0.2931 
    111 H111       22.0091  -33.7225  -42.1578 H         1 UNK         0.0412 
    112 H112       19.4590  -35.4657  -40.3927 H         1 UNK         0.3472 
    113 H113       20.2193  -35.1733  -41.9345 H         1 UNK         0.3472 
    114 H114       20.0287  -32.2117  -42.4710 H         1 UNK         0.0970 
    115 H115       20.5606  -31.2382  -41.1302 H         1 UNK         0.0970 
    116 H116       21.3544  -32.6252  -44.5771 H         1 UNK         0.0612 
    117 H117       22.4599  -31.4849  -45.2937 H         1 UNK         0.0612 
@<TRIPOS>BOND
     1    1    2 1    
     2    1   62 1    
     3    1   63 1    
     4    1   64 1    
     5    2    3 2    
     6    2    4 am   BACKBONE|DICT|INTERRES
     7    4    5 1    
     8    4   65 1    
     9    5    6 1    
    10    5   25 1    
    11    5   66 1    
    12    6    7 1    
    13    6   67 1    
    14    6   68 1    
    15    7    8 1    
    16    8    9 1    
    17    8   69 1    
    18    8   70 1    
    19    9   10 ar   
    20    9   14 ar   
    21   10   11 ar   
    22   10   71 1    
    23   11   12 ar   
    24   11   61 1    
    25   12   13 ar   
    26   12   72 1    
    27   13   14 ar   
    28   13   15 1    
    29   14   73 1    
    30   15   16 1    
    31   15   74 1    
    32   15   75 1    
    33   16   17 1    
    34   17   18 1    
    35   17   76 1    
    36   17   77 1    
    37   18   19 1    
    38   18   27 1    
    39   18   78 1    
    40   19   20 am   BACKBONE|DICT|INTERRES
    41   19   79 1    
    42   20   21 2    
    43   20   22 1    
    44   22   23 1    
    45   22   24 1    
    46   22   80 1    
    47   23   81 1    
    48   23   82 1    
    49   23   83 1    
    50   24   25 am   BACKBONE|DICT|INTERRES
    51   24   84 1    
    52   25   26 2    
    53   27   28 2    
    54   27   29 am   BACKBONE|DICT|INTERRES
    55   29   30 1    
    56   29   85 1    
    57   30   31 1    
    58   30   32 1    
    59   30   86 1    
    60   31   87 1    
    61   31   88 1    
    62   31   89 1    
    63   32   33 2    
    64   32   34 am   BACKBONE|DICT|INTERRES
    65   34   35 1    
    66   34   90 1    
    67   35   36 1    
    68   35   37 1    
    69   35   91 1    
    70   36   92 1    
    71   36   93 1    
    72   36   94 1    
    73   37   38 2    
    74   37   39 am   BACKBONE|DICT|INTERRES
    75   39   40 1    
    76   39   95 1    
    77   40   41 1    
    78   40   42 1    
    79   40   96 1    
    80   41   97 1    
    81   41   98 1    
    82   41   99 1    
    83   42   43 2    
    84   42   44 am   BACKBONE|DICT|INTERRES
    85   44   45 1    
    86   44  100 1    
    87   45   46 1    
    88   45   47 1    
    89   45  101 1    
    90   46  102 1    
    91   46  103 1    
    92   46  104 1    
    93   47   48 2    
    94   47   49 am   BACKBONE|DICT|INTERRES
    95   49   50 1    
    96   49  105 1    
    97   50   51 1    
    98   50   52 1    
    99   50  106 1    
   100   51  107 1    
   101   51  108 1    
   102   51  109 1    
   103   52   53 2    
   104   52   54 am   BACKBONE|DICT|INTERRES
   105   54   55 1    
   106   54  110 1    
   107   55   56 1    
   108   55   59 1    
   109   55  111 1    
   110   56   57 am   BACKBONE|DICT|INTERRES
   111   56   58 2    
   112   57  112 1    
   113   57  113 1    
   114   59   60 1    
   115   59  114 1    
   116   59  115 1    
   117   60   61 1    
   118   61  116 1    
   119   61  117 1    
@<TRIPOS>SUBSTRUCTURE
     1 UNK         1 GROUP             0       ****    0 ROOT    
