@<TRIPOS>MOLECULE
3R8
117   119    1
SMALL
USER_CHARGES


@<TRIPOS>ATOM
      1 CA         14.7855  -30.0332  -41.9229 C.3       0 UNK        -0.2013 
      2 C          14.9964  -28.6418  -42.5008 C.2       0 UNK         0.4866 
      3 O          14.5455  -27.6594  -41.9119 O.2       0 UNK        -0.5176 
      4 N          15.6726  -28.5514  -43.6537 N.am      1 UNK        -0.4884 
      5 CA         15.9637  -27.3010  -44.3673 C.3       1 UNK         0.0853 
      6 C6         16.4462  -27.5337  -45.8238 C.3       10 UNK        -0.0849 
      7 S7         15.5674  -28.8515  -46.7520 S.3       10 UNK        -0.2776 
      8 C8         16.4620  -30.4203  -46.4037 C.3       10 UNK         0.0316 
      9 C9         17.8790  -30.2336  -45.8754 C.ar      10 UNK        -0.0863 
     10 C10        18.1807  -30.5093  -44.5374 C.ar      10 UNK        -0.1009 
     11 C11        19.4543  -30.2365  -44.0229 C.ar      10 UNK        -0.0712 
     12 C12        20.4393  -29.7330  -44.8770 C.ar      10 UNK        -0.0894 
     13 C13        20.1539  -29.4669  -46.2180 C.ar      10 UNK        -0.0745 
     14 C14        18.8783  -29.7383  -46.7174 C.ar      10 UNK        -0.0972 
     15 C15        21.2058  -28.8478  -47.1223 C.3       10 UNK         0.0209 
     16 S16        21.2179  -27.0330  -46.9581 S.3       10 UNK        -0.2568 
     17 C17        22.4011  -26.7849  -45.5933 C.3       10 UNK        -0.0983 
     18 CA         21.8782  -25.8356  -44.4845 C.3       3 UNK         0.0876 
     19 N          20.7021  -26.3760  -43.7875 N.am      3 UNK        -0.4424 
     20 C          19.9922  -25.7024  -42.8704 C.2       2 UNK         0.4918 
     21 O          20.1298  -24.4973  -42.6488 O.2       2 UNK        -0.4875 
     22 CA         18.9782  -26.5289  -42.0574 C.3       2 UNK         0.0481 
     23 CB         18.3951  -25.7576  -40.8552 C.3       2 UNK        -0.1831 
     24 N          17.9042  -27.0901  -42.8799 N.am      2 UNK        -0.4498 
     25 C          16.9983  -26.4301  -43.6209 C.2       1 UNK         0.5027 
     26 O          16.9519  -25.2052  -43.7389 O.2       1 UNK        -0.4969 
     27 C          23.0241  -25.5424  -43.4894 C.2       3 UNK         0.5005 
     28 O          23.1148  -26.1945  -42.4454 O.2       3 UNK        -0.5279 
     29 N          23.9232  -24.6186  -43.8618 N.am      4 UNK        -0.4463 
     30 CA         25.0915  -24.1959  -43.0724 C.3       4 UNK         0.0283 
     31 CB         25.8094  -23.0519  -43.8068 C.3       4 UNK        -0.1875 
     32 C          26.0903  -25.3210  -42.7303 C.2       4 UNK         0.4949 
     33 O          26.8393  -25.1885  -41.7628 O.2       4 UNK        -0.5039 
     34 N          26.0667  -26.4134  -43.5061 N.am      5 UNK        -0.4663 
     35 CA         26.8173  -27.6469  -43.2567 C.3       5 UNK         0.0242 
     36 CB         26.8368  -28.4773  -44.5516 C.3       5 UNK        -0.1982 
     37 C          26.2651  -28.4925  -42.0899 C.2       5 UNK         0.5017 
     38 O          26.9266  -29.4540  -41.6956 O.2       5 UNK        -0.5012 
     39 N          25.0658  -28.1601  -41.5845 N.am      6 UNK        -0.4439 
     40 CA         24.2866  -28.8246  -40.5303 C.3       6 UNK         0.0297 
     41 CB         25.0568  -28.9179  -39.1989 C.3       6 UNK        -0.2006 
     42 C          23.7127  -30.1869  -40.9506 C.2       6 UNK         0.4892 
     43 O          22.5139  -30.4021  -40.7835 O.2       6 UNK        -0.5089 
     44 N          24.5560  -31.0639  -41.5122 N.am      7 UNK        -0.4243 
     45 CA         24.2274  -32.3858  -42.0554 C.3       7 UNK         0.0196 
     46 CB         23.5151  -32.2250  -43.4193 C.3       7 UNK        -0.2007 
     47 C          23.4642  -33.2601  -41.0370 C.2       7 UNK         0.5020 
     48 O          23.9979  -33.5320  -39.9606 O.2       7 UNK        -0.5147 
     49 N          22.2417  -33.6785  -41.3862 N.am      8 UNK        -0.4734 
     50 CA         21.3557  -34.4830  -40.5415 C.3       8 UNK         0.0238 
     51 CB         20.5216  -35.4016  -41.4520 C.3       8 UNK        -0.1912 
     52 C          20.4306  -33.6444  -39.6374 C.2       8 UNK         0.5038 
     53 O          19.7299  -34.2322  -38.8115 O.2       8 UNK        -0.5046 
     54 N          20.4024  -32.3165  -39.8144 N.am      9 UNK        -0.4200 
     55 CA         19.5443  -31.3975  -39.0522 C.3       9 UNK         0.0839 
     56 C          20.0925  -31.1420  -37.6223 C.2       9 UNK         0.5513 
     57 N          19.2172  -30.8377  -36.6737 N.am      9 UNK        -0.7519 
     58 O          21.2949  -31.1799  -37.3689 O.2       9 UNK        -0.4960 
     59 C59        19.3117  -30.0614  -39.8059 C.3       10 UNK        -0.0876 
     60 S60        18.4244  -30.2691  -41.3890 S.3       10 UNK        -0.2414 
     61 C61        19.8112  -30.4659  -42.5575 C.3       10 UNK         0.0169 
     62 H62        15.2354  -30.0986  -40.9325 H         1 UNK         0.0903 
     63 H63        13.7204  -30.2430  -41.8282 H         1 UNK         0.0903 
     64 H64        15.2296  -30.8081  -42.5471 H         1 UNK         0.0903 
     65 H65        15.9922  -29.3877  -44.1183 H         1 UNK         0.3096 
     66 H66        15.0325  -26.7310  -44.4089 H         1 UNK         0.1121 
     67 H67        17.5221  -27.6927  -45.8657 H         1 UNK         0.0849 
     68 H68        16.2993  -26.6096  -46.3861 H         1 UNK         0.0849 
     69 H69        16.4989  -31.0101  -47.3208 H         1 UNK         0.0865 
     70 H70        15.8697  -31.0093  -45.7018 H         1 UNK         0.0865 
     71 H71        17.4182  -30.9189  -43.8908 H         1 UNK         0.1346 
     72 H72        21.4294  -29.5346  -44.4914 H         1 UNK         0.1412 
     73 H73        18.6442  -29.5132  -47.7494 H         1 UNK         0.1426 
     74 H74        20.9961  -29.1008  -48.1627 H         1 UNK         0.0716 
     75 H75        22.1925  -29.2604  -46.9065 H         1 UNK         0.0716 
     76 H76        23.3071  -26.3799  -46.0484 H         1 UNK         0.0695 
     77 H77        22.6925  -27.7451  -45.1658 H         1 UNK         0.0695 
     78 H78        21.5817  -24.8893  -44.9426 H         1 UNK         0.0983 
     79 H79        20.5066  -27.3542  -43.9341 H         1 UNK         0.3095 
     80 H80        19.5313  -27.3782  -41.6543 H         1 UNK         0.0454 
     81 H81        17.8287  -24.8801  -41.1687 H         1 UNK         0.0851 
     82 H82        19.1895  -25.4113  -40.1930 H         1 UNK         0.0851 
     83 H83        17.7328  -26.3900  -40.2640 H         1 UNK         0.0851 
     84 H84        17.8339  -28.0987  -42.8677 H         1 UNK         0.2976 
     85 H85        23.7888  -24.1428  -44.7434 H         1 UNK         0.3116 
     86 H86        24.7155  -23.8075  -42.1236 H         1 UNK         0.0646 
     87 H87        26.1839  -23.3690  -44.7810 H         1 UNK         0.0847 
     88 H88        26.6644  -22.6938  -43.2314 H         1 UNK         0.0847 
     89 H89        25.1480  -22.1991  -43.9605 H         1 UNK         0.0847 
     90 H90        25.4306  -26.4210  -44.2893 H         1 UNK         0.3040 
     91 H91        27.8452  -27.3797  -43.0010 H         1 UNK         0.1015 
     92 H92        25.8330  -28.7795  -44.8534 H         1 UNK         0.0786 
     93 H93        27.4258  -29.3869  -44.4252 H         1 UNK         0.0786 
     94 H94        27.2828  -27.9192  -45.3752 H         1 UNK         0.0786 
     95 H95        24.5805  -27.3723  -42.0081 H         1 UNK         0.3172 
     96 H96        23.4303  -28.1701  -40.3581 H         1 UNK         0.0595 
     97 H97        24.4133  -29.3090  -38.4095 H         1 UNK         0.0839 
     98 H98        25.4086  -27.9383  -38.8756 H         1 UNK         0.0839 
     99 H99        25.9202  -29.5801  -39.2656 H         1 UNK         0.0839 
    100 H100       25.5292  -30.7781  -41.5774 H         1 UNK         0.2998 
    101 H101       25.1773  -32.8912  -42.2355 H         1 UNK         0.0822 
    102 H102       23.3193  -33.1925  -43.8837 H         1 UNK         0.0787 
    103 H103       22.5671  -31.6942  -43.3307 H         1 UNK         0.0787 
    104 H104       24.1366  -31.6622  -44.1162 H         1 UNK         0.0787 
    105 H105       21.8820  -33.4025  -42.2884 H         1 UNK         0.3055 
    106 H106       21.9575  -35.1138  -39.8830 H         1 UNK         0.1106 
    107 H107       19.8778  -36.0574  -40.8641 H         1 UNK         0.0828 
    108 H108       19.8780  -34.8304  -42.1223 H         1 UNK         0.0828 
    109 H109       21.1592  -36.0421  -42.0616 H         1 UNK         0.0828 
    110 H110       21.0886  -31.8793  -40.4185 H         1 UNK         0.2931 
    111 H111       18.5699  -31.8789  -38.9423 H         1 UNK         0.0412 
    112 H112       18.2284  -30.7992  -36.8682 H         1 UNK         0.3472 
    113 H113       19.5506  -30.6547  -35.7398 H         1 UNK         0.3472 
    114 H114       20.2501  -29.5301  -39.9664 H         1 UNK         0.0970 
    115 H115       18.7025  -29.3915  -39.1961 H         1 UNK         0.0970 
    116 H116       20.2356  -31.4635  -42.4500 H         1 UNK         0.0612 
    117 H117       20.5859  -29.7524  -42.2784 H         1 UNK         0.0612 
@<TRIPOS>BOND
     1    1    2 1    
     2    1   62 1    
     3    1   63 1    
     4    1   64 1    
     5    2    3 2    
     6    2    4 am   BACKBONE|DICT|INTERRES
     7    4    5 1    
     8    4   65 1    
     9    5    6 1    
    10    5   25 1    
    11    5   66 1    
    12    6    7 1    
    13    6   67 1    
    14    6   68 1    
    15    7    8 1    
    16    8    9 1    
    17    8   69 1    
    18    8   70 1    
    19    9   10 ar   
    20    9   14 ar   
    21   10   11 ar   
    22   10   71 1    
    23   11   12 ar   
    24   11   61 1    
    25   12   13 ar   
    26   12   72 1    
    27   13   14 ar   
    28   13   15 1    
    29   14   73 1    
    30   15   16 1    
    31   15   74 1    
    32   15   75 1    
    33   16   17 1    
    34   17   18 1    
    35   17   76 1    
    36   17   77 1    
    37   18   19 1    
    38   18   27 1    
    39   18   78 1    
    40   19   20 am   BACKBONE|DICT|INTERRES
    41   19   79 1    
    42   20   21 2    
    43   20   22 1    
    44   22   23 1    
    45   22   24 1    
    46   22   80 1    
    47   23   81 1    
    48   23   82 1    
    49   23   83 1    
    50   24   25 am   BACKBONE|DICT|INTERRES
    51   24   84 1    
    52   25   26 2    
    53   27   28 2    
    54   27   29 am   BACKBONE|DICT|INTERRES
    55   29   30 1    
    56   29   85 1    
    57   30   31 1    
    58   30   32 1    
    59   30   86 1    
    60   31   87 1    
    61   31   88 1    
    62   31   89 1    
    63   32   33 2    
    64   32   34 am   BACKBONE|DICT|INTERRES
    65   34   35 1    
    66   34   90 1    
    67   35   36 1    
    68   35   37 1    
    69   35   91 1    
    70   36   92 1    
    71   36   93 1    
    72   36   94 1    
    73   37   38 2    
    74   37   39 am   BACKBONE|DICT|INTERRES
    75   39   40 1    
    76   39   95 1    
    77   40   41 1    
    78   40   42 1    
    79   40   96 1    
    80   41   97 1    
    81   41   98 1    
    82   41   99 1    
    83   42   43 2    
    84   42   44 am   BACKBONE|DICT|INTERRES
    85   44   45 1    
    86   44  100 1    
    87   45   46 1    
    88   45   47 1    
    89   45  101 1    
    90   46  102 1    
    91   46  103 1    
    92   46  104 1    
    93   47   48 2    
    94   47   49 am   BACKBONE|DICT|INTERRES
    95   49   50 1    
    96   49  105 1    
    97   50   51 1    
    98   50   52 1    
    99   50  106 1    
   100   51  107 1    
   101   51  108 1    
   102   51  109 1    
   103   52   53 2    
   104   52   54 am   BACKBONE|DICT|INTERRES
   105   54   55 1    
   106   54  110 1    
   107   55   56 1    
   108   55   59 1    
   109   55  111 1    
   110   56   57 am   BACKBONE|DICT|INTERRES
   111   56   58 2    
   112   57  112 1    
   113   57  113 1    
   114   59   60 1    
   115   59  114 1    
   116   59  115 1    
   117   60   61 1    
   118   61  116 1    
   119   61  117 1    
@<TRIPOS>SUBSTRUCTURE
     1 UNK         1 GROUP             0       ****    0 ROOT    
