@<TRIPOS>MOLECULE
3R8
117   119    1
SMALL
USER_CHARGES


@<TRIPOS>ATOM
      1 CA         18.3104  -29.6920  -41.3572 C.3       0 UNK        -0.2013 
      2 C          18.0589  -28.2303  -41.6865 C.2       0 UNK         0.4866 
      3 O          18.5302  -27.3514  -40.9654 O.2       0 UNK        -0.5176 
      4 N          17.3317  -27.9520  -42.7772 N.am      1 UNK        -0.4884 
      5 CA         16.9387  -26.6119  -43.2365 C.3       1 UNK         0.0853 
      6 C6         15.5875  -26.6362  -44.0096 C.3       10 UNK        -0.0849 
      7 S7         15.5946  -27.3463  -45.6969 S.3       10 UNK        -0.2776 
      8 C8         15.0413  -29.0704  -45.4431 C.3       10 UNK         0.0316 
      9 C9         16.1389  -30.0378  -44.9989 C.ar      10 UNK        -0.0863 
     10 C10        15.7825  -31.2071  -44.3204 C.ar      10 UNK        -0.1009 
     11 C11        16.7598  -32.1153  -43.9030 C.ar      10 UNK        -0.0712 
     12 C12        18.1078  -31.8491  -44.1633 C.ar      10 UNK        -0.0894 
     13 C13        18.4833  -30.6843  -44.8382 C.ar      10 UNK        -0.0745 
     14 C14        17.4919  -29.7980  -45.2687 C.ar      10 UNK        -0.0972 
     15 C15        19.9603  -30.3525  -45.0210 C.3       10 UNK         0.0209 
     16 S16        20.3462  -29.5816  -46.6285 S.3       10 UNK        -0.2568 
     17 C17        22.0473  -29.0052  -46.3303 C.3       10 UNK        -0.0983 
     18 CA         22.1616  -27.4614  -46.2365 C.3       3 UNK         0.0876 
     19 N          21.3439  -26.8893  -45.1499 N.am      3 UNK        -0.4424 
     20 C          21.1115  -25.5768  -44.9957 C.2       2 UNK         0.4918 
     21 O          21.4093  -24.7298  -45.8398 O.2       2 UNK        -0.4875 
     22 CA         20.5070  -25.1442  -43.6459 C.3       2 UNK         0.0481 
     23 CB         20.3109  -23.6170  -43.5337 C.3       2 UNK        -0.1831 
     24 N          19.2759  -25.8572  -43.2932 N.am      2 UNK        -0.4498 
     25 C          18.0924  -25.8324  -43.9239 C.2       1 UNK         0.5027 
     26 O          17.8941  -25.2086  -44.9672 O.2       1 UNK        -0.4969 
     27 C          23.6522  -27.0684  -46.0994 C.2       3 UNK         0.5005 
     28 O          24.3688  -27.0084  -47.0997 O.2       3 UNK        -0.5279 
     29 N          24.0804  -26.8150  -44.8587 N.am      4 UNK        -0.4463 
     30 CA         25.4012  -26.3910  -44.4215 C.3       4 UNK         0.0283 
     31 CB         26.3638  -27.5936  -44.3912 C.3       4 UNK        -0.1875 
     32 C          25.2237  -25.7807  -43.0246 C.2       4 UNK         0.4949 
     33 O          24.1601  -25.9436  -42.4173 O.2       4 UNK        -0.5039 
     34 N          26.2710  -25.1147  -42.5238 N.am      5 UNK        -0.4663 
     35 CA         26.2834  -24.4110  -41.2330 C.3       5 UNK         0.0242 
     36 CB         27.6015  -23.6295  -41.1038 C.3       5 UNK        -0.1982 
     37 C          26.0682  -25.3053  -39.9948 C.2       5 UNK         0.5017 
     38 O          25.6745  -24.7885  -38.9484 O.2       5 UNK        -0.5012 
     39 N          26.3244  -26.6122  -40.1313 N.am      6 UNK        -0.4439 
     40 CA         26.1356  -27.6278  -39.0942 C.3       6 UNK         0.0297 
     41 CB         27.5043  -28.0015  -38.4924 C.3       6 UNK        -0.2006 
     42 C          25.3714  -28.8464  -39.6434 C.2       6 UNK         0.4892 
     43 O          25.6392  -29.9723  -39.2198 O.2       6 UNK        -0.5089 
     44 N          24.4446  -28.6152  -40.5859 N.am      7 UNK        -0.4243 
     45 CA         23.5803  -29.6526  -41.1562 C.3       7 UNK         0.0196 
     46 CB         22.9217  -29.1237  -42.4390 C.3       7 UNK        -0.2007 
     47 C          22.5052  -30.1305  -40.1654 C.2       7 UNK         0.5020 
     48 O          22.0716  -29.3664  -39.3005 O.2       7 UNK        -0.5147 
     49 N          22.0659  -31.3778  -40.3490 N.am      8 UNK        -0.4734 
     50 CA         20.9989  -32.0369  -39.6017 C.3       8 UNK         0.0238 
     51 CB         21.5392  -32.5566  -38.2557 C.3       8 UNK        -0.1912 
     52 C          20.4550  -33.1848  -40.4617 C.2       8 UNK         0.5038 
     53 O          21.1368  -33.6182  -41.3958 O.2       8 UNK        -0.5046 
     54 N          19.2509  -33.6620  -40.1283 N.am      9 UNK        -0.4200 
     55 CA         18.5795  -34.7756  -40.8233 C.3       9 UNK         0.0839 
     56 C          19.0695  -36.1911  -40.3986 C.2       9 UNK         0.5513 
     57 N          19.9203  -36.3299  -39.3887 N.am      9 UNK        -0.7519 
     58 O          18.6743  -37.1837  -41.0047 O.2       9 UNK        -0.4960 
     59 C59        17.0325  -34.6695  -40.7389 C.3       10 UNK        -0.0876 
     60 S60        16.4053  -33.0698  -41.3503 S.3       10 UNK        -0.2414 
     61 C61        16.3664  -33.3712  -43.1438 C.3       10 UNK         0.0169 
     62 H62        18.2776  -29.8467  -40.2793 H         1 UNK         0.0903 
     63 H63        17.5532  -30.3318  -41.8061 H         1 UNK         0.0903 
     64 H64        19.2900  -30.0019  -41.7194 H         1 UNK         0.0903 
     65 H65        17.0175  -28.7129  -43.3673 H         1 UNK         0.3096 
     66 H66        16.7341  -26.0300  -42.3343 H         1 UNK         0.1121 
     67 H67        14.8337  -27.1509  -43.4120 H         1 UNK         0.0849 
     68 H68        15.2178  -25.6135  -44.1033 H         1 UNK         0.0849 
     69 H69        14.2143  -29.0798  -44.7315 H         1 UNK         0.0865 
     70 H70        14.6349  -29.4374  -46.3862 H         1 UNK         0.0865 
     71 H71        14.7413  -31.4107  -44.1087 H         1 UNK         0.1346 
     72 H72        18.8648  -32.5375  -43.8116 H         1 UNK         0.1412 
     73 H73        17.7872  -28.9001  -45.7925 H         1 UNK         0.1426 
     74 H74        20.5725  -31.2489  -44.9088 H         1 UNK         0.0716 
     75 H75        20.2473  -29.6714  -44.2202 H         1 UNK         0.0716 
     76 H76        22.6558  -29.3768  -47.1574 H         1 UNK         0.0695 
     77 H77        22.4454  -29.4815  -45.4328 H         1 UNK         0.0695 
     78 H78        21.8058  -27.0368  -47.1781 H         1 UNK         0.0983 
     79 H79        21.0191  -27.5271  -44.4405 H         1 UNK         0.3095 
     80 H80        21.2396  -25.4263  -42.8879 H         1 UNK         0.0454 
     81 H81        21.2565  -23.0919  -43.6745 H         1 UNK         0.0851 
     82 H82        19.9303  -23.3364  -42.5518 H         1 UNK         0.0851 
     83 H83        19.6163  -23.2385  -44.2842 H         1 UNK         0.0851 
     84 H84        19.3000  -26.3812  -42.4215 H         1 UNK         0.2976 
     85 H85        23.4105  -26.8184  -44.0989 H         1 UNK         0.3116 
     86 H86        25.7761  -25.6220  -45.0999 H         1 UNK         0.0646 
     87 H87        27.3670  -27.2892  -44.0915 H         1 UNK         0.0847 
     88 H88        26.4524  -28.0568  -45.3740 H         1 UNK         0.0847 
     89 H89        26.0325  -28.3610  -43.6906 H         1 UNK         0.0847 
     90 H90        27.1085  -25.0379  -43.0845 H         1 UNK         0.3040 
     91 H91        25.4606  -23.6923  -41.2455 H         1 UNK         0.1015 
     92 H92        27.6329  -23.0662  -40.1698 H         1 UNK         0.0786 
     93 H93        27.7197  -22.9109  -41.9152 H         1 UNK         0.0786 
     94 H94        28.4667  -24.2938  -41.1122 H         1 UNK         0.0786 
     95 H95        26.6380  -26.9427  -41.0333 H         1 UNK         0.3172 
     96 H96        25.5125  -27.2287  -38.2912 H         1 UNK         0.0595 
     97 H97        28.1597  -28.4563  -39.2359 H         1 UNK         0.0839 
     98 H98        27.3939  -28.7133  -37.6732 H         1 UNK         0.0839 
     99 H99        28.0116  -27.1251  -38.0890 H         1 UNK         0.0839 
    100 H100       24.2551  -27.6600  -40.8623 H         1 UNK         0.2998 
    101 H101       24.2066  -30.5082  -41.4199 H         1 UNK         0.0822 
    102 H102       23.6727  -28.9107  -43.1969 H         1 UNK         0.0787 
    103 H103       22.3472  -28.2151  -42.2536 H         1 UNK         0.0787 
    104 H104       22.2430  -29.8642  -42.8629 H         1 UNK         0.0787 
    105 H105       22.4257  -31.9377  -41.1140 H         1 UNK         0.3055 
    106 H106       20.1921  -31.3224  -39.4246 H         1 UNK         0.1106 
    107 H107       22.3456  -33.2773  -38.3977 H         1 UNK         0.0828 
    108 H108       21.9250  -31.7429  -37.6413 H         1 UNK         0.0828 
    109 H109       20.7561  -33.0491  -37.6782 H         1 UNK         0.0828 
    110 H110       18.7528  -33.2633  -39.3461 H         1 UNK         0.2931 
    111 H111       18.8384  -34.6968  -41.8811 H         1 UNK         0.0412 
    112 H112       20.2561  -35.5245  -38.8864 H         1 UNK         0.3472 
    113 H113       20.2311  -37.2534  -39.1288 H         1 UNK         0.3472 
    114 H114       16.5536  -35.4709  -41.3054 H         1 UNK         0.0970 
    115 H115       16.7006  -34.7924  -39.7063 H         1 UNK         0.0970 
    116 H116       15.3665  -33.6994  -43.4321 H         1 UNK         0.0612 
    117 H117       17.0443  -34.1833  -43.4102 H         1 UNK         0.0612 
@<TRIPOS>BOND
     1    1    2 1    
     2    1   62 1    
     3    1   63 1    
     4    1   64 1    
     5    2    3 2    
     6    2    4 am   BACKBONE|DICT|INTERRES
     7    4    5 1    
     8    4   65 1    
     9    5    6 1    
    10    5   25 1    
    11    5   66 1    
    12    6    7 1    
    13    6   67 1    
    14    6   68 1    
    15    7    8 1    
    16    8    9 1    
    17    8   69 1    
    18    8   70 1    
    19    9   10 ar   
    20    9   14 ar   
    21   10   11 ar   
    22   10   71 1    
    23   11   12 ar   
    24   11   61 1    
    25   12   13 ar   
    26   12   72 1    
    27   13   14 ar   
    28   13   15 1    
    29   14   73 1    
    30   15   16 1    
    31   15   74 1    
    32   15   75 1    
    33   16   17 1    
    34   17   18 1    
    35   17   76 1    
    36   17   77 1    
    37   18   19 1    
    38   18   27 1    
    39   18   78 1    
    40   19   20 am   BACKBONE|DICT|INTERRES
    41   19   79 1    
    42   20   21 2    
    43   20   22 1    
    44   22   23 1    
    45   22   24 1    
    46   22   80 1    
    47   23   81 1    
    48   23   82 1    
    49   23   83 1    
    50   24   25 am   BACKBONE|DICT|INTERRES
    51   24   84 1    
    52   25   26 2    
    53   27   28 2    
    54   27   29 am   BACKBONE|DICT|INTERRES
    55   29   30 1    
    56   29   85 1    
    57   30   31 1    
    58   30   32 1    
    59   30   86 1    
    60   31   87 1    
    61   31   88 1    
    62   31   89 1    
    63   32   33 2    
    64   32   34 am   BACKBONE|DICT|INTERRES
    65   34   35 1    
    66   34   90 1    
    67   35   36 1    
    68   35   37 1    
    69   35   91 1    
    70   36   92 1    
    71   36   93 1    
    72   36   94 1    
    73   37   38 2    
    74   37   39 am   BACKBONE|DICT|INTERRES
    75   39   40 1    
    76   39   95 1    
    77   40   41 1    
    78   40   42 1    
    79   40   96 1    
    80   41   97 1    
    81   41   98 1    
    82   41   99 1    
    83   42   43 2    
    84   42   44 am   BACKBONE|DICT|INTERRES
    85   44   45 1    
    86   44  100 1    
    87   45   46 1    
    88   45   47 1    
    89   45  101 1    
    90   46  102 1    
    91   46  103 1    
    92   46  104 1    
    93   47   48 2    
    94   47   49 am   BACKBONE|DICT|INTERRES
    95   49   50 1    
    96   49  105 1    
    97   50   51 1    
    98   50   52 1    
    99   50  106 1    
   100   51  107 1    
   101   51  108 1    
   102   51  109 1    
   103   52   53 2    
   104   52   54 am   BACKBONE|DICT|INTERRES
   105   54   55 1    
   106   54  110 1    
   107   55   56 1    
   108   55   59 1    
   109   55  111 1    
   110   56   57 am   BACKBONE|DICT|INTERRES
   111   56   58 2    
   112   57  112 1    
   113   57  113 1    
   114   59   60 1    
   115   59  114 1    
   116   59  115 1    
   117   60   61 1    
   118   61  116 1    
   119   61  117 1    
@<TRIPOS>SUBSTRUCTURE
     1 UNK         1 GROUP             0       ****    0 ROOT    
