@<TRIPOS>MOLECULE
3R8
117   119    1
SMALL
USER_CHARGES


@<TRIPOS>ATOM
      1 CA         14.9309  -24.8277  -41.5252 C.3       0 UNK        -0.2013 
      2 C          15.8220  -24.4955  -42.7128 C.2       0 UNK         0.4866 
      3 O          15.9469  -23.3257  -43.0775 O.2       0 UNK        -0.5176 
      4 N          16.4345  -25.5165  -43.3242 N.am      1 UNK        -0.4884 
      5 CA         17.3691  -25.3800  -44.4461 C.3       1 UNK         0.0853 
      6 C6         17.6656  -26.7450  -45.1187 C.3       10 UNK        -0.0849 
      7 S7         16.1928  -27.6261  -45.7369 S.3       10 UNK        -0.2776 
      8 C8         16.2113  -29.1689  -44.7477 C.3       10 UNK         0.0316 
      9 C9         17.5208  -29.9623  -44.7965 C.ar      10 UNK        -0.0863 
     10 C10        17.9306  -30.6714  -43.6611 C.ar      10 UNK        -0.1009 
     11 C11        19.1296  -31.3905  -43.6589 C.ar      10 UNK        -0.0712 
     12 C12        19.9199  -31.4082  -44.8105 C.ar      10 UNK        -0.0894 
     13 C13        19.5340  -30.6985  -45.9490 C.ar      10 UNK        -0.0745 
     14 C14        18.3241  -29.9966  -45.9441 C.ar      10 UNK        -0.0972 
     15 C15        20.4350  -30.6843  -47.1773 C.3       10 UNK         0.0209 
     16 S16        21.9759  -29.7430  -46.9000 S.3       10 UNK        -0.2568 
     17 C17        21.3448  -28.0432  -46.6707 C.3       10 UNK        -0.0983 
     18 CA         22.0231  -27.2091  -45.5496 C.3       3 UNK         0.0876 
     19 N          21.3925  -25.8879  -45.4772 N.am      3 UNK        -0.4424 
     20 C          21.7531  -24.8606  -44.6942 C.2       2 UNK         0.4918 
     21 O          22.7414  -24.8633  -43.9619 O.2       2 UNK        -0.4875 
     22 CA         20.7992  -23.6483  -44.6942 C.3       2 UNK         0.0481 
     23 CB         21.2011  -22.6435  -45.7849 C.3       2 UNK        -0.1831 
     24 N          19.3950  -24.0472  -44.8775 N.am      2 UNK        -0.4498 
     25 C          18.7062  -24.7679  -43.9793 C.2       1 UNK         0.5027 
     26 O          19.1459  -25.0521  -42.8631 O.2       1 UNK        -0.4969 
     27 C          22.0363  -27.9273  -44.1794 C.2       3 UNK         0.5005 
     28 O          23.0416  -28.5507  -43.8333 O.2       3 UNK        -0.5279 
     29 N          20.9547  -27.7826  -43.3960 N.am      4 UNK        -0.4463 
     30 CA         20.7745  -28.4253  -42.0901 C.3       4 UNK         0.0283 
     31 CB         19.3629  -28.1472  -41.5494 C.3       4 UNK        -0.1875 
     32 C          21.8219  -28.0191  -41.0444 C.2       4 UNK         0.4949 
     33 O          22.1629  -28.8412  -40.1965 O.2       4 UNK        -0.5039 
     34 N          22.3389  -26.7864  -41.1388 N.am      5 UNK        -0.4663 
     35 CA         23.4037  -26.2732  -40.2733 C.3       5 UNK         0.0242 
     36 CB         23.5272  -24.7537  -40.4684 C.3       5 UNK        -0.1982 
     37 C          24.7616  -26.9613  -40.5047 C.2       5 UNK         0.5017 
     38 O          25.5729  -27.0045  -39.5792 O.2       5 UNK        -0.5012 
     39 N          24.9826  -27.4829  -41.7191 N.am      6 UNK        -0.4439 
     40 CA         26.1760  -28.2404  -42.0914 C.3       6 UNK         0.0297 
     41 CB         26.5601  -27.9092  -43.5435 C.3       6 UNK        -0.2006 
     42 C          25.9489  -29.7495  -41.9212 C.2       6 UNK         0.4892 
     43 O          26.8127  -30.4310  -41.3684 O.2       6 UNK        -0.5089 
     44 N          24.8059  -30.2445  -42.4157 N.am      7 UNK        -0.4243 
     45 CA         24.4595  -31.6658  -42.4472 C.3       7 UNK         0.0196 
     46 CB         23.3304  -31.8757  -43.4648 C.3       7 UNK        -0.2007 
     47 C          24.0801  -32.2504  -41.0763 C.2       7 UNK         0.5020 
     48 O          24.3932  -33.4136  -40.8230 O.2       7 UNK        -0.5147 
     49 N          23.4187  -31.4493  -40.2253 N.am      8 UNK        -0.4734 
     50 CA         23.0050  -31.7639  -38.8487 C.3       8 UNK         0.0238 
     51 CB         24.2419  -31.8544  -37.9294 C.3       8 UNK        -0.1912 
     52 C          22.0768  -32.9923  -38.7239 C.2       8 UNK         0.5038 
     53 O          22.1671  -33.7278  -37.7387 O.2       8 UNK        -0.5046 
     54 N          21.2032  -33.1964  -39.7206 N.am      9 UNK        -0.4200 
     55 CA         20.2596  -34.3269  -39.7889 C.3       9 UNK         0.0839 
     56 C          19.0357  -34.2402  -38.8290 C.2       9 UNK         0.5513 
     57 N          18.7917  -33.1196  -38.1596 N.am      9 UNK        -0.7519 
     58 O          18.3043  -35.2157  -38.6787 O.2       9 UNK        -0.4960 
     59 C59        19.8726  -34.6757  -41.2545 C.3       10 UNK        -0.0876 
     60 S60        18.6281  -33.5970  -42.0534 S.3       10 UNK        -0.2414 
     61 C61        19.6006  -32.1057  -42.4012 C.3       10 UNK         0.0169 
     62 H62        14.9027  -25.8982  -41.3225 H         1 UNK         0.0903 
     63 H63        15.2953  -24.3230  -40.6308 H         1 UNK         0.0903 
     64 H64        13.9118  -24.4918  -41.7150 H         1 UNK         0.0903 
     65 H65        16.3011  -26.4550  -42.9787 H         1 UNK         0.3096 
     66 H66        16.9173  -24.7121  -45.1834 H         1 UNK         0.1121 
     67 H67        18.3244  -26.6069  -45.9776 H         1 UNK         0.0849 
     68 H68        18.2057  -27.3944  -44.4298 H         1 UNK         0.0849 
     69 H69        15.9701  -28.9104  -43.7155 H         1 UNK         0.0865 
     70 H70        15.4044  -29.8143  -45.0967 H         1 UNK         0.0865 
     71 H71        17.3229  -30.6564  -42.7664 H         1 UNK         0.1346 
     72 H72        20.8512  -31.9559  -44.8216 H         1 UNK         0.1412 
     73 H73        18.0198  -29.4580  -46.8308 H         1 UNK         0.1426 
     74 H74        19.9120  -30.2676  -48.0396 H         1 UNK         0.0716 
     75 H75        20.6927  -31.7104  -47.4431 H         1 UNK         0.0716 
     76 H76        21.4617  -27.5286  -47.6257 H         1 UNK         0.0695 
     77 H77        20.2707  -28.0856  -46.4931 H         1 UNK         0.0695 
     78 H78        23.0671  -27.0528  -45.8294 H         1 UNK         0.0983 
     79 H79        20.5894  -25.7543  -46.0715 H         1 UNK         0.3095 
     80 H80        20.8899  -23.1528  -43.7252 H         1 UNK         0.0454 
     81 H81        22.2345  -22.3195  -45.6529 H         1 UNK         0.0851 
     82 H82        21.1200  -23.0716  -46.7847 H         1 UNK         0.0851 
     83 H83        20.5777  -21.7499  -45.7502 H         1 UNK         0.0851 
     84 H84        18.9715  -23.8297  -45.7691 H         1 UNK         0.2976 
     85 H85        20.2061  -27.1858  -43.7108 H         1 UNK         0.3116 
     86 H86        20.8764  -29.4991  -42.2502 H         1 UNK         0.0646 
     87 H87        19.1666  -28.7466  -40.6595 H         1 UNK         0.0847 
     88 H88        18.5918  -28.3902  -42.2771 H         1 UNK         0.0847 
     89 H89        19.2361  -27.1025  -41.2651 H         1 UNK         0.0847 
     90 H90        22.0144  -26.1785  -41.8791 H         1 UNK         0.3040 
     91 H91        23.1160  -26.4637  -39.2368 H         1 UNK         0.1015 
     92 H92        22.5850  -24.2473  -40.2579 H         1 UNK         0.0786 
     93 H93        23.8253  -24.5001  -41.4864 H         1 UNK         0.0786 
     94 H94        24.2772  -24.3344  -39.7962 H         1 UNK         0.0786 
     95 H95        24.2372  -27.4419  -42.4041 H         1 UNK         0.3172 
     96 H96        27.0137  -27.9513  -41.4531 H         1 UNK         0.0595 
     97 H97        27.4531  -28.4586  -43.8448 H         1 UNK         0.0839 
     98 H98        26.7784  -26.8477  -43.6618 H         1 UNK         0.0839 
     99 H99        25.7667  -28.1667  -44.2463 H         1 UNK         0.0839 
    100 H100       24.1622  -29.6120  -42.8892 H         1 UNK         0.2998 
    101 H101       25.3336  -32.2178  -42.7998 H         1 UNK         0.0822 
    102 H102       22.4803  -31.2316  -43.2437 H         1 UNK         0.0787 
    103 H103       23.6631  -31.6403  -44.4761 H         1 UNK         0.0787 
    104 H104       22.9823  -32.9097  -43.4684 H         1 UNK         0.0787 
    105 H105       23.1906  -30.5049  -40.5232 H         1 UNK         0.3055 
    106 H106       22.4113  -30.9144  -38.5075 H         1 UNK         0.1106 
    107 H107       24.8629  -32.7174  -38.1718 H         1 UNK         0.0828 
    108 H108       24.8620  -30.9616  -38.0118 H         1 UNK         0.0828 
    109 H109       23.9492  -31.9471  -36.8828 H         1 UNK         0.0828 
    110 H110       21.1853  -32.5422  -40.4860 H         1 UNK         0.2931 
    111 H111       20.8191  -35.1937  -39.4304 H         1 UNK         0.0412 
    112 H112       18.0001  -33.0795  -37.5368 H         1 UNK         0.3472 
    113 H113       19.3882  -32.3163  -38.2701 H         1 UNK         0.3472 
    114 H114       19.4680  -35.6892  -41.2791 H         1 UNK         0.0970 
    115 H115       20.7654  -34.7175  -41.8805 H         1 UNK         0.0970 
    116 H116       19.5303  -31.4308  -41.5472 H         1 UNK         0.0612 
    117 H117       20.6497  -32.3795  -42.4978 H         1 UNK         0.0612 
@<TRIPOS>BOND
     1    1    2 1    
     2    1   62 1    
     3    1   63 1    
     4    1   64 1    
     5    2    3 2    
     6    2    4 am   BACKBONE|DICT|INTERRES
     7    4    5 1    
     8    4   65 1    
     9    5    6 1    
    10    5   25 1    
    11    5   66 1    
    12    6    7 1    
    13    6   67 1    
    14    6   68 1    
    15    7    8 1    
    16    8    9 1    
    17    8   69 1    
    18    8   70 1    
    19    9   10 ar   
    20    9   14 ar   
    21   10   11 ar   
    22   10   71 1    
    23   11   12 ar   
    24   11   61 1    
    25   12   13 ar   
    26   12   72 1    
    27   13   14 ar   
    28   13   15 1    
    29   14   73 1    
    30   15   16 1    
    31   15   74 1    
    32   15   75 1    
    33   16   17 1    
    34   17   18 1    
    35   17   76 1    
    36   17   77 1    
    37   18   19 1    
    38   18   27 1    
    39   18   78 1    
    40   19   20 am   BACKBONE|DICT|INTERRES
    41   19   79 1    
    42   20   21 2    
    43   20   22 1    
    44   22   23 1    
    45   22   24 1    
    46   22   80 1    
    47   23   81 1    
    48   23   82 1    
    49   23   83 1    
    50   24   25 am   BACKBONE|DICT|INTERRES
    51   24   84 1    
    52   25   26 2    
    53   27   28 2    
    54   27   29 am   BACKBONE|DICT|INTERRES
    55   29   30 1    
    56   29   85 1    
    57   30   31 1    
    58   30   32 1    
    59   30   86 1    
    60   31   87 1    
    61   31   88 1    
    62   31   89 1    
    63   32   33 2    
    64   32   34 am   BACKBONE|DICT|INTERRES
    65   34   35 1    
    66   34   90 1    
    67   35   36 1    
    68   35   37 1    
    69   35   91 1    
    70   36   92 1    
    71   36   93 1    
    72   36   94 1    
    73   37   38 2    
    74   37   39 am   BACKBONE|DICT|INTERRES
    75   39   40 1    
    76   39   95 1    
    77   40   41 1    
    78   40   42 1    
    79   40   96 1    
    80   41   97 1    
    81   41   98 1    
    82   41   99 1    
    83   42   43 2    
    84   42   44 am   BACKBONE|DICT|INTERRES
    85   44   45 1    
    86   44  100 1    
    87   45   46 1    
    88   45   47 1    
    89   45  101 1    
    90   46  102 1    
    91   46  103 1    
    92   46  104 1    
    93   47   48 2    
    94   47   49 am   BACKBONE|DICT|INTERRES
    95   49   50 1    
    96   49  105 1    
    97   50   51 1    
    98   50   52 1    
    99   50  106 1    
   100   51  107 1    
   101   51  108 1    
   102   51  109 1    
   103   52   53 2    
   104   52   54 am   BACKBONE|DICT|INTERRES
   105   54   55 1    
   106   54  110 1    
   107   55   56 1    
   108   55   59 1    
   109   55  111 1    
   110   56   57 am   BACKBONE|DICT|INTERRES
   111   56   58 2    
   112   57  112 1    
   113   57  113 1    
   114   59   60 1    
   115   59  114 1    
   116   59  115 1    
   117   60   61 1    
   118   61  116 1    
   119   61  117 1    
@<TRIPOS>SUBSTRUCTURE
     1 UNK         1 GROUP             0       ****    0 ROOT    
