@<TRIPOS>MOLECULE
3R8
117   119    1
SMALL
USER_CHARGES


@<TRIPOS>ATOM
      1 CA         15.8846  -23.4215  -41.7682 C.3       0 UNK        -0.2013 
      2 C          16.7959  -24.1860  -42.7170 C.2       0 UNK         0.4866 
      3 O          17.8391  -24.6747  -42.2843 O.2       0 UNK        -0.5176 
      4 N          16.3908  -24.2924  -43.9923 N.am      1 UNK        -0.4884 
      5 CA         17.0874  -24.9309  -45.1232 C.3       1 UNK         0.0853 
      6 C6         17.5661  -26.3805  -44.8473 C.3       10 UNK        -0.0849 
      7 S7         16.2689  -27.5274  -44.2666 S.3       10 UNK        -0.2776 
      8 C8         17.1084  -28.3382  -42.8610 C.3       10 UNK         0.0316 
      9 C9         18.0759  -29.4339  -43.3040 C.ar      10 UNK        -0.0863 
     10 C10        17.8144  -30.7758  -43.0095 C.ar      10 UNK        -0.1009 
     11 C11        18.7179  -31.7775  -43.3846 C.ar      10 UNK        -0.0712 
     12 C12        19.8796  -31.4329  -44.0854 C.ar      10 UNK        -0.0894 
     13 C13        20.1603  -30.0966  -44.3731 C.ar      10 UNK        -0.0745 
     14 C14        19.2588  -29.1102  -43.9731 C.ar      10 UNK        -0.0972 
     15 C15        21.4516  -29.7000  -45.0734 C.3       10 UNK         0.0209 
     16 S16        21.1267  -28.6363  -46.5176 S.3       10 UNK        -0.2568 
     17 C17        22.6120  -27.5772  -46.5334 C.3       10 UNK        -0.0983 
     18 CA         22.3854  -26.1455  -45.9732 C.3       3 UNK         0.0876 
     19 N          21.2288  -25.4844  -46.5921 N.am      3 UNK        -0.4424 
     20 C          21.1669  -24.1937  -46.9478 C.2       2 UNK         0.4918 
     21 O          22.0929  -23.3960  -46.8041 O.2       2 UNK        -0.4875 
     22 CA         19.8316  -23.7053  -47.5403 C.3       2 UNK         0.0481 
     23 CB         19.7904  -23.9627  -49.0550 C.3       2 UNK        -0.1831 
     24 N          18.6615  -24.3224  -46.9032 N.am      2 UNK        -0.4498 
     25 C          18.2763  -24.0878  -45.6394 C.2       1 UNK         0.5027 
     26 O          18.8563  -23.2903  -44.8992 O.2       1 UNK        -0.4969 
     27 C          22.3630  -26.0807  -44.4262 C.2       3 UNK         0.5005 
     28 O          23.1924  -26.7293  -43.7879 O.2       3 UNK        -0.5279 
     29 N          21.4423  -25.2914  -43.8458 N.am      4 UNK        -0.4463 
     30 CA         21.4015  -24.8421  -42.4441 C.3       4 UNK         0.0283 
     31 CB         22.5248  -23.8111  -42.2035 C.3       4 UNK        -0.1875 
     32 C          21.4027  -25.9562  -41.3736 C.2       4 UNK         0.4949 
     33 O          21.8938  -25.7299  -40.2665 O.2       4 UNK        -0.5039 
     34 N          20.8625  -27.1341  -41.7193 N.am      5 UNK        -0.4663 
     35 CA         20.8149  -28.3581  -40.9043 C.3       5 UNK         0.0242 
     36 CB         19.8805  -28.1788  -39.6888 C.3       5 UNK        -0.1982 
     37 C          22.2099  -28.8962  -40.5260 C.2       5 UNK         0.5017 
     38 O          22.3922  -29.4053  -39.4198 O.2       5 UNK        -0.5012 
     39 N          23.1721  -28.7712  -41.4513 N.am      6 UNK        -0.4439 
     40 CA         24.5254  -29.3169  -41.3313 C.3       6 UNK         0.0297 
     41 CB         25.3790  -28.7736  -42.4899 C.3       6 UNK        -0.2006 
     42 C          24.5612  -30.8583  -41.3185 C.2       6 UNK         0.4892 
     43 O          23.6220  -31.5107  -41.7831 O.2       6 UNK        -0.5089 
     44 N          25.6877  -31.3954  -40.8284 N.am      7 UNK        -0.4243 
     45 CA         26.0275  -32.8193  -40.7356 C.3       7 UNK         0.0196 
     46 CB         26.1716  -33.4430  -42.1446 C.3       7 UNK        -0.2007 
     47 C          25.0789  -33.5848  -39.7917 C.2       7 UNK         0.5020 
     48 O          24.7616  -33.0790  -38.7131 O.2       7 UNK        -0.5147 
     49 N          24.6623  -34.7950  -40.1903 N.am      8 UNK        -0.4734 
     50 CA         23.8387  -35.7223  -39.4028 C.3       8 UNK         0.0238 
     51 CB         23.7224  -37.0548  -40.1615 C.3       8 UNK        -0.1912 
     52 C          22.4406  -35.1949  -39.0301 C.2       8 UNK         0.5038 
     53 O          21.8477  -35.7004  -38.0759 O.2       8 UNK        -0.5046 
     54 N          21.9466  -34.1971  -39.7722 N.am      9 UNK        -0.4200 
     55 CA         20.6915  -33.4856  -39.4925 C.3       9 UNK         0.0839 
     56 C          20.7822  -32.4791  -38.3073 C.2       9 UNK         0.5513 
     57 N          21.9530  -32.2089  -37.7409 N.am      9 UNK        -0.7519 
     58 O          19.7606  -31.9464  -37.8819 O.2       9 UNK        -0.4960 
     59 C59        20.1275  -32.8069  -40.7658 C.3       10 UNK        -0.0876 
     60 S60        19.8437  -33.9976  -42.1234 S.3       10 UNK        -0.2414 
     61 C61        18.4466  -33.2294  -43.0094 C.3       10 UNK         0.0169 
     62 H62        15.5729  -24.0673  -40.9477 H         1 UNK         0.0903 
     63 H63        16.4152  -22.5679  -41.3472 H         1 UNK         0.0903 
     64 H64        14.9892  -23.0519  -42.2675 H         1 UNK         0.0903 
     65 H65        15.5209  -23.8454  -44.2475 H         1 UNK         0.3096 
     66 H66        16.3540  -24.9692  -45.9306 H         1 UNK         0.1121 
     67 H67        18.0026  -26.8232  -45.7447 H         1 UNK         0.0849 
     68 H68        18.3649  -26.3386  -44.1091 H         1 UNK         0.0849 
     69 H69        17.6369  -27.5950  -42.2617 H         1 UNK         0.0865 
     70 H70        16.3434  -28.7564  -42.2051 H         1 UNK         0.0865 
     71 H71        16.9134  -31.0406  -42.4730 H         1 UNK         0.1346 
     72 H72        20.5794  -32.2048  -44.3751 H         1 UNK         0.1412 
     73 H73        19.5035  -28.0865  -44.1915 H         1 UNK         0.1426 
     74 H74        22.0837  -29.1801  -44.3533 H         1 UNK         0.0716 
     75 H75        22.0102  -30.5786  -45.3994 H         1 UNK         0.0716 
     76 H76        23.4391  -28.0797  -46.0282 H         1 UNK         0.0695 
     77 H77        22.9267  -27.4970  -47.5749 H         1 UNK         0.0695 
     78 H78        23.2788  -25.5788  -46.2454 H         1 UNK         0.0983 
     79 H79        20.4332  -26.0793  -46.7718 H         1 UNK         0.3095 
     80 H80        19.7730  -22.6264  -47.3812 H         1 UNK         0.0454 
     81 H81        18.8872  -23.5489  -49.5038 H         1 UNK         0.0851 
     82 H82        20.6400  -23.4932  -49.5530 H         1 UNK         0.0851 
     83 H83        19.8248  -25.0275  -49.2889 H         1 UNK         0.0851 
     84 H84        18.1362  -24.9786  -47.4644 H         1 UNK         0.2976 
     85 H85        20.7941  -24.8132  -44.4570 H         1 UNK         0.3116 
     86 H86        20.4526  -24.3183  -42.3265 H         1 UNK         0.0646 
     87 H87        22.4315  -23.3460  -41.2214 H         1 UNK         0.0847 
     88 H88        22.4927  -23.0088  -42.9407 H         1 UNK         0.0847 
     89 H89        23.5111  -24.2741  -42.2531 H         1 UNK         0.0847 
     90 H90        20.5023  -27.2121  -42.6573 H         1 UNK         0.3040 
     91 H91        20.3763  -29.1380  -41.5253 H         1 UNK         0.1015 
     92 H92        20.2835  -27.4660  -38.9690 H         1 UNK         0.0786 
     93 H93        19.7381  -29.1246  -39.1638 H         1 UNK         0.0786 
     94 H94        18.8949  -27.8280  -39.9940 H         1 UNK         0.0786 
     95 H95        22.9645  -28.2669  -42.3058 H         1 UNK         0.3172 
     96 H96        24.9458  -28.9579  -40.3896 H         1 UNK         0.0595 
     97 H97        24.9780  -29.0739  -43.4590 H         1 UNK         0.0839 
     98 H98        26.4057  -29.1375  -42.4349 H         1 UNK         0.0839 
     99 H99        25.4244  -27.6844  -42.4712 H         1 UNK         0.0839 
    100 H100       26.3796  -30.7659  -40.4460 H         1 UNK         0.2998 
    101 H101       27.0090  -32.8618  -40.2609 H         1 UNK         0.0822 
    102 H102       26.8432  -32.8504  -42.7661 H         1 UNK         0.0787 
    103 H103       26.5955  -34.4467  -42.0953 H         1 UNK         0.0787 
    104 H104       25.2158  -33.5081  -42.6663 H         1 UNK         0.0787 
    105 H105       24.9655  -35.1222  -41.0966 H         1 UNK         0.3055 
    106 H106       24.3638  -35.9073  -38.4631 H         1 UNK         0.1106 
    107 H107       23.1427  -37.7812  -39.5897 H         1 UNK         0.0828 
    108 H108       23.2256  -36.9286  -41.1244 H         1 UNK         0.0828 
    109 H109       24.7019  -37.4980  -40.3421 H         1 UNK         0.0828 
    110 H110       22.5082  -33.8308  -40.5274 H         1 UNK         0.2931 
    111 H111       19.9591  -34.2339  -39.1827 H         1 UNK         0.0412 
    112 H112       21.9895  -31.5432  -36.9859 H         1 UNK         0.3472 
    113 H113       22.8119  -32.6072  -38.1018 H         1 UNK         0.3472 
    114 H114       20.8087  -32.0300  -41.1199 H         1 UNK         0.0970 
    115 H115       19.1840  -32.3063  -40.5393 H         1 UNK         0.0970 
    116 H116       18.2455  -33.8001  -43.9167 H         1 UNK         0.0612 
    117 H117       17.5543  -33.3101  -42.3866 H         1 UNK         0.0612 
@<TRIPOS>BOND
     1    1    2 1    
     2    1   62 1    
     3    1   63 1    
     4    1   64 1    
     5    2    3 2    
     6    2    4 am   BACKBONE|DICT|INTERRES
     7    4    5 1    
     8    4   65 1    
     9    5    6 1    
    10    5   25 1    
    11    5   66 1    
    12    6    7 1    
    13    6   67 1    
    14    6   68 1    
    15    7    8 1    
    16    8    9 1    
    17    8   69 1    
    18    8   70 1    
    19    9   10 ar   
    20    9   14 ar   
    21   10   11 ar   
    22   10   71 1    
    23   11   12 ar   
    24   11   61 1    
    25   12   13 ar   
    26   12   72 1    
    27   13   14 ar   
    28   13   15 1    
    29   14   73 1    
    30   15   16 1    
    31   15   74 1    
    32   15   75 1    
    33   16   17 1    
    34   17   18 1    
    35   17   76 1    
    36   17   77 1    
    37   18   19 1    
    38   18   27 1    
    39   18   78 1    
    40   19   20 am   BACKBONE|DICT|INTERRES
    41   19   79 1    
    42   20   21 2    
    43   20   22 1    
    44   22   23 1    
    45   22   24 1    
    46   22   80 1    
    47   23   81 1    
    48   23   82 1    
    49   23   83 1    
    50   24   25 am   BACKBONE|DICT|INTERRES
    51   24   84 1    
    52   25   26 2    
    53   27   28 2    
    54   27   29 am   BACKBONE|DICT|INTERRES
    55   29   30 1    
    56   29   85 1    
    57   30   31 1    
    58   30   32 1    
    59   30   86 1    
    60   31   87 1    
    61   31   88 1    
    62   31   89 1    
    63   32   33 2    
    64   32   34 am   BACKBONE|DICT|INTERRES
    65   34   35 1    
    66   34   90 1    
    67   35   36 1    
    68   35   37 1    
    69   35   91 1    
    70   36   92 1    
    71   36   93 1    
    72   36   94 1    
    73   37   38 2    
    74   37   39 am   BACKBONE|DICT|INTERRES
    75   39   40 1    
    76   39   95 1    
    77   40   41 1    
    78   40   42 1    
    79   40   96 1    
    80   41   97 1    
    81   41   98 1    
    82   41   99 1    
    83   42   43 2    
    84   42   44 am   BACKBONE|DICT|INTERRES
    85   44   45 1    
    86   44  100 1    
    87   45   46 1    
    88   45   47 1    
    89   45  101 1    
    90   46  102 1    
    91   46  103 1    
    92   46  104 1    
    93   47   48 2    
    94   47   49 am   BACKBONE|DICT|INTERRES
    95   49   50 1    
    96   49  105 1    
    97   50   51 1    
    98   50   52 1    
    99   50  106 1    
   100   51  107 1    
   101   51  108 1    
   102   51  109 1    
   103   52   53 2    
   104   52   54 am   BACKBONE|DICT|INTERRES
   105   54   55 1    
   106   54  110 1    
   107   55   56 1    
   108   55   59 1    
   109   55  111 1    
   110   56   57 am   BACKBONE|DICT|INTERRES
   111   56   58 2    
   112   57  112 1    
   113   57  113 1    
   114   59   60 1    
   115   59  114 1    
   116   59  115 1    
   117   60   61 1    
   118   61  116 1    
   119   61  117 1    
@<TRIPOS>SUBSTRUCTURE
     1 UNK         1 GROUP             0       ****    0 ROOT    
