@<TRIPOS>MOLECULE
3R8
117   119    1
SMALL
USER_CHARGES


@<TRIPOS>ATOM
      1 CA         13.3247  -24.3498  -43.3723 C.3       0 UNK        -0.2013 
      2 C          14.5065  -24.4183  -44.3281 C.2       0 UNK         0.4866 
      3 O          14.8644  -23.4075  -44.9339 O.2       0 UNK        -0.5176 
      4 N          15.1087  -25.6043  -44.4756 N.am      1 UNK        -0.4884 
      5 CA         16.3050  -25.8494  -45.2869 C.3       1 UNK         0.0853 
      6 C6         16.5041  -27.3547  -45.6049 C.3       10 UNK        -0.0849 
      7 S7         16.2348  -28.4832  -44.1909 S.3       10 UNK        -0.2776 
      8 C8         16.3432  -30.1044  -45.0137 C.3       10 UNK         0.0316 
      9 C9         17.7879  -30.5663  -45.1095 C.ar      10 UNK        -0.0863 
     10 C10        18.3355  -31.3539  -44.0923 C.ar      10 UNK        -0.1009 
     11 C11        19.6789  -31.7520  -44.1361 C.ar      10 UNK        -0.0712 
     12 C12        20.4610  -31.3514  -45.2240 C.ar      10 UNK        -0.0894 
     13 C13        19.9311  -30.5466  -46.2371 C.ar      10 UNK        -0.0745 
     14 C14        18.5853  -30.1796  -46.1896 C.ar      10 UNK        -0.0972 
     15 C15        20.8387  -30.0043  -47.3336 C.3       10 UNK         0.0209 
     16 S16        21.2461  -28.2394  -47.0758 S.3       10 UNK        -0.2568 
     17 C17        21.8129  -28.2331  -45.3385 C.3       10 UNK        -0.0983 
     18 CA         21.9920  -26.8254  -44.7156 C.3       3 UNK         0.0876 
     19 N          20.8553  -25.9329  -44.9793 N.am      3 UNK        -0.4424 
     20 C          20.8084  -24.6305  -44.6621 C.2       2 UNK         0.4918 
     21 O          21.7104  -24.0373  -44.0700 O.2       2 UNK        -0.4875 
     22 CA         19.5745  -23.8251  -45.1068 C.3       2 UNK         0.0481 
     23 CB         19.9450  -22.8909  -46.2711 C.3       2 UNK        -0.1831 
     24 N          18.4207  -24.6367  -45.5052 N.am      2 UNK        -0.4498 
     25 C          17.5591  -25.2088  -44.6527 C.2       1 UNK         0.5027 
     26 O          17.7176  -25.2319  -43.4294 O.2       1 UNK        -0.4969 
     27 C          22.2677  -26.9658  -43.2049 C.2       3 UNK         0.5005 
     28 O          23.3865  -26.7065  -42.7563 O.2       3 UNK        -0.5279 
     29 N          21.2241  -27.3754  -42.4638 N.am      4 UNK        -0.4463 
     30 CA         21.1881  -27.6074  -41.0177 C.3       4 UNK         0.0283 
     31 CB         21.0350  -26.2575  -40.2818 C.3       4 UNK        -0.1875 
     32 C          22.3758  -28.4637  -40.5327 C.2       4 UNK         0.4949 
     33 O          22.4847  -29.6296  -40.9230 O.2       4 UNK        -0.5039 
     34 N          23.2587  -27.8593  -39.7266 N.am      5 UNK        -0.4663 
     35 CA         24.4487  -28.4651  -39.1289 C.3       5 UNK         0.0242 
     36 CB         25.1230  -27.4369  -38.2068 C.3       5 UNK        -0.1982 
     37 C          25.4671  -29.0322  -40.1333 C.2       5 UNK         0.5017 
     38 O          26.2431  -29.9041  -39.7421 O.2       5 UNK        -0.5012 
     39 N          25.4285  -28.5856  -41.4006 N.am      6 UNK        -0.4439 
     40 CA         26.2782  -29.0824  -42.4922 C.3       6 UNK         0.0297 
     41 CB         26.0171  -28.2669  -43.7681 C.3       6 UNK        -0.2006 
     42 C          26.1194  -30.5880  -42.7821 C.2       6 UNK         0.4892 
     43 O          27.0632  -31.2001  -43.2836 O.2       6 UNK        -0.5089 
     44 N          24.9574  -31.1591  -42.4378 N.am      7 UNK        -0.4243 
     45 CA         24.7004  -32.5995  -42.4552 C.3       7 UNK         0.0196 
     46 CB         24.0180  -32.9972  -43.7760 C.3       7 UNK        -0.2007 
     47 C          23.9353  -33.0366  -41.1927 C.2       7 UNK         0.5020 
     48 O          23.1632  -33.9933  -41.2458 O.2       7 UNK        -0.5147 
     49 N          24.1879  -32.3374  -40.0741 N.am      8 UNK        -0.4734 
     50 CA         23.6961  -32.6054  -38.7143 C.3       8 UNK         0.0238 
     51 CB         24.3297  -33.9036  -38.1686 C.3       8 UNK        -0.1912 
     52 C          22.1607  -32.5842  -38.5401 C.2       8 UNK         0.5038 
     53 O          21.6550  -33.2229  -37.6144 O.2       8 UNK        -0.5046 
     54 N          21.4460  -31.8447  -39.3964 N.am      9 UNK        -0.4200 
     55 CA         19.9991  -31.6077  -39.2782 C.3       9 UNK         0.0839 
     56 C          19.6854  -30.4138  -38.3358 C.2       9 UNK         0.5513 
     57 N          18.4537  -30.3184  -37.8541 N.am      9 UNK        -0.7519 
     58 O          20.5273  -29.5653  -38.0496 O.2       9 UNK        -0.4960 
     59 C59        19.3295  -31.4345  -40.6666 C.3       10 UNK        -0.0876 
     60 S60        19.3097  -33.0054  -41.5962 S.3       10 UNK        -0.2414 
     61 C61        20.3447  -32.5903  -43.0397 C.3       10 UNK         0.0169 
     62 H62        12.4316  -24.0201  -43.9025 H         1 UNK         0.0903 
     63 H63        13.1115  -25.3171  -42.9178 H         1 UNK         0.0903 
     64 H64        13.5297  -23.6376  -42.5734 H         1 UNK         0.0903 
     65 H65        14.8006  -26.3983  -43.9308 H         1 UNK         0.3096 
     66 H66        16.1407  -25.3431  -46.2414 H         1 UNK         0.1121 
     67 H67        17.4950  -27.5324  -46.0253 H         1 UNK         0.0849 
     68 H68        15.7993  -27.6396  -46.3879 H         1 UNK         0.0849 
     69 H69        15.7585  -30.8278  -44.4431 H         1 UNK         0.0865 
     70 H70        15.8858  -30.0623  -46.0034 H         1 UNK         0.0865 
     71 H71        17.7043  -31.6358  -43.2624 H         1 UNK         0.1346 
     72 H72        21.5035  -31.6302  -45.2659 H         1 UNK         0.1412 
     73 H73        18.1747  -29.5559  -46.9713 H         1 UNK         0.1426 
     74 H74        21.7656  -30.5779  -47.3845 H         1 UNK         0.0716 
     75 H75        20.3525  -30.1208  -48.3032 H         1 UNK         0.0716 
     76 H76        21.0843  -28.7875  -44.7489 H         1 UNK         0.0695 
     77 H77        22.7452  -28.7979  -45.2804 H         1 UNK         0.0695 
     78 H78        22.8731  -26.3657  -45.1686 H         1 UNK         0.0983 
     79 H79        20.0863  -26.3318  -45.4961 H         1 UNK         0.3095 
     80 H80        19.2776  -23.2009  -44.2610 H         1 UNK         0.0454 
     81 H81        20.2493  -23.4492  -47.1573 H         1 UNK         0.0851 
     82 H82        19.1087  -22.2486  -46.5477 H         1 UNK         0.0851 
     83 H83        20.7743  -22.2360  -45.9997 H         1 UNK         0.0851 
     84 H84        18.2248  -24.6736  -46.4958 H         1 UNK         0.2976 
     85 H85        20.3588  -27.5633  -42.9503 H         1 UNK         0.3116 
     86 H86        20.2913  -28.1949  -40.8166 H         1 UNK         0.0646 
     87 H87        21.8678  -25.5816  -40.4808 H         1 UNK         0.0847 
     88 H88        20.1233  -25.7479  -40.5944 H         1 UNK         0.0847 
     89 H89        20.9621  -26.4000  -39.2024 H         1 UNK         0.0847 
     90 H90        23.0911  -26.8904  -39.4979 H         1 UNK         0.3040 
     91 H91        24.1067  -29.3010  -38.5155 H         1 UNK         0.1015 
     92 H92        25.4568  -26.5576  -38.7593 H         1 UNK         0.0786 
     93 H93        25.9985  -27.8653  -37.7164 H         1 UNK         0.0786 
     94 H94        24.4460  -27.1039  -37.4197 H         1 UNK         0.0786 
     95 H95        24.7352  -27.8847  -41.6475 H         1 UNK         0.3172 
     96 H96        27.3149  -28.9180  -42.1915 H         1 UNK         0.0595 
     97 H97        26.7028  -28.5595  -44.5645 H         1 UNK         0.0839 
     98 H98        26.1571  -27.1994  -43.5965 H         1 UNK         0.0839 
     99 H99        25.0043  -28.4179  -44.1418 H         1 UNK         0.0839 
    100 H100       24.2268  -30.5782  -42.0403 H         1 UNK         0.2998 
    101 H101       25.6497  -33.1371  -42.4021 H         1 UNK         0.0822 
    102 H102       23.7730  -34.0598  -43.7981 H         1 UNK         0.0787 
    103 H103       23.0984  -32.4400  -43.9287 H         1 UNK         0.0787 
    104 H104       24.6691  -32.7996  -44.6276 H         1 UNK         0.0787 
    105 H105       24.8638  -31.5853  -40.1421 H         1 UNK         0.3055 
    106 H106       24.0647  -31.7848  -38.0972 H         1 UNK         0.1106 
    107 H107       25.4155  -33.8861  -38.2626 H         1 UNK         0.0828 
    108 H108       24.1032  -34.0402  -37.1105 H         1 UNK         0.0828 
    109 H109       23.9610  -34.7840  -38.6960 H         1 UNK         0.0828 
    110 H110       21.9340  -31.2725  -40.0782 H         1 UNK         0.2931 
    111 H111       19.5473  -32.4855  -38.8111 H         1 UNK         0.0412 
    112 H112       18.2260  -29.5482  -37.2447 H         1 UNK         0.3472 
    113 H113       17.7512  -31.0083  -38.0718 H         1 UNK         0.3472 
    114 H114       18.2914  -31.1136  -40.5635 H         1 UNK         0.0970 
    115 H115       19.8280  -30.6544  -41.2445 H         1 UNK         0.0970 
    116 H116       21.2288  -32.0659  -42.6758 H         1 UNK         0.0612 
    117 H117       20.6955  -33.5241  -43.4811 H         1 UNK         0.0612 
@<TRIPOS>BOND
     1    1    2 1    
     2    1   62 1    
     3    1   63 1    
     4    1   64 1    
     5    2    3 2    
     6    2    4 am   BACKBONE|DICT|INTERRES
     7    4    5 1    
     8    4   65 1    
     9    5    6 1    
    10    5   25 1    
    11    5   66 1    
    12    6    7 1    
    13    6   67 1    
    14    6   68 1    
    15    7    8 1    
    16    8    9 1    
    17    8   69 1    
    18    8   70 1    
    19    9   10 ar   
    20    9   14 ar   
    21   10   11 ar   
    22   10   71 1    
    23   11   12 ar   
    24   11   61 1    
    25   12   13 ar   
    26   12   72 1    
    27   13   14 ar   
    28   13   15 1    
    29   14   73 1    
    30   15   16 1    
    31   15   74 1    
    32   15   75 1    
    33   16   17 1    
    34   17   18 1    
    35   17   76 1    
    36   17   77 1    
    37   18   19 1    
    38   18   27 1    
    39   18   78 1    
    40   19   20 am   BACKBONE|DICT|INTERRES
    41   19   79 1    
    42   20   21 2    
    43   20   22 1    
    44   22   23 1    
    45   22   24 1    
    46   22   80 1    
    47   23   81 1    
    48   23   82 1    
    49   23   83 1    
    50   24   25 am   BACKBONE|DICT|INTERRES
    51   24   84 1    
    52   25   26 2    
    53   27   28 2    
    54   27   29 am   BACKBONE|DICT|INTERRES
    55   29   30 1    
    56   29   85 1    
    57   30   31 1    
    58   30   32 1    
    59   30   86 1    
    60   31   87 1    
    61   31   88 1    
    62   31   89 1    
    63   32   33 2    
    64   32   34 am   BACKBONE|DICT|INTERRES
    65   34   35 1    
    66   34   90 1    
    67   35   36 1    
    68   35   37 1    
    69   35   91 1    
    70   36   92 1    
    71   36   93 1    
    72   36   94 1    
    73   37   38 2    
    74   37   39 am   BACKBONE|DICT|INTERRES
    75   39   40 1    
    76   39   95 1    
    77   40   41 1    
    78   40   42 1    
    79   40   96 1    
    80   41   97 1    
    81   41   98 1    
    82   41   99 1    
    83   42   43 2    
    84   42   44 am   BACKBONE|DICT|INTERRES
    85   44   45 1    
    86   44  100 1    
    87   45   46 1    
    88   45   47 1    
    89   45  101 1    
    90   46  102 1    
    91   46  103 1    
    92   46  104 1    
    93   47   48 2    
    94   47   49 am   BACKBONE|DICT|INTERRES
    95   49   50 1    
    96   49  105 1    
    97   50   51 1    
    98   50   52 1    
    99   50  106 1    
   100   51  107 1    
   101   51  108 1    
   102   51  109 1    
   103   52   53 2    
   104   52   54 am   BACKBONE|DICT|INTERRES
   105   54   55 1    
   106   54  110 1    
   107   55   56 1    
   108   55   59 1    
   109   55  111 1    
   110   56   57 am   BACKBONE|DICT|INTERRES
   111   56   58 2    
   112   57  112 1    
   113   57  113 1    
   114   59   60 1    
   115   59  114 1    
   116   59  115 1    
   117   60   61 1    
   118   61  116 1    
   119   61  117 1    
@<TRIPOS>SUBSTRUCTURE
     1 UNK         1 GROUP             0       ****    0 ROOT    
