@<TRIPOS>MOLECULE
3R8
117   119    1
SMALL
USER_CHARGES


@<TRIPOS>ATOM
      1 CA         14.6591  -24.1842  -45.3252 C.3       0 UNK        -0.2013 
      2 C          15.6640  -25.2851  -45.0229 C.2       0 UNK         0.4866 
      3 O          16.8671  -25.0254  -44.9900 O.2       0 UNK        -0.5176 
      4 N          15.1828  -26.5124  -44.7877 N.am      1 UNK        -0.4884 
      5 CA         15.9806  -27.7147  -44.5032 C.3       1 UNK         0.0853 
      6 C6         15.2124  -29.0034  -44.8942 C.3       10 UNK        -0.0849 
      7 S7         14.9821  -29.0881  -46.7059 S.3       10 UNK        -0.2776 
      8 C8         16.1145  -30.4303  -47.2061 C.3       10 UNK         0.0316 
      9 C9         17.5103  -30.2954  -46.6081 C.ar      10 UNK        -0.0863 
     10 C10        17.9535  -31.2266  -45.6655 C.ar      10 UNK        -0.1009 
     11 C11        19.2221  -31.1134  -45.0922 C.ar      10 UNK        -0.0712 
     12 C12        20.0587  -30.0612  -45.4758 C.ar      10 UNK        -0.0894 
     13 C13        19.6326  -29.1276  -46.4256 C.ar      10 UNK        -0.0745 
     14 C14        18.3585  -29.2517  -46.9916 C.ar      10 UNK        -0.0972 
     15 C15        20.5510  -27.9951  -46.8594 C.3       10 UNK         0.0209 
     16 S16        20.2963  -26.5002  -45.8546 S.3       10 UNK        -0.2568 
     17 C17        21.5976  -26.6638  -44.5850 C.3       10 UNK        -0.0983 
     18 CA         21.2431  -25.8718  -43.3016 C.3       3 UNK         0.0876 
     19 N          20.0428  -26.4173  -42.6630 N.am      3 UNK        -0.4424 
     20 C          19.2897  -25.7962  -41.7467 C.2       2 UNK         0.4918 
     21 O          19.5809  -24.7170  -41.2295 O.2       2 UNK        -0.4875 
     22 CA         17.9512  -26.4805  -41.4326 C.3       2 UNK         0.0481 
     23 CB         17.0575  -25.6725  -40.4737 C.3       2 UNK        -0.1831 
     24 N          17.2611  -26.6902  -42.7012 N.am      2 UNK        -0.4498 
     25 C          16.4892  -27.7246  -43.0440 C.2       1 UNK         0.5027 
     26 O          16.1794  -28.6338  -42.2726 O.2       1 UNK        -0.4969 
     27 C          22.4667  -25.7549  -42.3675 C.2       3 UNK         0.5005 
     28 O          23.4057  -25.0389  -42.7211 O.2       3 UNK        -0.5279 
     29 N          22.4610  -26.4499  -41.2179 N.am      4 UNK        -0.4463 
     30 CA         23.4922  -26.4970  -40.1682 C.3       4 UNK         0.0283 
     31 CB         23.7555  -25.1072  -39.5564 C.3       4 UNK        -0.1875 
     32 C          24.8023  -27.1789  -40.5989 C.2       4 UNK         0.4949 
     33 O          25.2312  -28.1314  -39.9481 O.2       4 UNK        -0.5039 
     34 N          25.3940  -26.7155  -41.7071 N.am      5 UNK        -0.4663 
     35 CA         26.6395  -27.2180  -42.3017 C.3       5 UNK         0.0242 
     36 CB         27.0499  -26.2894  -43.4556 C.3       5 UNK        -0.1982 
     37 C          26.5604  -28.6773  -42.7871 C.2       5 UNK         0.5017 
     38 O          27.5959  -29.3306  -42.9144 O.2       5 UNK        -0.5012 
     39 N          25.3348  -29.1652  -43.0215 N.am      6 UNK        -0.4439 
     40 CA         25.0179  -30.5571  -43.3439 C.3       6 UNK         0.0297 
     41 CB         23.5833  -30.6187  -43.8939 C.3       6 UNK        -0.2006 
     42 C          25.1769  -31.5257  -42.1543 C.2       6 UNK         0.4892 
     43 O          25.1422  -32.7367  -42.3757 O.2       6 UNK        -0.5089 
     44 N          25.3082  -30.9962  -40.9259 N.am      7 UNK        -0.4243 
     45 CA         25.4399  -31.6815  -39.6314 C.3       7 UNK         0.0196 
     46 CB         26.6720  -32.6067  -39.5872 C.3       7 UNK        -0.2007 
     47 C          24.1637  -32.4143  -39.1875 C.2       7 UNK         0.5020 
     48 O          23.6753  -32.1604  -38.0866 O.2       7 UNK        -0.5147 
     49 N          23.6118  -33.2656  -40.0616 N.am      8 UNK        -0.4734 
     50 CA         22.3416  -33.9772  -39.8716 C.3       8 UNK         0.0238 
     51 CB         22.1576  -34.9940  -41.0096 C.3       8 UNK        -0.1912 
     52 C          21.1253  -33.0365  -39.7912 C.2       8 UNK         0.5038 
     53 O          20.1476  -33.3694  -39.1204 O.2       8 UNK        -0.5046 
     54 N          21.2333  -31.8797  -40.4545 N.am      9 UNK        -0.4200 
     55 CA         20.2840  -30.7590  -40.4053 C.3       9 UNK         0.0839 
     56 C          20.9379  -29.4994  -39.7696 C.2       9 UNK         0.5513 
     57 N          21.9162  -29.6459  -38.8833 N.am      9 UNK        -0.7519 
     58 O          20.5763  -28.3719  -40.0945 O.2       9 UNK        -0.4960 
     59 C59        19.6480  -30.4680  -41.7921 C.3       10 UNK        -0.0876 
     60 S60        18.7968  -31.9241  -42.4876 S.3       10 UNK        -0.2414 
     61 C61        19.6760  -32.1392  -44.0646 C.3       10 UNK         0.0169 
     62 H62        14.7359  -23.3920  -44.5810 H         1 UNK         0.0903 
     63 H63        14.8610  -23.7523  -46.3050 H         1 UNK         0.0903 
     64 H64        13.6342  -24.5547  -45.3226 H         1 UNK         0.0903 
     65 H65        14.1837  -26.6595  -44.8147 H         1 UNK         0.3096 
     66 H66        16.8815  -27.6762  -45.1206 H         1 UNK         0.1121 
     67 H67        15.7356  -29.8975  -44.5522 H         1 UNK         0.0849 
     68 H68        14.2343  -29.0307  -44.4107 H         1 UNK         0.0849 
     69 H69        15.6666  -31.3851  -46.9260 H         1 UNK         0.0865 
     70 H70        16.1904  -30.4414  -48.2943 H         1 UNK         0.0865 
     71 H71        17.3065  -32.0390  -45.3628 H         1 UNK         0.1346 
     72 H72        21.0428  -29.9713  -45.0412 H         1 UNK         0.1412 
     73 H73        18.0208  -28.5296  -47.7228 H         1 UNK         0.1426 
     74 H74        21.5960  -28.3061  -46.8149 H         1 UNK         0.0716 
     75 H75        20.3567  -27.7473  -47.9041 H         1 UNK         0.0716 
     76 H76        21.7580  -27.7177  -44.3524 H         1 UNK         0.0695 
     77 H77        22.5276  -26.2994  -45.0264 H         1 UNK         0.0695 
     78 H78        21.0075  -24.8470  -43.5983 H         1 UNK         0.0983 
     79 H79        19.6987  -27.2833  -43.0489 H         1 UNK         0.3095 
     80 H80        18.1757  -27.4433  -40.9709 H         1 UNK         0.0454 
     81 H81        16.8035  -24.6957  -40.8868 H         1 UNK         0.0851 
     82 H82        16.1269  -26.1991  -40.2621 H         1 UNK         0.0851 
     83 H83        17.5600  -25.5061  -39.5201 H         1 UNK         0.0851 
     84 H84        17.4195  -25.9813  -43.4156 H         1 UNK         0.2976 
     85 H85        21.6429  -27.0212  -41.0196 H         1 UNK         0.3116 
     86 H86        23.0692  -27.1122  -39.3743 H         1 UNK         0.0646 
     87 H87        24.4408  -25.1795  -38.7109 H         1 UNK         0.0847 
     88 H88        22.8334  -24.6573  -39.1882 H         1 UNK         0.0847 
     89 H89        24.2009  -24.4165  -40.2727 H         1 UNK         0.0847 
     90 H90        24.9224  -25.9516  -42.1890 H         1 UNK         0.3040 
     91 H91        27.4136  -27.1784  -41.5322 H         1 UNK         0.1015 
     92 H92        27.2010  -25.2674  -43.1075 H         1 UNK         0.0786 
     93 H93        26.2951  -26.2674  -44.2429 H         1 UNK         0.0786 
     94 H94        27.9866  -26.6173  -43.9091 H         1 UNK         0.0786 
     95 H95        24.5573  -28.5347  -42.8953 H         1 UNK         0.3172 
     96 H96        25.7013  -30.8907  -44.1276 H         1 UNK         0.0595 
     97 H97        22.8528  -30.2792  -43.1592 H         1 UNK         0.0839 
     98 H98        23.3153  -31.6381  -44.1758 H         1 UNK         0.0839 
     99 H99        23.4784  -30.0023  -44.7870 H         1 UNK         0.0839 
    100 H100       25.2960  -29.9839  -40.8497 H         1 UNK         0.2998 
    101 H101       25.6089  -30.8858  -38.9035 H         1 UNK         0.0822 
    102 H102       27.5818  -32.0646  -39.8454 H         1 UNK         0.0787 
    103 H103       26.8118  -33.0169  -38.5862 H         1 UNK         0.0787 
    104 H104       26.5802  -33.4510  -40.2708 H         1 UNK         0.0787 
    105 H105       24.0870  -33.3808  -40.9545 H         1 UNK         0.3055 
    106 H106       22.3980  -34.5191  -38.9249 H         1 UNK         0.1106 
    107 H107       21.2299  -35.5547  -40.8860 H         1 UNK         0.0828 
    108 H108       22.1162  -34.5061  -41.9844 H         1 UNK         0.0828 
    109 H109       22.9722  -35.7182  -41.0307 H         1 UNK         0.0828 
    110 H110       22.0955  -31.7033  -40.9464 H         1 UNK         0.2931 
    111 H111       19.4648  -31.0102  -39.7295 H         1 UNK         0.0412 
    112 H112       22.3279  -28.8281  -38.4658 H         1 UNK         0.3472 
    113 H113       22.2268  -30.5634  -38.5931 H         1 UNK         0.3472 
    114 H114       20.4029  -30.1038  -42.4892 H         1 UNK         0.0970 
    115 H115       18.9049  -29.6732  -41.7098 H         1 UNK         0.0970 
    116 H116       20.7529  -32.0880  -43.8981 H         1 UNK         0.0612 
    117 H117       19.4729  -33.1412  -44.4451 H         1 UNK         0.0612 
@<TRIPOS>BOND
     1    1    2 1    
     2    1   62 1    
     3    1   63 1    
     4    1   64 1    
     5    2    3 2    
     6    2    4 am   BACKBONE|DICT|INTERRES
     7    4    5 1    
     8    4   65 1    
     9    5    6 1    
    10    5   25 1    
    11    5   66 1    
    12    6    7 1    
    13    6   67 1    
    14    6   68 1    
    15    7    8 1    
    16    8    9 1    
    17    8   69 1    
    18    8   70 1    
    19    9   10 ar   
    20    9   14 ar   
    21   10   11 ar   
    22   10   71 1    
    23   11   12 ar   
    24   11   61 1    
    25   12   13 ar   
    26   12   72 1    
    27   13   14 ar   
    28   13   15 1    
    29   14   73 1    
    30   15   16 1    
    31   15   74 1    
    32   15   75 1    
    33   16   17 1    
    34   17   18 1    
    35   17   76 1    
    36   17   77 1    
    37   18   19 1    
    38   18   27 1    
    39   18   78 1    
    40   19   20 am   BACKBONE|DICT|INTERRES
    41   19   79 1    
    42   20   21 2    
    43   20   22 1    
    44   22   23 1    
    45   22   24 1    
    46   22   80 1    
    47   23   81 1    
    48   23   82 1    
    49   23   83 1    
    50   24   25 am   BACKBONE|DICT|INTERRES
    51   24   84 1    
    52   25   26 2    
    53   27   28 2    
    54   27   29 am   BACKBONE|DICT|INTERRES
    55   29   30 1    
    56   29   85 1    
    57   30   31 1    
    58   30   32 1    
    59   30   86 1    
    60   31   87 1    
    61   31   88 1    
    62   31   89 1    
    63   32   33 2    
    64   32   34 am   BACKBONE|DICT|INTERRES
    65   34   35 1    
    66   34   90 1    
    67   35   36 1    
    68   35   37 1    
    69   35   91 1    
    70   36   92 1    
    71   36   93 1    
    72   36   94 1    
    73   37   38 2    
    74   37   39 am   BACKBONE|DICT|INTERRES
    75   39   40 1    
    76   39   95 1    
    77   40   41 1    
    78   40   42 1    
    79   40   96 1    
    80   41   97 1    
    81   41   98 1    
    82   41   99 1    
    83   42   43 2    
    84   42   44 am   BACKBONE|DICT|INTERRES
    85   44   45 1    
    86   44  100 1    
    87   45   46 1    
    88   45   47 1    
    89   45  101 1    
    90   46  102 1    
    91   46  103 1    
    92   46  104 1    
    93   47   48 2    
    94   47   49 am   BACKBONE|DICT|INTERRES
    95   49   50 1    
    96   49  105 1    
    97   50   51 1    
    98   50   52 1    
    99   50  106 1    
   100   51  107 1    
   101   51  108 1    
   102   51  109 1    
   103   52   53 2    
   104   52   54 am   BACKBONE|DICT|INTERRES
   105   54   55 1    
   106   54  110 1    
   107   55   56 1    
   108   55   59 1    
   109   55  111 1    
   110   56   57 am   BACKBONE|DICT|INTERRES
   111   56   58 2    
   112   57  112 1    
   113   57  113 1    
   114   59   60 1    
   115   59  114 1    
   116   59  115 1    
   117   60   61 1    
   118   61  116 1    
   119   61  117 1    
@<TRIPOS>SUBSTRUCTURE
     1 UNK         1 GROUP             0       ****    0 ROOT    
