@<TRIPOS>MOLECULE
3R8
117   119    1
SMALL
USER_CHARGES


@<TRIPOS>ATOM
      1 CA         16.8833  -23.1937  -41.3137 C.3       0 UNK        -0.2013 
      2 C          17.5000  -23.5373  -42.6610 C.2       0 UNK         0.4866 
      3 O          18.0355  -22.6547  -43.3326 O.2       0 UNK        -0.5176 
      4 N          17.4188  -24.8108  -43.0649 N.am      1 UNK        -0.4884 
      5 CA         18.0037  -25.3422  -44.3027 C.3       1 UNK         0.0853 
      6 C6         17.4796  -26.7629  -44.6395 C.3       10 UNK        -0.0849 
      7 S7         15.6745  -26.9669  -44.4532 S.3       10 UNK        -0.2776 
      8 C8         15.3771  -28.5271  -45.3473 C.3       10 UNK         0.0316 
      9 C9         16.3282  -29.6398  -44.9236 C.ar      10 UNK        -0.0863 
     10 C10        16.1560  -30.3049  -43.7058 C.ar      10 UNK        -0.1009 
     11 C11        17.0197  -31.3419  -43.3321 C.ar      10 UNK        -0.0712 
     12 C12        18.0617  -31.7072  -44.1915 C.ar      10 UNK        -0.0894 
     13 C13        18.2598  -31.0333  -45.3989 C.ar      10 UNK        -0.0745 
     14 C14        17.3806  -30.0104  -45.7639 C.ar      10 UNK        -0.0972 
     15 C15        19.3890  -31.4363  -46.3363 C.3       10 UNK         0.0209 
     16 S16        20.4795  -30.0321  -46.7394 S.3       10 UNK        -0.2568 
     17 C17        21.9225  -30.2681  -45.6392 C.3       10 UNK        -0.0983 
     18 CA         22.2452  -29.0811  -44.6855 C.3       3 UNK         0.0876 
     19 N          21.8398  -27.7744  -45.2159 N.am      3 UNK        -0.4424 
     20 C          22.3232  -26.5972  -44.8006 C.2       2 UNK         0.4918 
     21 O          23.1753  -26.4795  -43.9219 O.2       2 UNK        -0.4875 
     22 CA         21.7040  -25.3369  -45.4296 C.3       2 UNK         0.0481 
     23 CB         22.1529  -25.1751  -46.8909 C.3       2 UNK        -0.1831 
     24 N          20.2379  -25.3061  -45.3474 N.am      2 UNK        -0.4498 
     25 C          19.5435  -25.3749  -44.2018 C.2       1 UNK         0.5027 
     26 O          20.0727  -25.5225  -43.0973 O.2       1 UNK        -0.4969 
     27 C          21.7598  -29.3254  -43.2427 C.2       3 UNK         0.5005 
     28 O          22.4512  -30.0198  -42.4962 O.2       3 UNK        -0.5279 
     29 N          20.6289  -28.7269  -42.8420 N.am      4 UNK        -0.4463 
     30 CA         20.1495  -28.7573  -41.4564 C.3       4 UNK         0.0283 
     31 CB         18.7017  -28.2523  -41.3668 C.3       4 UNK        -0.1875 
     32 C          21.0669  -27.9692  -40.5091 C.2       4 UNK         0.4949 
     33 O          21.3559  -28.4453  -39.4128 O.2       4 UNK        -0.5039 
     34 N          21.5255  -26.7940  -40.9564 N.am      5 UNK        -0.4663 
     35 CA         22.4547  -25.9408  -40.2204 C.3       5 UNK         0.0242 
     36 CB         22.4142  -24.5195  -40.8066 C.3       5 UNK        -0.1982 
     37 C          23.8889  -26.4935  -40.2167 C.2       5 UNK         0.5017 
     38 O          24.4899  -26.6026  -39.1473 O.2       5 UNK        -0.5012 
     39 N          24.4223  -26.7996  -41.4074 N.am      6 UNK        -0.4439 
     40 CA         25.8353  -27.1295  -41.6045 C.3       6 UNK         0.0297 
     41 CB         26.2363  -26.8236  -43.0569 C.3       6 UNK        -0.2006 
     42 C          26.2010  -28.5792  -41.2559 C.2       6 UNK         0.4892 
     43 O          27.3090  -28.8041  -40.7667 O.2       6 UNK        -0.5089 
     44 N          25.3045  -29.5323  -41.5443 N.am      7 UNK        -0.4243 
     45 CA         25.5879  -30.9702  -41.4721 C.3       7 UNK         0.0196 
     46 CB         25.5030  -31.5603  -42.8932 C.3       7 UNK        -0.2007 
     47 C          24.6577  -31.7210  -40.5079 C.2       7 UNK         0.5020 
     48 O          24.7254  -32.9498  -40.4640 O.2       7 UNK        -0.5147 
     49 N          23.7905  -31.0029  -39.7764 N.am      8 UNK        -0.4734 
     50 CA         22.7628  -31.5376  -38.8677 C.3       8 UNK         0.0238 
     51 CB         23.4159  -32.1624  -37.6157 C.3       8 UNK        -0.1912 
     52 C          21.7799  -32.4961  -39.5743 C.2       8 UNK         0.5038 
     53 O          21.3834  -33.5075  -38.9926 O.2       8 UNK        -0.5046 
     54 N          21.4438  -32.1672  -40.8290 N.am      9 UNK        -0.4200 
     55 CA         20.6598  -32.9671  -41.7829 C.3       9 UNK         0.0839 
     56 C          21.4224  -34.1875  -42.3816 C.2       9 UNK         0.5513 
     57 N          22.7077  -34.3859  -42.1134 N.am      9 UNK        -0.7519 
     58 O          20.8430  -34.9569  -43.1439 O.2       9 UNK        -0.4960 
     59 C59        19.2352  -33.3538  -41.2807 C.3       10 UNK        -0.0876 
     60 S60        18.1872  -31.9185  -40.8537 S.3       10 UNK        -0.2414 
     61 C61        16.7944  -32.0868  -42.0207 C.3       10 UNK         0.0169 
     62 H62        16.1124  -22.4336  -41.4361 H         1 UNK         0.0903 
     63 H63        16.4292  -24.0633  -40.8392 H         1 UNK         0.0903 
     64 H64        17.6465  -22.8012  -40.6423 H         1 UNK         0.0903 
     65 H65        16.9535  -25.4914  -42.4824 H         1 UNK         0.3096 
     66 H66        17.7259  -24.6664  -45.1146 H         1 UNK         0.1121 
     67 H67        17.9519  -27.5136  -44.0057 H         1 UNK         0.0849 
     68 H68        17.7518  -27.0221  -45.6644 H         1 UNK         0.0849 
     69 H69        14.3475  -28.8439  -45.1745 H         1 UNK         0.0865 
     70 H70        15.4585  -28.3405  -46.4194 H         1 UNK         0.0865 
     71 H71        15.3421  -30.0170  -43.0543 H         1 UNK         0.1346 
     72 H72        18.7126  -32.5262  -43.9280 H         1 UNK         0.1412 
     73 H73        17.5200  -29.5019  -46.7083 H         1 UNK         0.1426 
     74 H74        18.9484  -31.8054  -47.2632 H         1 UNK         0.0716 
     75 H75        19.9700  -32.2647  -45.9289 H         1 UNK         0.0716 
     76 H76        22.7769  -30.4173  -46.3011 H         1 UNK         0.0695 
     77 H77        21.8320  -31.2085  -45.0920 H         1 UNK         0.0695 
     78 H78        23.3345  -29.0491  -44.6009 H         1 UNK         0.0983 
     79 H79        21.1404  -27.7977  -45.9445 H         1 UNK         0.3095 
     80 H80        22.0773  -24.4774  -44.8688 H         1 UNK         0.0454 
     81 H81        21.7664  -25.9706  -47.5290 H         1 UNK         0.0851 
     82 H82        23.2409  -25.1952  -46.9687 H         1 UNK         0.0851 
     83 H83        21.8202  -24.2229  -47.3043 H         1 UNK         0.0851 
     84 H84        19.7387  -25.1982  -46.2190 H         1 UNK         0.2976 
     85 H85        20.1311  -28.1431  -43.4956 H         1 UNK         0.3116 
     86 H86        20.1542  -29.7951  -41.1253 H         1 UNK         0.0646 
     87 H87        18.0382  -28.8367  -42.0032 H         1 UNK         0.0847 
     88 H88        18.6139  -27.2037  -41.6478 H         1 UNK         0.0847 
     89 H89        18.3262  -28.3449  -40.3470 H         1 UNK         0.0847 
     90 H90        21.1846  -26.4410  -41.8475 H         1 UNK         0.3040 
     91 H91        22.1198  -25.8855  -39.1819 H         1 UNK         0.1015 
     92 H92        23.1001  -23.8569  -40.2769 H         1 UNK         0.0786 
     93 H93        21.4163  -24.0879  -40.7241 H         1 UNK         0.0786 
     94 H94        22.6930  -24.5065  -41.8612 H         1 UNK         0.0786 
     95 H95        23.8612  -26.6727  -42.2492 H         1 UNK         0.3172 
     96 H96        26.4288  -26.4779  -40.9589 H         1 UNK         0.0595 
     97 H97        25.7032  -27.4575  -43.7667 H         1 UNK         0.0839 
     98 H98        27.3033  -26.9910  -43.2105 H         1 UNK         0.0839 
     99 H99        26.0312  -25.7848  -43.3164 H         1 UNK         0.0839 
    100 H100       24.3981  -29.2771  -41.9193 H         1 UNK         0.2998 
    101 H101       26.6002  -31.1451  -41.1024 H         1 UNK         0.0822 
    102 H102       26.1774  -31.0449  -43.5771 H         1 UNK         0.0787 
    103 H103       25.7838  -32.6143  -42.8993 H         1 UNK         0.0787 
    104 H104       24.4946  -31.4924  -43.3018 H         1 UNK         0.0787 
    105 H105       23.7923  -29.9990  -39.8942 H         1 UNK         0.3055 
    106 H106       22.1646  -30.6914  -38.5307 H         1 UNK         0.1106 
    107 H107       23.9821  -33.0620  -37.8590 H         1 UNK         0.0828 
    108 H108       22.6609  -32.4435  -36.8805 H         1 UNK         0.0828 
    109 H109       24.0931  -31.4605  -37.1293 H         1 UNK         0.0828 
    110 H110       21.8707  -31.3379  -41.2337 H         1 UNK         0.2931 
    111 H111       20.5316  -32.2957  -42.6313 H         1 UNK         0.0412 
    112 H112       23.2205  -33.7783  -41.4839 H         1 UNK         0.3472 
    113 H113       23.1746  -35.1766  -42.5280 H         1 UNK         0.3472 
    114 H114       19.2987  -34.0011  -40.4056 H         1 UNK         0.0970 
    115 H115       18.7185  -33.9514  -42.0325 H         1 UNK         0.0970 
    116 H116       15.9021  -31.7039  -41.5233 H         1 UNK         0.0612 
    117 H117       16.5902  -33.1384  -42.2249 H         1 UNK         0.0612 
@<TRIPOS>BOND
     1    1    2 1    
     2    1   62 1    
     3    1   63 1    
     4    1   64 1    
     5    2    3 2    
     6    2    4 am   BACKBONE|DICT|INTERRES
     7    4    5 1    
     8    4   65 1    
     9    5    6 1    
    10    5   25 1    
    11    5   66 1    
    12    6    7 1    
    13    6   67 1    
    14    6   68 1    
    15    7    8 1    
    16    8    9 1    
    17    8   69 1    
    18    8   70 1    
    19    9   10 ar   
    20    9   14 ar   
    21   10   11 ar   
    22   10   71 1    
    23   11   12 ar   
    24   11   61 1    
    25   12   13 ar   
    26   12   72 1    
    27   13   14 ar   
    28   13   15 1    
    29   14   73 1    
    30   15   16 1    
    31   15   74 1    
    32   15   75 1    
    33   16   17 1    
    34   17   18 1    
    35   17   76 1    
    36   17   77 1    
    37   18   19 1    
    38   18   27 1    
    39   18   78 1    
    40   19   20 am   BACKBONE|DICT|INTERRES
    41   19   79 1    
    42   20   21 2    
    43   20   22 1    
    44   22   23 1    
    45   22   24 1    
    46   22   80 1    
    47   23   81 1    
    48   23   82 1    
    49   23   83 1    
    50   24   25 am   BACKBONE|DICT|INTERRES
    51   24   84 1    
    52   25   26 2    
    53   27   28 2    
    54   27   29 am   BACKBONE|DICT|INTERRES
    55   29   30 1    
    56   29   85 1    
    57   30   31 1    
    58   30   32 1    
    59   30   86 1    
    60   31   87 1    
    61   31   88 1    
    62   31   89 1    
    63   32   33 2    
    64   32   34 am   BACKBONE|DICT|INTERRES
    65   34   35 1    
    66   34   90 1    
    67   35   36 1    
    68   35   37 1    
    69   35   91 1    
    70   36   92 1    
    71   36   93 1    
    72   36   94 1    
    73   37   38 2    
    74   37   39 am   BACKBONE|DICT|INTERRES
    75   39   40 1    
    76   39   95 1    
    77   40   41 1    
    78   40   42 1    
    79   40   96 1    
    80   41   97 1    
    81   41   98 1    
    82   41   99 1    
    83   42   43 2    
    84   42   44 am   BACKBONE|DICT|INTERRES
    85   44   45 1    
    86   44  100 1    
    87   45   46 1    
    88   45   47 1    
    89   45  101 1    
    90   46  102 1    
    91   46  103 1    
    92   46  104 1    
    93   47   48 2    
    94   47   49 am   BACKBONE|DICT|INTERRES
    95   49   50 1    
    96   49  105 1    
    97   50   51 1    
    98   50   52 1    
    99   50  106 1    
   100   51  107 1    
   101   51  108 1    
   102   51  109 1    
   103   52   53 2    
   104   52   54 am   BACKBONE|DICT|INTERRES
   105   54   55 1    
   106   54  110 1    
   107   55   56 1    
   108   55   59 1    
   109   55  111 1    
   110   56   57 am   BACKBONE|DICT|INTERRES
   111   56   58 2    
   112   57  112 1    
   113   57  113 1    
   114   59   60 1    
   115   59  114 1    
   116   59  115 1    
   117   60   61 1    
   118   61  116 1    
   119   61  117 1    
@<TRIPOS>SUBSTRUCTURE
     1 UNK         1 GROUP             0       ****    0 ROOT    
