@<TRIPOS>MOLECULE
3R8
117   119    1
SMALL
USER_CHARGES


@<TRIPOS>ATOM
      1 CA         17.9170  -27.7999  -40.7306 C.3       0 UNK        -0.2013 
      2 C          17.3039  -26.6171  -41.4615 C.2       0 UNK         0.4866 
      3 O          17.0206  -25.5945  -40.8377 O.2       0 UNK        -0.5176 
      4 N          17.0853  -26.7532  -42.7767 N.am      1 UNK        -0.4884 
      5 CA         16.4200  -25.7471  -43.6175 C.3       1 UNK         0.0853 
      6 C6         15.9769  -26.3261  -44.9837 C.3       10 UNK        -0.0849 
      7 S7         14.8979  -27.7878  -44.7943 S.3       10 UNK        -0.2776 
      8 C8         15.5525  -28.9237  -46.0595 C.3       10 UNK         0.0316 
      9 C9         16.9411  -29.4521  -45.7211 C.ar      10 UNK        -0.0863 
     10 C10        17.1053  -30.4172  -44.7233 C.ar      10 UNK        -0.1009 
     11 C11        18.3691  -30.9512  -44.4554 C.ar      10 UNK        -0.0712 
     12 C12        19.4755  -30.5021  -45.1823 C.ar      10 UNK        -0.0894 
     13 C13        19.3321  -29.5261  -46.1737 C.ar      10 UNK        -0.0745 
     14 C14        18.0559  -29.0159  -46.4436 C.ar      10 UNK        -0.0972 
     15 C15        20.5496  -29.0787  -46.9819 C.3       10 UNK         0.0209 
     16 S16        20.5731  -27.2812  -47.2947 S.3       10 UNK        -0.2568 
     17 C17        22.2474  -26.7638  -46.7627 C.3       10 UNK        -0.0983 
     18 CA         22.2994  -26.0833  -45.3658 C.3       3 UNK         0.0876 
     19 N          21.1316  -25.2313  -45.1196 N.am      3 UNK        -0.4424 
     20 C          20.9977  -24.3289  -44.1390 C.2       2 UNK         0.4918 
     21 O          21.8720  -24.0594  -43.3165 O.2       2 UNK        -0.4875 
     22 CA         19.6326  -23.6375  -44.0592 C.3       2 UNK         0.0481 
     23 CB         19.4169  -22.7291  -45.2900 C.3       2 UNK        -0.1831 
     24 N          18.5965  -24.6651  -43.9289 N.am      2 UNK        -0.4498 
     25 C          17.2747  -24.4780  -43.8179 C.2       1 UNK         0.5027 
     26 O          16.7231  -23.3774  -43.8538 O.2       1 UNK        -0.4969 
     27 C          22.5205  -27.1029  -44.2332 C.2       3 UNK         0.5005 
     28 O          23.6530  -27.2679  -43.7763 O.2       3 UNK        -0.5279 
     29 N          21.4318  -27.7593  -43.7999 N.am      4 UNK        -0.4463 
     30 CA         21.3270  -28.6371  -42.6239 C.3       4 UNK         0.0283 
     31 CB         21.4147  -27.7889  -41.3397 C.3       4 UNK        -0.1875 
     32 C          22.3229  -29.8155  -42.5939 C.2       4 UNK         0.4949 
     33 O          22.6754  -30.2884  -41.5127 O.2       4 UNK        -0.5039 
     34 N          22.7989  -30.2389  -43.7746 N.am      5 UNK        -0.4663 
     35 CA         23.8651  -31.2273  -43.9940 C.3       5 UNK         0.0242 
     36 CB         23.4022  -32.6317  -43.5491 C.3       5 UNK        -0.1982 
     37 C          25.2131  -30.8190  -43.3566 C.2       5 UNK         0.5017 
     38 O          26.0089  -31.6926  -43.0092 O.2       5 UNK        -0.5012 
     39 N          25.4304  -29.5018  -43.1958 N.am      6 UNK        -0.4439 
     40 CA         26.5474  -28.8562  -42.4948 C.3       6 UNK         0.0297 
     41 CB         27.8882  -29.1271  -43.2106 C.3       6 UNK        -0.2006 
     42 C          26.5986  -29.1748  -40.9843 C.2       6 UNK         0.4892 
     43 O          27.6676  -29.0719  -40.3793 O.2       6 UNK        -0.5089 
     44 N          25.4524  -29.5403  -40.3965 N.am      7 UNK        -0.4243 
     45 CA         25.2928  -29.8783  -38.9867 C.3       7 UNK         0.0196 
     46 CB         25.6841  -31.3557  -38.7560 C.3       7 UNK        -0.2007 
     47 C          23.8562  -29.5219  -38.5800 C.2       7 UNK         0.5020 
     48 O          23.4970  -28.3447  -38.6208 O.2       7 UNK        -0.5147 
     49 N          23.0592  -30.5307  -38.2145 N.am      8 UNK        -0.4734 
     50 CA         21.6369  -30.4158  -37.8915 C.3       8 UNK         0.0238 
     51 CB         21.4609  -30.2726  -36.3668 C.3       8 UNK        -0.1912 
     52 C          20.8719  -31.6112  -38.4837 C.2       8 UNK         0.5038 
     53 O          20.0630  -32.2269  -37.7875 O.2       8 UNK        -0.5046 
     54 N          21.1691  -31.9353  -39.7504 N.am      9 UNK        -0.4200 
     55 CA         20.5938  -33.0492  -40.5285 C.3       9 UNK         0.0839 
     56 C          20.9611  -34.4736  -40.0094 C.2       9 UNK         0.5513 
     57 N          21.9906  -34.6336  -39.1868 N.am      9 UNK        -0.7519 
     58 O          20.3285  -35.4582  -40.3829 O.2       9 UNK        -0.4960 
     59 C59        19.0706  -32.8798  -40.8005 C.3       10 UNK        -0.0876 
     60 S60        18.7039  -31.3607  -41.7403 S.3       10 UNK        -0.2414 
     61 C61        18.5338  -32.0463  -43.4135 C.3       10 UNK         0.0169 
     62 H62        18.6718  -27.4608  -40.0220 H         1 UNK         0.0903 
     63 H63        17.1489  -28.3390  -40.1770 H         1 UNK         0.0903 
     64 H64        18.3880  -28.4938  -41.4232 H         1 UNK         0.0903 
     65 H65        17.2823  -27.6355  -43.2292 H         1 UNK         0.3096 
     66 H66        15.5183  -25.4306  -43.0872 H         1 UNK         0.1121 
     67 H67        15.4240  -25.5767  -45.5537 H         1 UNK         0.0849 
     68 H68        16.8473  -26.5833  -45.5888 H         1 UNK         0.0849 
     69 H69        14.8673  -29.7668  -46.1594 H         1 UNK         0.0865 
     70 H70        15.5516  -28.4212  -47.0283 H         1 UNK         0.0865 
     71 H71        16.2452  -30.7681  -44.1689 H         1 UNK         0.1346 
     72 H72        20.4457  -30.9354  -44.9870 H         1 UNK         0.1412 
     73 H73        17.9267  -28.2860  -47.2311 H         1 UNK         0.1426 
     74 H74        20.5429  -29.5987  -47.9406 H         1 UNK         0.0716 
     75 H75        21.4693  -29.3777  -46.4791 H         1 UNK         0.0716 
     76 H76        22.5903  -26.0431  -47.5067 H         1 UNK         0.0695 
     77 H77        22.9492  -27.5969  -46.8386 H         1 UNK         0.0695 
     78 H78        23.1757  -25.4308  -45.3540 H         1 UNK         0.0983 
     79 H79        20.3674  -25.3626  -45.7678 H         1 UNK         0.3095 
     80 H80        19.6168  -23.0216  -43.1580 H         1 UNK         0.0454 
     81 H81        20.2792  -22.0812  -45.4537 H         1 UNK         0.0851 
     82 H82        18.5558  -22.0740  -45.1622 H         1 UNK         0.0851 
     83 H83        19.2635  -23.3053  -46.2028 H         1 UNK         0.0851 
     84 H84        18.9352  -25.6101  -43.8216 H         1 UNK         0.2976 
     85 H85        20.5710  -27.6032  -44.3045 H         1 UNK         0.3116 
     86 H86        20.3340  -29.0819  -42.6675 H         1 UNK         0.0646 
     87 H87        21.1477  -28.3775  -40.4624 H         1 UNK         0.0847 
     88 H88        22.4240  -27.4077  -41.1785 H         1 UNK         0.0847 
     89 H89        20.7404  -26.9338  -41.3756 H         1 UNK         0.0847 
     90 H90        22.4779  -29.7527  -44.5982 H         1 UNK         0.3040 
     91 H91        24.0398  -31.2612  -45.0706 H         1 UNK         0.1015 
     92 H92        24.1062  -33.3968  -43.8783 H         1 UNK         0.0786 
     93 H93        22.4295  -32.8843  -43.9711 H         1 UNK         0.0786 
     94 H94        23.3293  -32.7079  -42.4639 H         1 UNK         0.0786 
     95 H95        24.7019  -28.8576  -43.4985 H         1 UNK         0.3172 
     96 H96        26.3534  -27.7848  -42.5629 H         1 UNK         0.0595 
     97 H97        28.1963  -30.1686  -43.1158 H         1 UNK         0.0839 
     98 H98        28.6868  -28.5152  -42.7894 H         1 UNK         0.0839 
     99 H99        27.8271  -28.8893  -44.2725 H         1 UNK         0.0839 
    100 H100       24.6031  -29.5890  -40.9502 H         1 UNK         0.2998 
    101 H101       25.9501  -29.2460  -38.3859 H         1 UNK         0.0822 
    102 H102       25.5515  -31.6453  -37.7127 H         1 UNK         0.0787 
    103 H103       26.7345  -31.5212  -38.9967 H         1 UNK         0.0787 
    104 H104       25.0990  -32.0352  -39.3776 H         1 UNK         0.0787 
    105 H105       23.4415  -31.4655  -38.2198 H         1 UNK         0.3055 
    106 H106       21.2202  -29.5253  -38.3664 H         1 UNK         0.1106 
    107 H107       21.9884  -29.3969  -35.9883 H         1 UNK         0.0828 
    108 H108       20.4093  -30.1540  -36.1024 H         1 UNK         0.0828 
    109 H109       21.8369  -31.1470  -35.8346 H         1 UNK         0.0828 
    110 H110       21.8324  -31.3536  -40.2585 H         1 UNK         0.2931 
    111 H111       21.0895  -32.9923  -41.4978 H         1 UNK         0.0412 
    112 H112       22.2261  -35.5601  -38.8668 H         1 UNK         0.3472 
    113 H113       22.5281  -33.8413  -38.8792 H         1 UNK         0.3472 
    114 H114       18.6741  -33.7320  -41.3551 H         1 UNK         0.0970 
    115 H115       18.5119  -32.8551  -39.8641 H         1 UNK         0.0970 
    116 H116       19.4105  -32.6544  -43.6430 H         1 UNK         0.0612 
    117 H117       17.6745  -32.7180  -43.4430 H         1 UNK         0.0612 
@<TRIPOS>BOND
     1    1    2 1    
     2    1   62 1    
     3    1   63 1    
     4    1   64 1    
     5    2    3 2    
     6    2    4 am   BACKBONE|DICT|INTERRES
     7    4    5 1    
     8    4   65 1    
     9    5    6 1    
    10    5   25 1    
    11    5   66 1    
    12    6    7 1    
    13    6   67 1    
    14    6   68 1    
    15    7    8 1    
    16    8    9 1    
    17    8   69 1    
    18    8   70 1    
    19    9   10 ar   
    20    9   14 ar   
    21   10   11 ar   
    22   10   71 1    
    23   11   12 ar   
    24   11   61 1    
    25   12   13 ar   
    26   12   72 1    
    27   13   14 ar   
    28   13   15 1    
    29   14   73 1    
    30   15   16 1    
    31   15   74 1    
    32   15   75 1    
    33   16   17 1    
    34   17   18 1    
    35   17   76 1    
    36   17   77 1    
    37   18   19 1    
    38   18   27 1    
    39   18   78 1    
    40   19   20 am   BACKBONE|DICT|INTERRES
    41   19   79 1    
    42   20   21 2    
    43   20   22 1    
    44   22   23 1    
    45   22   24 1    
    46   22   80 1    
    47   23   81 1    
    48   23   82 1    
    49   23   83 1    
    50   24   25 am   BACKBONE|DICT|INTERRES
    51   24   84 1    
    52   25   26 2    
    53   27   28 2    
    54   27   29 am   BACKBONE|DICT|INTERRES
    55   29   30 1    
    56   29   85 1    
    57   30   31 1    
    58   30   32 1    
    59   30   86 1    
    60   31   87 1    
    61   31   88 1    
    62   31   89 1    
    63   32   33 2    
    64   32   34 am   BACKBONE|DICT|INTERRES
    65   34   35 1    
    66   34   90 1    
    67   35   36 1    
    68   35   37 1    
    69   35   91 1    
    70   36   92 1    
    71   36   93 1    
    72   36   94 1    
    73   37   38 2    
    74   37   39 am   BACKBONE|DICT|INTERRES
    75   39   40 1    
    76   39   95 1    
    77   40   41 1    
    78   40   42 1    
    79   40   96 1    
    80   41   97 1    
    81   41   98 1    
    82   41   99 1    
    83   42   43 2    
    84   42   44 am   BACKBONE|DICT|INTERRES
    85   44   45 1    
    86   44  100 1    
    87   45   46 1    
    88   45   47 1    
    89   45  101 1    
    90   46  102 1    
    91   46  103 1    
    92   46  104 1    
    93   47   48 2    
    94   47   49 am   BACKBONE|DICT|INTERRES
    95   49   50 1    
    96   49  105 1    
    97   50   51 1    
    98   50   52 1    
    99   50  106 1    
   100   51  107 1    
   101   51  108 1    
   102   51  109 1    
   103   52   53 2    
   104   52   54 am   BACKBONE|DICT|INTERRES
   105   54   55 1    
   106   54  110 1    
   107   55   56 1    
   108   55   59 1    
   109   55  111 1    
   110   56   57 am   BACKBONE|DICT|INTERRES
   111   56   58 2    
   112   57  112 1    
   113   57  113 1    
   114   59   60 1    
   115   59  114 1    
   116   59  115 1    
   117   60   61 1    
   118   61  116 1    
   119   61  117 1    
@<TRIPOS>SUBSTRUCTURE
     1 UNK         1 GROUP             0       ****    0 ROOT    
