@<TRIPOS>MOLECULE
3R8
117   119    1
SMALL
USER_CHARGES


@<TRIPOS>ATOM
      1 CA         20.6023  -27.4261  -39.8190 C.3       0 UNK        -0.2013 
      2 C          19.8300  -27.2409  -41.1149 C.2       0 UNK         0.4866 
      3 O          20.4403  -27.0824  -42.1728 O.2       0 UNK        -0.5176 
      4 N          18.4915  -27.2419  -41.0363 N.am      1 UNK        -0.4884 
      5 CA         17.5590  -27.0227  -42.1545 C.3       1 UNK         0.0853 
      6 C6         17.6418  -28.1362  -43.2423 C.3       10 UNK        -0.0849 
      7 S7         17.3681  -29.8128  -42.5840 S.3       10 UNK        -0.2776 
      8 C8         17.3580  -30.7982  -44.1172 C.3       10 UNK         0.0316 
      9 C9         18.7603  -31.0751  -44.6480 C.ar      10 UNK        -0.0863 
     10 C10        19.3944  -32.2842  -44.3484 C.ar      10 UNK        -0.1009 
     11 C11        20.6548  -32.5798  -44.8760 C.ar      10 UNK        -0.0712 
     12 C12        21.2908  -31.6357  -45.6892 C.ar      10 UNK        -0.0894 
     13 C13        20.6733  -30.4207  -46.0062 C.ar      10 UNK        -0.0745 
     14 C14        19.3987  -30.1554  -45.4868 C.ar      10 UNK        -0.0972 
     15 C15        21.3897  -29.4740  -46.9744 C.3       10 UNK         0.0209 
     16 S16        20.7704  -27.7557  -47.0272 S.3       10 UNK        -0.2568 
     17 C17        21.6772  -26.9926  -45.6432 C.3       10 UNK        -0.0983 
     18 CA         21.3175  -25.4945  -45.4858 C.3       3 UNK         0.0876 
     19 N          19.9022  -25.3140  -45.1557 N.am      3 UNK        -0.4424 
     20 C          19.2234  -24.1582  -45.1931 C.2       2 UNK         0.4918 
     21 O          19.7174  -23.0826  -45.5316 O.2       2 UNK        -0.4875 
     22 CA         17.7326  -24.2127  -44.7997 C.3       2 UNK         0.0481 
     23 CB         16.8469  -24.1611  -46.0550 C.3       2 UNK        -0.1831 
     24 N          17.4002  -25.4139  -44.0261 N.am      2 UNK        -0.4498 
     25 C          17.7226  -25.5942  -42.7366 C.2       1 UNK         0.5027 
     26 O          18.1561  -24.6851  -42.0232 O.2       1 UNK        -0.4969 
     27 C          22.2443  -24.8082  -44.4634 C.2       3 UNK         0.5005 
     28 O          23.2793  -24.2687  -44.8576 O.2       3 UNK        -0.5279 
     29 N          21.8654  -24.8469  -43.1763 N.am      4 UNK        -0.4463 
     30 CA         22.4989  -24.2411  -41.9948 C.3       4 UNK         0.0283 
     31 CB         22.6121  -22.7109  -42.1325 C.3       4 UNK        -0.1875 
     32 C          23.8477  -24.8674  -41.5982 C.2       4 UNK         0.4949 
     33 O          24.0890  -25.0705  -40.4090 O.2       4 UNK        -0.5039 
     34 N          24.6913  -25.1794  -42.5882 N.am      5 UNK        -0.4663 
     35 CA         25.9653  -25.8853  -42.4293 C.3       5 UNK         0.0242 
     36 CB         26.8473  -25.5929  -43.6543 C.3       5 UNK        -0.1982 
     37 C          25.7937  -27.4044  -42.2389 C.2       5 UNK         0.5017 
     38 O          26.7428  -28.0658  -41.8152 O.2       5 UNK        -0.5012 
     39 N          24.6061  -27.9321  -42.5670 N.am      6 UNK        -0.4439 
     40 CA         24.2255  -29.3308  -42.3727 C.3       6 UNK         0.0297 
     41 CB         22.9823  -29.6349  -43.2262 C.3       6 UNK        -0.2006 
     42 C          23.9474  -29.6437  -40.8935 C.2       6 UNK         0.4892 
     43 O          23.6735  -28.7393  -40.1034 O.2       6 UNK        -0.5089 
     44 N          23.9665  -30.9390  -40.5614 N.am      7 UNK        -0.4243 
     45 CA         23.6555  -31.4680  -39.2291 C.3       7 UNK         0.0196 
     46 CB         24.4544  -32.7689  -39.0270 C.3       7 UNK        -0.2007 
     47 C          22.1468  -31.7050  -39.0072 C.2       7 UNK         0.5020 
     48 O          21.7841  -32.3777  -38.0429 O.2       7 UNK        -0.5147 
     49 N          21.2978  -31.2272  -39.9304 N.am      8 UNK        -0.4734 
     50 CA         19.8410  -31.4250  -40.0522 C.3       8 UNK         0.0238 
     51 CB         19.0834  -30.9659  -38.7908 C.3       8 UNK        -0.1912 
     52 C          19.4296  -32.8500  -40.4727 C.2       8 UNK         0.5038 
     53 O          18.3653  -33.0161  -41.0680 O.2       8 UNK        -0.5046 
     54 N          20.2959  -33.8344  -40.2073 N.am      9 UNK        -0.4200 
     55 CA         20.2766  -35.2026  -40.7451 C.3       9 UNK         0.0839 
     56 C          19.1170  -36.1029  -40.2234 C.2       9 UNK         0.5513 
     57 N          18.4368  -35.7421  -39.1422 N.am      9 UNK        -0.7519 
     58 O          18.8489  -37.1620  -40.7854 O.2       9 UNK        -0.4960 
     59 C59        20.4187  -35.2372  -42.2951 C.3       10 UNK        -0.0876 
     60 S60        21.8101  -34.2230  -42.9211 S.3       10 UNK        -0.2414 
     61 C61        21.2995  -33.9438  -44.6462 C.3       10 UNK         0.0169 
     62 H62        21.4381  -26.7279  -39.7750 H         1 UNK         0.0903 
     63 H63        19.9754  -27.2601  -38.9434 H         1 UNK         0.0903 
     64 H64        21.0054  -28.4353  -39.7657 H         1 UNK         0.0903 
     65 H65        18.0532  -27.3502  -40.1327 H         1 UNK         0.3096 
     66 H66        16.5558  -27.0495  -41.7260 H         1 UNK         0.1121 
     67 H67        16.8917  -27.9805  -44.0188 H         1 UNK         0.0849 
     68 H68        18.6150  -28.1148  -43.7330 H         1 UNK         0.0849 
     69 H69        16.8498  -31.7418  -43.9123 H         1 UNK         0.0865 
     70 H70        16.7577  -30.2978  -44.8785 H         1 UNK         0.0865 
     71 H71        18.8880  -33.0062  -43.7255 H         1 UNK         0.1346 
     72 H72        22.2604  -31.8634  -46.1109 H         1 UNK         0.1412 
     73 H73        18.8840  -29.2435  -45.7498 H         1 UNK         0.1426 
     74 H74        21.2934  -29.8915  -47.9774 H         1 UNK         0.0716 
     75 H75        22.4583  -29.4561  -46.7547 H         1 UNK         0.0716 
     76 H76        21.4510  -27.5442  -44.7293 H         1 UNK         0.0695 
     77 H77        22.7459  -27.1163  -45.8302 H         1 UNK         0.0695 
     78 H78        21.4939  -25.0004  -46.4441 H         1 UNK         0.0983 
     79 H79        19.4118  -26.1474  -44.8734 H         1 UNK         0.3095 
     80 H80        17.5154  -23.3304  -44.1939 H         1 UNK         0.0454 
     81 H81        17.0473  -23.2599  -46.6362 H         1 UNK         0.0851 
     82 H82        17.0211  -25.0153  -46.7105 H         1 UNK         0.0851 
     83 H83        15.7885  -24.1462  -45.7945 H         1 UNK         0.0851 
     84 H84        16.9960  -26.1819  -44.5422 H         1 UNK         0.2976 
     85 H85        21.0712  -25.4438  -42.9540 H         1 UNK         0.3116 
     86 H86        21.8117  -24.4416  -41.1711 H         1 UNK         0.0646 
     87 H87        22.9774  -22.2644  -41.2068 H         1 UNK         0.0847 
     88 H88        21.6435  -22.2607  -42.3500 H         1 UNK         0.0847 
     89 H89        23.3026  -22.4203  -42.9247 H         1 UNK         0.0847 
     90 H90        24.4100  -24.9233  -43.5326 H         1 UNK         0.3040 
     91 H91        26.4700  -25.5012  -41.5399 H         1 UNK         0.1015 
     92 H92        27.0315  -24.5239  -43.7639 H         1 UNK         0.0786 
     93 H93        26.3879  -25.9507  -44.5767 H         1 UNK         0.0786 
     94 H94        27.8192  -26.0800  -43.5626 H         1 UNK         0.0786 
     95 H95        23.8743  -27.2951  -42.8423 H         1 UNK         0.3172 
     96 H96        25.0477  -29.9634  -42.7141 H         1 UNK         0.0595 
     97 H97        22.1173  -29.0523  -42.9075 H         1 UNK         0.0839 
     98 H98        22.7030  -30.6875  -43.1616 H         1 UNK         0.0839 
     99 H99        23.1628  -29.4197  -44.2790 H         1 UNK         0.0839 
    100 H100       24.1797  -31.6218  -41.2755 H         1 UNK         0.2998 
    101 H101       23.9804  -30.7505  -38.4724 H         1 UNK         0.0822 
    102 H102       25.5234  -32.6028  -39.1621 H         1 UNK         0.0787 
    103 H103       24.3186  -33.1635  -38.0190 H         1 UNK         0.0787 
    104 H104       24.1438  -33.5462  -39.7265 H         1 UNK         0.0787 
    105 H105       21.7185  -30.7240  -40.6981 H         1 UNK         0.3055 
    106 H106       19.5328  -30.7744  -40.8717 H         1 UNK         0.1106 
    107 H107       19.2807  -31.6117  -37.9352 H         1 UNK         0.0828 
    108 H108       19.3510  -29.9473  -38.5125 H         1 UNK         0.0828 
    109 H109       18.0065  -30.9815  -38.9637 H         1 UNK         0.0828 
    110 H110       21.0930  -33.5989  -39.6311 H         1 UNK         0.2931 
    111 H111       21.1773  -35.6655  -40.3406 H         1 UNK         0.0412 
    112 H112       17.6944  -36.3332  -38.8024 H         1 UNK         0.3472 
    113 H113       18.6511  -34.8763  -38.6735 H         1 UNK         0.3472 
    114 H114       19.4881  -34.9135  -42.7602 H         1 UNK         0.0970 
    115 H115       20.5794  -36.2618  -42.6351 H         1 UNK         0.0970 
    116 H116       20.6121  -34.7285  -44.9649 H         1 UNK         0.0612 
    117 H117       22.1838  -34.0522  -45.2759 H         1 UNK         0.0612 
@<TRIPOS>BOND
     1    1    2 1    
     2    1   62 1    
     3    1   63 1    
     4    1   64 1    
     5    2    3 2    
     6    2    4 am   BACKBONE|DICT|INTERRES
     7    4    5 1    
     8    4   65 1    
     9    5    6 1    
    10    5   25 1    
    11    5   66 1    
    12    6    7 1    
    13    6   67 1    
    14    6   68 1    
    15    7    8 1    
    16    8    9 1    
    17    8   69 1    
    18    8   70 1    
    19    9   10 ar   
    20    9   14 ar   
    21   10   11 ar   
    22   10   71 1    
    23   11   12 ar   
    24   11   61 1    
    25   12   13 ar   
    26   12   72 1    
    27   13   14 ar   
    28   13   15 1    
    29   14   73 1    
    30   15   16 1    
    31   15   74 1    
    32   15   75 1    
    33   16   17 1    
    34   17   18 1    
    35   17   76 1    
    36   17   77 1    
    37   18   19 1    
    38   18   27 1    
    39   18   78 1    
    40   19   20 am   BACKBONE|DICT|INTERRES
    41   19   79 1    
    42   20   21 2    
    43   20   22 1    
    44   22   23 1    
    45   22   24 1    
    46   22   80 1    
    47   23   81 1    
    48   23   82 1    
    49   23   83 1    
    50   24   25 am   BACKBONE|DICT|INTERRES
    51   24   84 1    
    52   25   26 2    
    53   27   28 2    
    54   27   29 am   BACKBONE|DICT|INTERRES
    55   29   30 1    
    56   29   85 1    
    57   30   31 1    
    58   30   32 1    
    59   30   86 1    
    60   31   87 1    
    61   31   88 1    
    62   31   89 1    
    63   32   33 2    
    64   32   34 am   BACKBONE|DICT|INTERRES
    65   34   35 1    
    66   34   90 1    
    67   35   36 1    
    68   35   37 1    
    69   35   91 1    
    70   36   92 1    
    71   36   93 1    
    72   36   94 1    
    73   37   38 2    
    74   37   39 am   BACKBONE|DICT|INTERRES
    75   39   40 1    
    76   39   95 1    
    77   40   41 1    
    78   40   42 1    
    79   40   96 1    
    80   41   97 1    
    81   41   98 1    
    82   41   99 1    
    83   42   43 2    
    84   42   44 am   BACKBONE|DICT|INTERRES
    85   44   45 1    
    86   44  100 1    
    87   45   46 1    
    88   45   47 1    
    89   45  101 1    
    90   46  102 1    
    91   46  103 1    
    92   46  104 1    
    93   47   48 2    
    94   47   49 am   BACKBONE|DICT|INTERRES
    95   49   50 1    
    96   49  105 1    
    97   50   51 1    
    98   50   52 1    
    99   50  106 1    
   100   51  107 1    
   101   51  108 1    
   102   51  109 1    
   103   52   53 2    
   104   52   54 am   BACKBONE|DICT|INTERRES
   105   54   55 1    
   106   54  110 1    
   107   55   56 1    
   108   55   59 1    
   109   55  111 1    
   110   56   57 am   BACKBONE|DICT|INTERRES
   111   56   58 2    
   112   57  112 1    
   113   57  113 1    
   114   59   60 1    
   115   59  114 1    
   116   59  115 1    
   117   60   61 1    
   118   61  116 1    
   119   61  117 1    
@<TRIPOS>SUBSTRUCTURE
     1 UNK         1 GROUP             0       ****    0 ROOT    
