@<TRIPOS>MOLECULE
3R8
117   119    1
SMALL
USER_CHARGES


@<TRIPOS>ATOM
      1 CA         21.1992  -24.1106  -48.8817 C.3       0 UNK        -0.2013 
      2 C          21.3355  -24.5794  -47.4410 C.2       0 UNK         0.4866 
      3 O          21.8851  -23.8555  -46.6108 O.2       0 UNK        -0.5176 
      4 N          20.8416  -25.7871  -47.1386 N.am      1 UNK        -0.4884 
      5 CA         20.8492  -26.3914  -45.8002 C.3       1 UNK         0.0853 
      6 C6         20.5662  -27.9170  -45.8475 C.3       10 UNK        -0.0849 
      7 S7         19.0815  -28.3695  -46.8129 S.3       10 UNK        -0.2776 
      8 C8         18.9681  -30.1576  -46.4849 C.3       10 UNK         0.0316 
      9 C9         18.3295  -30.4406  -45.1334 C.ar      10 UNK        -0.0863 
     10 C10        19.1020  -30.8800  -44.0539 C.ar      10 UNK        -0.1009 
     11 C11        18.5061  -31.1342  -42.8138 C.ar      10 UNK        -0.0712 
     12 C12        17.1298  -30.9421  -42.6571 C.ar      10 UNK        -0.0894 
     13 C13        16.3556  -30.4691  -43.7210 C.ar      10 UNK        -0.0745 
     14 C14        16.9564  -30.2462  -44.9626 C.ar      10 UNK        -0.0972 
     15 C15        14.8893  -30.1207  -43.5141 C.3       10 UNK         0.0209 
     16 S16        14.6258  -28.3141  -43.5653 S.3       10 UNK        -0.2568 
     17 C17        15.4976  -27.7456  -42.0623 C.3       10 UNK        -0.0983 
     18 CA         17.0057  -27.4420  -42.2928 C.3       3 UNK         0.0876 
     19 N          17.2735  -26.5125  -43.3933 N.am      3 UNK        -0.4424 
     20 C          17.0907  -25.1862  -43.4071 C.2       2 UNK         0.4918 
     21 O          16.4985  -24.5660  -42.5229 O.2       2 UNK        -0.4875 
     22 CA         17.7168  -24.4202  -44.5961 C.3       2 UNK         0.0481 
     23 CB         18.2430  -23.0351  -44.1666 C.3       2 UNK        -0.1831 
     24 N          18.7731  -25.1544  -45.3171 N.am      2 UNK        -0.4498 
     25 C          19.9051  -25.6771  -44.8118 C.2       1 UNK         0.5027 
     26 O          20.2013  -25.6468  -43.6166 O.2       1 UNK        -0.4969 
     27 C          17.7690  -27.0860  -40.9938 C.2       3 UNK         0.5005 
     28 O          17.2633  -27.3313  -39.8966 O.2       3 UNK        -0.5279 
     29 N          18.9798  -26.5269  -41.1348 N.am      4 UNK        -0.4463 
     30 CA         19.8500  -26.1046  -40.0375 C.3       4 UNK         0.0283 
     31 CB         19.5429  -24.6388  -39.6728 C.3       4 UNK        -0.1875 
     32 C          21.3261  -26.3367  -40.4023 C.2       4 UNK         0.4949 
     33 O          22.1783  -25.5081  -40.0780 O.2       4 UNK        -0.5039 
     34 N          21.6074  -27.4542  -41.0874 N.am      5 UNK        -0.4663 
     35 CA         22.9519  -27.8548  -41.5029 C.3       5 UNK         0.0242 
     36 CB         22.8516  -28.9775  -42.5496 C.3       5 UNK        -0.1982 
     37 C          23.7932  -28.3071  -40.2987 C.2       5 UNK         0.5017 
     38 O          23.4562  -29.3130  -39.6707 O.2       5 UNK        -0.5012 
     39 N          24.8854  -27.5827  -40.0177 N.am      6 UNK        -0.4439 
     40 CA         25.8278  -27.8725  -38.9282 C.3       6 UNK         0.0297 
     41 CB         26.7993  -26.6920  -38.7688 C.3       6 UNK        -0.2006 
     42 C          26.6071  -29.1888  -39.1130 C.2       6 UNK         0.4892 
     43 O          27.0269  -29.7875  -38.1229 O.2       6 UNK        -0.5089 
     44 N          26.7601  -29.6254  -40.3705 N.am      7 UNK        -0.4243 
     45 CA         27.3566  -30.9057  -40.7608 C.3       7 UNK         0.0196 
     46 CB         27.9373  -30.7582  -42.1788 C.3       7 UNK        -0.2007 
     47 C          26.3672  -32.0894  -40.6926 C.2       7 UNK         0.5020 
     48 O          26.7516  -33.1984  -41.0659 O.2       7 UNK        -0.5147 
     49 N          25.1285  -31.8376  -40.2385 N.am      8 UNK        -0.4734 
     50 CA         23.9580  -32.7248  -40.2225 C.3       8 UNK         0.0238 
     51 CB         24.2542  -34.0686  -39.5201 C.3       8 UNK        -0.1912 
     52 C          23.3448  -32.9111  -41.6230 C.2       8 UNK         0.5038 
     53 O          23.8817  -32.4164  -42.6177 O.2       8 UNK        -0.5046 
     54 N          22.1836  -33.5735  -41.6611 N.am      9 UNK        -0.4200 
     55 CA         21.3758  -33.7774  -42.8712 C.3       9 UNK         0.0839 
     56 C          22.0324  -34.7568  -43.8815 C.2       9 UNK         0.5513 
     57 N          21.7800  -34.5779  -45.1709 N.am      9 UNK        -0.7519 
     58 O          22.7255  -35.7004  -43.5062 O.2       9 UNK        -0.4960 
     59 C59        19.9249  -34.2211  -42.5342 C.3       10 UNK        -0.0876 
     60 S60        19.1054  -33.3039  -41.1783 S.3       10 UNK        -0.2414 
     61 C61        19.3496  -31.5540  -41.6202 C.3       10 UNK         0.0169 
     62 H62        20.6991  -24.8506  -49.5063 H         1 UNK         0.0903 
     63 H63        20.6224  -23.1869  -48.9225 H         1 UNK         0.0903 
     64 H64        22.1832  -23.9170  -49.3078 H         1 UNK         0.0903 
     65 H65        20.4032  -26.3464  -47.8583 H         1 UNK         0.3096 
     66 H66        21.8552  -26.2613  -45.3936 H         1 UNK         0.1121 
     67 H67        20.4720  -28.3259  -44.8400 H         1 UNK         0.0849 
     68 H68        21.4217  -28.4266  -46.2938 H         1 UNK         0.0849 
     69 H69        18.3655  -30.6208  -47.2676 H         1 UNK         0.0865 
     70 H70        19.9578  -30.6115  -46.5566 H         1 UNK         0.0865 
     71 H71        20.1682  -31.0058  -44.1773 H         1 UNK         0.1346 
     72 H72        16.6740  -31.1118  -41.6909 H         1 UNK         0.1412 
     73 H73        16.3609  -29.8757  -45.7864 H         1 UNK         0.1426 
     74 H74        14.5188  -30.5175  -42.5677 H         1 UNK         0.0716 
     75 H75        14.2941  -30.5889  -44.2993 H         1 UNK         0.0716 
     76 H76        15.3701  -28.5052  -41.2890 H         1 UNK         0.0695 
     77 H77        14.9892  -26.8524  -41.6956 H         1 UNK         0.0695 
     78 H78        17.4865  -28.3606  -42.6122 H         1 UNK         0.0983 
     79 H79        17.7374  -26.9183  -44.1929 H         1 UNK         0.3095 
     80 H80        16.9106  -24.2636  -45.3139 H         1 UNK         0.0454 
     81 H81        19.0126  -23.1176  -43.3983 H         1 UNK         0.0851 
     82 H82        17.4419  -22.4170  -43.7594 H         1 UNK         0.0851 
     83 H83        18.6694  -22.4929  -45.0105 H         1 UNK         0.0851 
     84 H84        18.6227  -25.2705  -46.3101 H         1 UNK         0.2976 
     85 H85        19.3358  -26.3254  -42.0683 H         1 UNK         0.3116 
     86 H86        19.6573  -26.7243  -39.1594 H         1 UNK         0.0646 
     87 H87        19.7464  -23.9691  -40.5093 H         1 UNK         0.0847 
     88 H88        20.1492  -24.3064  -38.8293 H         1 UNK         0.0847 
     89 H89        18.4983  -24.5107  -39.3888 H         1 UNK         0.0847 
     90 H90        20.8573  -28.1004  -41.2814 H         1 UNK         0.3040 
     91 H91        23.4342  -26.9959  -41.9754 H         1 UNK         0.1015 
     92 H92        22.3182  -29.8469  -42.1644 H         1 UNK         0.0786 
     93 H93        23.8417  -29.3182  -42.8563 H         1 UNK         0.0786 
     94 H94        22.3379  -28.6367  -43.4469 H         1 UNK         0.0786 
     95 H95        25.0725  -26.7554  -40.5672 H         1 UNK         0.3172 
     96 H96        25.2499  -27.9641  -38.0060 H         1 UNK         0.0595 
     97 H97        27.3957  -26.5331  -39.6683 H         1 UNK         0.0839 
     98 H98        27.4936  -26.8668  -37.9455 H         1 UNK         0.0839 
     99 H99        26.2677  -25.7659  -38.5486 H         1 UNK         0.0839 
    100 H100       26.3831  -29.0594  -41.1165 H         1 UNK         0.2998 
    101 H101       28.1785  -31.1350  -40.0790 H         1 UNK         0.0822 
    102 H102       28.6601  -29.9437  -42.2302 H         1 UNK         0.0787 
    103 H103       28.4562  -31.6667  -42.4875 H         1 UNK         0.0787 
    104 H104       27.1561  -30.5639  -42.9151 H         1 UNK         0.0787 
    105 H105       24.9162  -30.8802  -39.9834 H         1 UNK         0.3055 
    106 H106       23.2093  -32.1971  -39.6286 H         1 UNK         0.1106 
    107 H107       23.3339  -34.6085  -39.2961 H         1 UNK         0.0828 
    108 H108       24.8672  -34.7262  -40.1372 H         1 UNK         0.0828 
    109 H109       24.7728  -33.9166  -38.5734 H         1 UNK         0.0828 
    110 H110       21.8032  -33.9600  -40.8105 H         1 UNK         0.2931 
    111 H111       21.3187  -32.8095  -43.3695 H         1 UNK         0.0412 
    112 H112       22.1835  -35.2145  -45.8409 H         1 UNK         0.3472 
    113 H113       21.2010  -33.8175  -45.4910 H         1 UNK         0.3472 
    114 H114       19.2954  -34.1401  -43.4224 H         1 UNK         0.0970 
    115 H115       19.9100  -35.2766  -42.2554 H         1 UNK         0.0970 
    116 H116       20.4058  -31.3489  -41.7912 H         1 UNK         0.0612 
    117 H117       19.0687  -30.9436  -40.7607 H         1 UNK         0.0612 
@<TRIPOS>BOND
     1    1    2 1    
     2    1   62 1    
     3    1   63 1    
     4    1   64 1    
     5    2    3 2    
     6    2    4 am   BACKBONE|DICT|INTERRES
     7    4    5 1    
     8    4   65 1    
     9    5    6 1    
    10    5   25 1    
    11    5   66 1    
    12    6    7 1    
    13    6   67 1    
    14    6   68 1    
    15    7    8 1    
    16    8    9 1    
    17    8   69 1    
    18    8   70 1    
    19    9   10 ar   
    20    9   14 ar   
    21   10   11 ar   
    22   10   71 1    
    23   11   12 ar   
    24   11   61 1    
    25   12   13 ar   
    26   12   72 1    
    27   13   14 ar   
    28   13   15 1    
    29   14   73 1    
    30   15   16 1    
    31   15   74 1    
    32   15   75 1    
    33   16   17 1    
    34   17   18 1    
    35   17   76 1    
    36   17   77 1    
    37   18   19 1    
    38   18   27 1    
    39   18   78 1    
    40   19   20 am   BACKBONE|DICT|INTERRES
    41   19   79 1    
    42   20   21 2    
    43   20   22 1    
    44   22   23 1    
    45   22   24 1    
    46   22   80 1    
    47   23   81 1    
    48   23   82 1    
    49   23   83 1    
    50   24   25 am   BACKBONE|DICT|INTERRES
    51   24   84 1    
    52   25   26 2    
    53   27   28 2    
    54   27   29 am   BACKBONE|DICT|INTERRES
    55   29   30 1    
    56   29   85 1    
    57   30   31 1    
    58   30   32 1    
    59   30   86 1    
    60   31   87 1    
    61   31   88 1    
    62   31   89 1    
    63   32   33 2    
    64   32   34 am   BACKBONE|DICT|INTERRES
    65   34   35 1    
    66   34   90 1    
    67   35   36 1    
    68   35   37 1    
    69   35   91 1    
    70   36   92 1    
    71   36   93 1    
    72   36   94 1    
    73   37   38 2    
    74   37   39 am   BACKBONE|DICT|INTERRES
    75   39   40 1    
    76   39   95 1    
    77   40   41 1    
    78   40   42 1    
    79   40   96 1    
    80   41   97 1    
    81   41   98 1    
    82   41   99 1    
    83   42   43 2    
    84   42   44 am   BACKBONE|DICT|INTERRES
    85   44   45 1    
    86   44  100 1    
    87   45   46 1    
    88   45   47 1    
    89   45  101 1    
    90   46  102 1    
    91   46  103 1    
    92   46  104 1    
    93   47   48 2    
    94   47   49 am   BACKBONE|DICT|INTERRES
    95   49   50 1    
    96   49  105 1    
    97   50   51 1    
    98   50   52 1    
    99   50  106 1    
   100   51  107 1    
   101   51  108 1    
   102   51  109 1    
   103   52   53 2    
   104   52   54 am   BACKBONE|DICT|INTERRES
   105   54   55 1    
   106   54  110 1    
   107   55   56 1    
   108   55   59 1    
   109   55  111 1    
   110   56   57 am   BACKBONE|DICT|INTERRES
   111   56   58 2    
   112   57  112 1    
   113   57  113 1    
   114   59   60 1    
   115   59  114 1    
   116   59  115 1    
   117   60   61 1    
   118   61  116 1    
   119   61  117 1    
@<TRIPOS>SUBSTRUCTURE
     1 UNK         1 GROUP             0       ****    0 ROOT    
