@<TRIPOS>MOLECULE
3R8
117   119    1
SMALL
USER_CHARGES


@<TRIPOS>ATOM
      1 CA         13.8616  -28.7163  -40.5541 C.3       0 UNK        -0.2013 
      2 C          14.4381  -27.7976  -41.6205 C.2       0 UNK         0.4866 
      3 O          14.4940  -26.5844  -41.4204 O.2       0 UNK        -0.5176 
      4 N          14.8769  -28.3673  -42.7493 N.am      1 UNK        -0.4884 
      5 CA         15.4887  -27.6581  -43.8825 C.3       1 UNK         0.0853 
      6 C6         15.0766  -28.2845  -45.2402 C.3       10 UNK        -0.0849 
      7 S7         15.4364  -30.0714  -45.3900 S.3       10 UNK        -0.2776 
      8 C8         16.5003  -30.1449  -46.8727 C.3       10 UNK         0.0316 
      9 C9         17.9798  -30.2832  -46.5341 C.ar      10 UNK        -0.0863 
     10 C10        18.4214  -31.3865  -45.8000 C.ar      10 UNK        -0.1009 
     11 C11        19.7805  -31.5727  -45.5386 C.ar      10 UNK        -0.0712 
     12 C12        20.7096  -30.6490  -46.0272 C.ar      10 UNK        -0.0894 
     13 C13        20.2859  -29.5469  -46.7772 C.ar      10 UNK        -0.0745 
     14 C14        18.9180  -29.3635  -47.0168 C.ar      10 UNK        -0.0972 
     15 C15        21.3074  -28.6102  -47.4120 C.3       10 UNK         0.0209 
     16 S16        21.2600  -26.9244  -46.7270 S.3       10 UNK        -0.2568 
     17 C17        22.4784  -26.9931  -45.3692 C.3       10 UNK        -0.0983 
     18 CA         21.9072  -26.3431  -44.0864 C.3       3 UNK         0.0876 
     19 N          20.8565  -27.1695  -43.4894 N.am      3 UNK        -0.4424 
     20 C          19.8388  -26.7003  -42.7617 C.2       2 UNK         0.4918 
     21 O          19.6165  -25.5041  -42.5609 O.2       2 UNK        -0.4875 
     22 CA         18.9494  -27.7672  -42.1035 C.3       2 UNK         0.0481 
     23 CB         18.9911  -27.5876  -40.5752 C.3       2 UNK        -0.1831 
     24 N          17.5495  -27.7830  -42.5377 N.am      2 UNK        -0.4498 
     25 C          17.0196  -27.4941  -43.7387 C.2       1 UNK         0.5027 
     26 O          17.6656  -27.1077  -44.7131 O.2       1 UNK        -0.4969 
     27 C          23.0084  -25.9813  -43.0623 C.2       3 UNK         0.5005 
     28 O          23.8491  -25.1326  -43.3628 O.2       3 UNK        -0.5279 
     29 N          22.9804  -26.6019  -41.8711 N.am      4 UNK        -0.4463 
     30 CA         23.7546  -26.3297  -40.6512 C.3       4 UNK         0.0283 
     31 CB         23.5450  -24.8847  -40.1611 C.3       4 UNK        -0.1875 
     32 C          25.2503  -26.6761  -40.7218 C.2       4 UNK         0.4949 
     33 O          25.7935  -27.1522  -39.7246 O.2       4 UNK        -0.5039 
     34 N          25.8890  -26.4703  -41.8789 N.am      5 UNK        -0.4663 
     35 CA         27.2871  -26.8036  -42.1684 C.3       5 UNK         0.0242 
     36 CB         27.7066  -26.0816  -43.4621 C.3       5 UNK        -0.1982 
     37 C          27.4922  -28.3287  -42.2540 C.2       5 UNK         0.5017 
     38 O          27.5708  -28.8770  -43.3546 O.2       5 UNK        -0.5012 
     39 N          27.5113  -28.9797  -41.0803 N.am      6 UNK        -0.4439 
     40 CA         27.4732  -30.4324  -40.8600 C.3       6 UNK         0.0297 
     41 CB         28.7585  -31.1116  -41.3794 C.3       6 UNK        -0.2006 
     42 C          26.1815  -31.0620  -41.4224 C.2       6 UNK         0.4892 
     43 O          26.2214  -32.1462  -42.0068 O.2       6 UNK        -0.5089 
     44 N          25.0625  -30.3452  -41.2548 N.am      7 UNK        -0.4243 
     45 CA         23.7717  -30.6461  -41.8642 C.3       7 UNK         0.0196 
     46 CB         23.7485  -30.1180  -43.3125 C.3       7 UNK        -0.2007 
     47 C          22.6456  -30.0647  -41.0032 C.2       7 UNK         0.5020 
     48 O          21.8752  -29.2246  -41.4727 O.2       7 UNK        -0.5147 
     49 N          22.5518  -30.5196  -39.7481 N.am      8 UNK        -0.4734 
     50 CA         21.4714  -30.1831  -38.8092 C.3       8 UNK         0.0238 
     51 CB         21.9913  -30.3520  -37.3695 C.3       8 UNK        -0.1912 
     52 C          20.1996  -31.0167  -39.0871 C.2       8 UNK         0.5038 
     53 O          19.6816  -31.6809  -38.1879 O.2       8 UNK        -0.5046 
     54 N          19.7668  -31.0114  -40.3509 N.am      9 UNK        -0.4200 
     55 CA         18.7186  -31.8661  -40.9162 C.3       9 UNK         0.0839 
     56 C          17.2996  -31.4175  -40.4822 C.2       9 UNK         0.5513 
     57 N          16.5363  -32.2898  -39.8396 N.am      9 UNK        -0.7519 
     58 O          16.8703  -30.3024  -40.7666 O.2       9 UNK        -0.4960 
     59 C59        18.8378  -31.9330  -42.4604 C.3       10 UNK        -0.0876 
     60 S60        20.5103  -32.4314  -43.0062 S.3       10 UNK        -0.2414 
     61 C61        20.2397  -32.7983  -44.7640 C.3       10 UNK         0.0169 
     62 H62        12.8361  -28.4297  -40.3230 H         1 UNK         0.0903 
     63 H63        13.8607  -29.7585  -40.8733 H         1 UNK         0.0903 
     64 H64        14.4522  -28.6452  -39.6411 H         1 UNK         0.0903 
     65 H65        14.8357  -29.3728  -42.8517 H         1 UNK         0.3096 
     66 H66        15.1035  -26.6357  -43.8899 H         1 UNK         0.1121 
     67 H67        14.0003  -28.1631  -45.3715 H         1 UNK         0.0849 
     68 H68        15.5235  -27.7327  -46.0688 H         1 UNK         0.0849 
     69 H69        16.2048  -31.0160  -47.4592 H         1 UNK         0.0865 
     70 H70        16.3219  -29.2834  -47.5172 H         1 UNK         0.0865 
     71 H71        17.7018  -32.1099  -45.4413 H         1 UNK         0.1346 
     72 H72        21.7641  -30.8095  -45.8517 H         1 UNK         0.1412 
     73 H73        18.5905  -28.5179  -47.6063 H         1 UNK         0.1426 
     74 H74        21.0977  -28.5481  -48.4807 H         1 UNK         0.0716 
     75 H75        22.3182  -29.0132  -47.3318 H         1 UNK         0.0716 
     76 H76        23.3718  -26.4676  -45.7120 H         1 UNK         0.0695 
     77 H77        22.7798  -28.0244  -45.1834 H         1 UNK         0.0695 
     78 H78        21.4651  -25.3860  -44.3736 H         1 UNK         0.0983 
     79 H79        20.9628  -28.1694  -43.5858 H         1 UNK         0.3095 
     80 H80        19.3551  -28.7513  -42.3406 H         1 UNK         0.0454 
     81 H81        20.0187  -27.5291  -40.2157 H         1 UNK         0.0851 
     82 H82        18.5118  -28.4137  -40.0534 H         1 UNK         0.0851 
     83 H83        18.4915  -26.6680  -40.2681 H         1 UNK         0.0851 
     84 H84        16.8982  -28.1324  -41.8476 H         1 UNK         0.2976 
     85 H85        22.3202  -27.3700  -41.7774 H         1 UNK         0.3116 
     86 H86        23.3268  -26.9898  -39.8945 H         1 UNK         0.0646 
     87 H87        24.0307  -24.7269  -39.1972 H         1 UNK         0.0847 
     88 H88        22.4864  -24.6599  -40.0309 H         1 UNK         0.0847 
     89 H89        23.9607  -24.1533  -40.8548 H         1 UNK         0.0847 
     90 H90        25.3489  -26.0458  -42.6287 H         1 UNK         0.3040 
     91 H91        27.9126  -26.4261  -41.3562 H         1 UNK         0.1015 
     92 H92        27.6299  -24.9995  -43.3539 H         1 UNK         0.0786 
     93 H93        27.0869  -26.3768  -44.3100 H         1 UNK         0.0786 
     94 H94        28.7423  -26.3089  -43.7183 H         1 UNK         0.0786 
     95 H95        27.3471  -28.4115  -40.2549 H         1 UNK         0.3172 
     96 H96        27.4375  -30.5778  -39.7794 H         1 UNK         0.0595 
     97 H97        28.8322  -31.0665  -42.4664 H         1 UNK         0.0839 
     98 H98        28.7833  -32.1650  -41.0979 H         1 UNK         0.0839 
     99 H99        29.6508  -30.6448  -40.9626 H         1 UNK         0.0839 
    100 H100       25.1148  -29.4868  -40.7233 H         1 UNK         0.2998 
    101 H101       23.6195  -31.7274  -41.8896 H         1 UNK         0.0822 
    102 H102       23.9785  -29.0532  -43.3514 H         1 UNK         0.0787 
    103 H103       24.4765  -30.6375  -43.9355 H         1 UNK         0.0787 
    104 H104       22.7692  -30.2657  -43.7675 H         1 UNK         0.0787 
    105 H105       23.2093  -31.2238  -39.4426 H         1 UNK         0.3055 
    106 H106       21.2015  -29.1333  -38.9376 H         1 UNK         0.1106 
    107 H107       22.2713  -31.3848  -37.1588 H         1 UNK         0.0828 
    108 H108       22.8628  -29.7233  -37.1863 H         1 UNK         0.0828 
    109 H109       21.2301  -30.0654  -36.6425 H         1 UNK         0.0828 
    110 H110       20.2705  -30.4343  -41.0130 H         1 UNK         0.2931 
    111 H111       18.8910  -32.8754  -40.5359 H         1 UNK         0.0412 
    112 H112       16.8814  -33.2070  -39.6019 H         1 UNK         0.3472 
    113 H113       15.6060  -32.0172  -39.5646 H         1 UNK         0.3472 
    114 H114       18.1133  -32.6439  -42.8616 H         1 UNK         0.0970 
    115 H115       18.5996  -30.9664  -42.9084 H         1 UNK         0.0970 
    116 H116       19.5130  -33.6071  -44.8554 H         1 UNK         0.0612 
    117 H117       21.1702  -33.1750  -45.1910 H         1 UNK         0.0612 
@<TRIPOS>BOND
     1    1    2 1    
     2    1   62 1    
     3    1   63 1    
     4    1   64 1    
     5    2    3 2    
     6    2    4 am   BACKBONE|DICT|INTERRES
     7    4    5 1    
     8    4   65 1    
     9    5    6 1    
    10    5   25 1    
    11    5   66 1    
    12    6    7 1    
    13    6   67 1    
    14    6   68 1    
    15    7    8 1    
    16    8    9 1    
    17    8   69 1    
    18    8   70 1    
    19    9   10 ar   
    20    9   14 ar   
    21   10   11 ar   
    22   10   71 1    
    23   11   12 ar   
    24   11   61 1    
    25   12   13 ar   
    26   12   72 1    
    27   13   14 ar   
    28   13   15 1    
    29   14   73 1    
    30   15   16 1    
    31   15   74 1    
    32   15   75 1    
    33   16   17 1    
    34   17   18 1    
    35   17   76 1    
    36   17   77 1    
    37   18   19 1    
    38   18   27 1    
    39   18   78 1    
    40   19   20 am   BACKBONE|DICT|INTERRES
    41   19   79 1    
    42   20   21 2    
    43   20   22 1    
    44   22   23 1    
    45   22   24 1    
    46   22   80 1    
    47   23   81 1    
    48   23   82 1    
    49   23   83 1    
    50   24   25 am   BACKBONE|DICT|INTERRES
    51   24   84 1    
    52   25   26 2    
    53   27   28 2    
    54   27   29 am   BACKBONE|DICT|INTERRES
    55   29   30 1    
    56   29   85 1    
    57   30   31 1    
    58   30   32 1    
    59   30   86 1    
    60   31   87 1    
    61   31   88 1    
    62   31   89 1    
    63   32   33 2    
    64   32   34 am   BACKBONE|DICT|INTERRES
    65   34   35 1    
    66   34   90 1    
    67   35   36 1    
    68   35   37 1    
    69   35   91 1    
    70   36   92 1    
    71   36   93 1    
    72   36   94 1    
    73   37   38 2    
    74   37   39 am   BACKBONE|DICT|INTERRES
    75   39   40 1    
    76   39   95 1    
    77   40   41 1    
    78   40   42 1    
    79   40   96 1    
    80   41   97 1    
    81   41   98 1    
    82   41   99 1    
    83   42   43 2    
    84   42   44 am   BACKBONE|DICT|INTERRES
    85   44   45 1    
    86   44  100 1    
    87   45   46 1    
    88   45   47 1    
    89   45  101 1    
    90   46  102 1    
    91   46  103 1    
    92   46  104 1    
    93   47   48 2    
    94   47   49 am   BACKBONE|DICT|INTERRES
    95   49   50 1    
    96   49  105 1    
    97   50   51 1    
    98   50   52 1    
    99   50  106 1    
   100   51  107 1    
   101   51  108 1    
   102   51  109 1    
   103   52   53 2    
   104   52   54 am   BACKBONE|DICT|INTERRES
   105   54   55 1    
   106   54  110 1    
   107   55   56 1    
   108   55   59 1    
   109   55  111 1    
   110   56   57 am   BACKBONE|DICT|INTERRES
   111   56   58 2    
   112   57  112 1    
   113   57  113 1    
   114   59   60 1    
   115   59  114 1    
   116   59  115 1    
   117   60   61 1    
   118   61  116 1    
   119   61  117 1    
@<TRIPOS>SUBSTRUCTURE
     1 UNK         1 GROUP             0       ****    0 ROOT    
