@<TRIPOS>MOLECULE
3R8
117   119    1
SMALL
USER_CHARGES


@<TRIPOS>ATOM
      1 CA         19.9520  -26.9310  -47.8689 C.3       0 UNK        -0.2013 
      2 C          20.4236  -28.2804  -47.3324 C.2       0 UNK         0.4866 
      3 O          21.3394  -28.8577  -47.9134 O.2       0 UNK        -0.5176 
      4 N          19.8731  -28.8317  -46.2392 N.am      1 UNK        -0.4884 
      5 CA         18.7800  -28.3639  -45.3670 C.3       1 UNK         0.0853 
      6 C6         17.4311  -28.0903  -46.0943 C.3       10 UNK        -0.0849 
      7 S7         16.7103  -29.5914  -46.8393 S.3       10 UNK        -0.2776 
      8 C8         15.3089  -29.9205  -45.7174 C.3       10 UNK         0.0316 
      9 C9         15.7679  -30.5974  -44.4341 C.ar      10 UNK        -0.0863 
     10 C10        15.7355  -31.9909  -44.3306 C.ar      10 UNK        -0.1009 
     11 C11        16.1885  -32.6275  -43.1715 C.ar      10 UNK        -0.0712 
     12 C12        16.6684  -31.8579  -42.1063 C.ar      10 UNK        -0.0894 
     13 C13        16.7349  -30.4662  -42.2119 C.ar      10 UNK        -0.0745 
     14 C14        16.2522  -29.8394  -43.3632 C.ar      10 UNK        -0.0972 
     15 C15        17.3983  -29.6477  -41.1170 C.3       10 UNK         0.0209 
     16 S16        19.2043  -29.6816  -41.3382 S.3       10 UNK        -0.2568 
     17 C17        19.7709  -28.5869  -39.9951 C.3       10 UNK        -0.0983 
     18 CA         20.9681  -27.7016  -40.4274 C.3       3 UNK         0.0876 
     19 N          20.6411  -26.9058  -41.6217 N.am      3 UNK        -0.4424 
     20 C          21.4682  -26.1229  -42.3256 C.2       2 UNK         0.4918 
     21 O          22.5965  -25.8086  -41.9468 O.2       2 UNK        -0.4875 
     22 CA         20.9442  -25.6177  -43.6828 C.3       2 UNK         0.0481 
     23 CB         22.0185  -24.8669  -44.4915 C.3       2 UNK        -0.1831 
     24 N          20.4174  -26.7178  -44.4967 N.am      2 UNK        -0.4498 
     25 C          19.1716  -27.2062  -44.4217 C.2       1 UNK         0.5027 
     26 O          18.3465  -26.7942  -43.6054 O.2       1 UNK        -0.4969 
     27 C          21.5033  -26.8930  -39.2226 C.2       3 UNK         0.5005 
     28 O          22.0783  -27.4843  -38.3076 O.2       3 UNK        -0.5279 
     29 N          21.3144  -25.5662  -39.2322 N.am      4 UNK        -0.4463 
     30 CA         21.8686  -24.6327  -38.2504 C.3       4 UNK         0.0283 
     31 CB         21.1272  -23.2905  -38.3649 C.3       4 UNK        -0.1875 
     32 C          23.3892  -24.4152  -38.3891 C.2       4 UNK         0.4949 
     33 O          24.0065  -23.9625  -37.4243 O.2       4 UNK        -0.5039 
     34 N          23.9635  -24.7098  -39.5649 N.am      5 UNK        -0.4663 
     35 CA         25.3849  -24.5046  -39.8662 C.3       5 UNK         0.0242 
     36 CB         25.5536  -23.2093  -40.6788 C.3       5 UNK        -0.1982 
     37 C          26.0142  -25.6948  -40.6051 C.2       5 UNK         0.5017 
     38 O          27.1554  -26.0491  -40.3055 O.2       5 UNK        -0.5012 
     39 N          25.2795  -26.2829  -41.5560 N.am      6 UNK        -0.4439 
     40 CA         25.6764  -27.4604  -42.3261 C.3       6 UNK         0.0297 
     41 CB         25.0417  -27.3623  -43.7263 C.3       6 UNK        -0.2006 
     42 C          25.2402  -28.7534  -41.6159 C.2       6 UNK         0.4892 
     43 O          24.6077  -28.7063  -40.5575 O.2       6 UNK        -0.5089 
     44 N          25.5814  -29.8937  -42.2294 N.am      7 UNK        -0.4243 
     45 CA         25.1592  -31.2304  -41.8069 C.3       7 UNK         0.0196 
     46 CB         25.8929  -32.2773  -42.6614 C.3       7 UNK        -0.2007 
     47 C          23.6356  -31.4246  -41.9143 C.2       7 UNK         0.5020 
     48 O          22.9830  -30.7763  -42.7386 O.2       7 UNK        -0.5147 
     49 N          23.1073  -32.3394  -41.0905 N.am      8 UNK        -0.4734 
     50 CA         21.6882  -32.6950  -41.0293 C.3       8 UNK         0.0238 
     51 CB         21.4673  -33.7525  -39.9355 C.3       8 UNK        -0.1912 
     52 C          21.1567  -33.1919  -42.3841 C.2       8 UNK         0.5038 
     53 O          21.7187  -34.1335  -42.9489 O.2       8 UNK        -0.5046 
     54 N          20.0969  -32.5354  -42.8658 N.am      9 UNK        -0.4200 
     55 CA         19.4393  -32.7724  -44.1593 C.3       9 UNK         0.0839 
     56 C          20.2843  -32.3515  -45.3985 C.2       9 UNK         0.5513 
     57 N          21.3418  -31.5594  -45.2470 N.am      9 UNK        -0.7519 
     58 O          19.9590  -32.7176  -46.5242 O.2       9 UNK        -0.4960 
     59 C59        18.8106  -34.1949  -44.3038 C.3       10 UNK        -0.0876 
     60 S60        17.9033  -34.7891  -42.8270 S.3       10 UNK        -0.2414 
     61 C61        16.2183  -34.1475  -43.0978 C.3       10 UNK         0.0169 
     62 H62        19.1637  -27.0777  -48.6065 H         1 UNK         0.0903 
     63 H63        19.5845  -26.2637  -47.0928 H         1 UNK         0.0903 
     64 H64        20.7766  -26.4193  -48.3649 H         1 UNK         0.0903 
     65 H65        20.2559  -29.7245  -45.9524 H         1 UNK         0.3096 
     66 H66        18.6080  -29.1998  -44.6871 H         1 UNK         0.1121 
     67 H67        17.5358  -27.3414  -46.8765 H         1 UNK         0.0849 
     68 H68        16.6978  -27.6618  -45.4103 H         1 UNK         0.0849 
     69 H69        14.7743  -28.9963  -45.4929 H         1 UNK         0.0865 
     70 H70        14.5918  -30.5585  -46.2365 H         1 UNK         0.0865 
     71 H71        15.3805  -32.5813  -45.1645 H         1 UNK         0.1346 
     72 H72        17.0501  -32.3483  -41.2210 H         1 UNK         0.1412 
     73 H73        16.2976  -28.7621  -43.4388 H         1 UNK         0.1426 
     74 H74        17.1393  -30.0480  -40.1356 H         1 UNK         0.0716 
     75 H75        17.0444  -28.6158  -41.1428 H         1 UNK         0.0716 
     76 H76        20.0433  -29.2200  -39.1482 H         1 UNK         0.0695 
     77 H77        18.9406  -27.9628  -39.6591 H         1 UNK         0.0695 
     78 H78        21.7848  -28.3661  -40.7202 H         1 UNK         0.0983 
     79 H79        19.7253  -27.0789  -42.0196 H         1 UNK         0.3095 
     80 H80        20.1413  -24.9088  -43.4708 H         1 UNK         0.0454 
     81 H81        21.6087  -24.4703  -45.4204 H         1 UNK         0.0851 
     82 H82        22.8604  -25.5105  -44.7461 H         1 UNK         0.0851 
     83 H83        22.4138  -24.0201  -43.9287 H         1 UNK         0.0851 
     84 H84        21.0630  -27.1610  -45.1346 H         1 UNK         0.2976 
     85 H85        20.8269  -25.1654  -40.0202 H         1 UNK         0.3116 
     86 H86        21.6858  -25.0378  -37.2528 H         1 UNK         0.0646 
     87 H87        21.2666  -22.8337  -39.3456 H         1 UNK         0.0847 
     88 H88        21.4906  -22.5797  -37.6213 H         1 UNK         0.0847 
     89 H89        20.0568  -23.4110  -38.1975 H         1 UNK         0.0847 
     90 H90        23.3870  -25.1020  -40.3025 H         1 UNK         0.3040 
     91 H91        25.9475  -24.3952  -38.9362 H         1 UNK         0.1015 
     92 H92        24.9954  -23.2455  -41.6152 H         1 UNK         0.0786 
     93 H93        26.6016  -23.0365  -40.9277 H         1 UNK         0.0786 
     94 H94        25.2073  -22.3423  -40.1160 H         1 UNK         0.0786 
     95 H95        24.3199  -25.9775  -41.7045 H         1 UNK         0.3172 
     96 H96        26.7628  -27.4763  -42.4357 H         1 UNK         0.0595 
     97 H97        23.9593  -27.4907  -43.6869 H         1 UNK         0.0839 
     98 H98        25.4324  -28.1292  -44.3955 H         1 UNK         0.0839 
     99 H99        25.2500  -26.3986  -44.1914 H         1 UNK         0.0839 
    100 H100       26.0784  -29.8388  -43.1060 H         1 UNK         0.2998 
    101 H101       25.4525  -31.3576  -40.7625 H         1 UNK         0.0822 
    102 H102       25.6297  -33.2902  -42.3535 H         1 UNK         0.0787 
    103 H103       25.6384  -32.1836  -43.7182 H         1 UNK         0.0787 
    104 H104       26.9748  -32.1828  -42.5655 H         1 UNK         0.0787 
    105 H105       23.7242  -32.8503  -40.4755 H         1 UNK         0.3055 
    106 H106       21.1449  -31.7935  -40.7409 H         1 UNK         0.1106 
    107 H107       20.4123  -34.0211  -39.8631 H         1 UNK         0.0828 
    108 H108       22.0220  -34.6688  -40.1418 H         1 UNK         0.0828 
    109 H109       21.7746  -33.3846  -38.9565 H         1 UNK         0.0828 
    110 H110       19.7274  -31.7555  -42.3383 H         1 UNK         0.2931 
    111 H111       18.6195  -32.0574  -44.1739 H         1 UNK         0.0412 
    112 H112       21.6732  -31.2983  -44.3247 H         1 UNK         0.3472 
    113 H113       21.8916  -31.3229  -46.0583 H         1 UNK         0.3472 
    114 H114       18.1369  -34.2229  -45.1620 H         1 UNK         0.0970 
    115 H115       19.5936  -34.9240  -44.5183 H         1 UNK         0.0970 
    116 H116       15.5795  -34.4754  -42.2769 H         1 UNK         0.0612 
    117 H117       15.8109  -34.5942  -44.0060 H         1 UNK         0.0612 
@<TRIPOS>BOND
     1    1    2 1    
     2    1   62 1    
     3    1   63 1    
     4    1   64 1    
     5    2    3 2    
     6    2    4 am   BACKBONE|DICT|INTERRES
     7    4    5 1    
     8    4   65 1    
     9    5    6 1    
    10    5   25 1    
    11    5   66 1    
    12    6    7 1    
    13    6   67 1    
    14    6   68 1    
    15    7    8 1    
    16    8    9 1    
    17    8   69 1    
    18    8   70 1    
    19    9   10 ar   
    20    9   14 ar   
    21   10   11 ar   
    22   10   71 1    
    23   11   12 ar   
    24   11   61 1    
    25   12   13 ar   
    26   12   72 1    
    27   13   14 ar   
    28   13   15 1    
    29   14   73 1    
    30   15   16 1    
    31   15   74 1    
    32   15   75 1    
    33   16   17 1    
    34   17   18 1    
    35   17   76 1    
    36   17   77 1    
    37   18   19 1    
    38   18   27 1    
    39   18   78 1    
    40   19   20 am   BACKBONE|DICT|INTERRES
    41   19   79 1    
    42   20   21 2    
    43   20   22 1    
    44   22   23 1    
    45   22   24 1    
    46   22   80 1    
    47   23   81 1    
    48   23   82 1    
    49   23   83 1    
    50   24   25 am   BACKBONE|DICT|INTERRES
    51   24   84 1    
    52   25   26 2    
    53   27   28 2    
    54   27   29 am   BACKBONE|DICT|INTERRES
    55   29   30 1    
    56   29   85 1    
    57   30   31 1    
    58   30   32 1    
    59   30   86 1    
    60   31   87 1    
    61   31   88 1    
    62   31   89 1    
    63   32   33 2    
    64   32   34 am   BACKBONE|DICT|INTERRES
    65   34   35 1    
    66   34   90 1    
    67   35   36 1    
    68   35   37 1    
    69   35   91 1    
    70   36   92 1    
    71   36   93 1    
    72   36   94 1    
    73   37   38 2    
    74   37   39 am   BACKBONE|DICT|INTERRES
    75   39   40 1    
    76   39   95 1    
    77   40   41 1    
    78   40   42 1    
    79   40   96 1    
    80   41   97 1    
    81   41   98 1    
    82   41   99 1    
    83   42   43 2    
    84   42   44 am   BACKBONE|DICT|INTERRES
    85   44   45 1    
    86   44  100 1    
    87   45   46 1    
    88   45   47 1    
    89   45  101 1    
    90   46  102 1    
    91   46  103 1    
    92   46  104 1    
    93   47   48 2    
    94   47   49 am   BACKBONE|DICT|INTERRES
    95   49   50 1    
    96   49  105 1    
    97   50   51 1    
    98   50   52 1    
    99   50  106 1    
   100   51  107 1    
   101   51  108 1    
   102   51  109 1    
   103   52   53 2    
   104   52   54 am   BACKBONE|DICT|INTERRES
   105   54   55 1    
   106   54  110 1    
   107   55   56 1    
   108   55   59 1    
   109   55  111 1    
   110   56   57 am   BACKBONE|DICT|INTERRES
   111   56   58 2    
   112   57  112 1    
   113   57  113 1    
   114   59   60 1    
   115   59  114 1    
   116   59  115 1    
   117   60   61 1    
   118   61  116 1    
   119   61  117 1    
@<TRIPOS>SUBSTRUCTURE
     1 UNK         1 GROUP             0       ****    0 ROOT    
