@<TRIPOS>MOLECULE
3R8
117   119    1
SMALL
USER_CHARGES


@<TRIPOS>ATOM
      1 CA         12.4557  -24.2982  -46.0923 C.3       0 UNK        -0.2013 
      2 C          13.9481  -24.5898  -46.0390 C.2       0 UNK         0.4866 
      3 O          14.7286  -23.9122  -46.7091 O.2       0 UNK        -0.5176 
      4 N          14.3496  -25.5982  -45.2558 N.am      1 UNK        -0.4884 
      5 CA         15.7483  -25.9847  -45.0452 C.3       1 UNK         0.0853 
      6 C6         15.8640  -27.3729  -44.3692 C.3       10 UNK        -0.0849 
      7 S7         15.4043  -28.7441  -45.4784 S.3       10 UNK        -0.2776 
      8 C8         15.6958  -30.1939  -44.4050 C.3       10 UNK         0.0316 
      9 C9         17.0864  -30.1874  -43.7805 C.ar      10 UNK        -0.0863 
     10 C10        18.2172  -30.4226  -44.5685 C.ar      10 UNK        -0.1009 
     11 C11        19.4980  -30.3654  -44.0097 C.ar      10 UNK        -0.0712 
     12 C12        19.6383  -30.0821  -42.6465 C.ar      10 UNK        -0.0894 
     13 C13        18.5172  -29.8526  -41.8467 C.ar      10 UNK        -0.0745 
     14 C14        17.2432  -29.9101  -42.4185 C.ar      10 UNK        -0.0972 
     15 C15        18.6759  -29.5437  -40.3658 C.3       10 UNK         0.0209 
     16 S16        18.7320  -27.7483  -40.0605 S.3       10 UNK        -0.2568 
     17 C17        20.5145  -27.3709  -40.1988 C.3       10 UNK        -0.0983 
     18 CA         20.9450  -26.8463  -41.5948 C.3       3 UNK         0.0876 
     19 N          20.1241  -25.7028  -42.0178 N.am      3 UNK        -0.4424 
     20 C          19.8703  -25.3639  -43.2851 C.2       2 UNK         0.4918 
     21 O          20.4233  -25.8868  -44.2555 O.2       2 UNK        -0.4875 
     22 CA         18.8103  -24.2852  -43.5216 C.3       2 UNK         0.0481 
     23 CB         19.4185  -23.0375  -44.1825 C.3       2 UNK        -0.1831 
     24 N          17.8278  -24.8930  -44.4097 N.am      2 UNK        -0.4498 
     25 C          16.5097  -24.9478  -44.1944 C.2       1 UNK         0.5027 
     26 O          15.9199  -24.2979  -43.3265 O.2       1 UNK        -0.4969 
     27 C          22.4654  -26.5570  -41.6699 C.2       3 UNK         0.5005 
     28 O          23.2099  -26.9304  -40.7607 O.2       3 UNK        -0.5279 
     29 N          22.9013  -25.8853  -42.7454 N.am      4 UNK        -0.4463 
     30 CA         24.2545  -25.3588  -42.9493 C.3       4 UNK         0.0283 
     31 CB         24.2799  -24.5123  -44.2317 C.3       4 UNK        -0.1875 
     32 C          25.3596  -26.4267  -42.9895 C.2       4 UNK         0.4949 
     33 O          26.4734  -26.1567  -42.5396 O.2       4 UNK        -0.5039 
     34 N          25.0394  -27.6284  -43.4872 N.am      5 UNK        -0.4663 
     35 CA         25.9459  -28.7802  -43.5633 C.3       5 UNK         0.0242 
     36 CB         25.4797  -29.7070  -44.7007 C.3       5 UNK        -0.1982 
     37 C          26.0738  -29.5129  -42.2111 C.2       5 UNK         0.5017 
     38 O          25.8840  -30.7286  -42.1477 O.2       5 UNK        -0.5012 
     39 N          26.3557  -28.7482  -41.1446 N.am      6 UNK        -0.4439 
     40 CA         26.5512  -29.1694  -39.7482 C.3       6 UNK         0.0297 
     41 CB         27.8937  -29.9181  -39.6111 C.3       6 UNK        -0.2006 
     42 C          25.3765  -29.9743  -39.1489 C.2       6 UNK         0.4892 
     43 O          25.5889  -30.7604  -38.2241 O.2       6 UNK        -0.5089 
     44 N          24.1701  -29.7845  -39.7056 N.am      7 UNK        -0.4243 
     45 CA         22.9408  -30.5453  -39.4527 C.3       7 UNK         0.0196 
     46 CB         22.3774  -30.2195  -38.0537 C.3       7 UNK        -0.2007 
     47 C          23.0651  -32.0639  -39.7069 C.2       7 UNK         0.5020 
     48 O          22.2949  -32.8379  -39.1378 O.2       7 UNK        -0.5147 
     49 N          23.9919  -32.4808  -40.5822 N.am      8 UNK        -0.4734 
     50 CA         24.2233  -33.8803  -40.9632 C.3       8 UNK         0.0238 
     51 CB         25.7137  -34.0575  -41.3091 C.3       8 UNK        -0.1912 
     52 C          23.2935  -34.3254  -42.1114 C.2       8 UNK         0.5038 
     53 O          23.7381  -35.0010  -43.0417 O.2       8 UNK        -0.5046 
     54 N          22.0249  -33.9156  -42.0377 N.am      9 UNK        -0.4200 
     55 CA         20.9872  -34.0527  -43.0636 C.3       9 UNK         0.0839 
     56 C          19.5950  -33.6942  -42.4787 C.2       9 UNK         0.5513 
     57 N          18.5266  -33.9260  -43.2293 N.am      9 UNK        -0.7519 
     58 O          19.4683  -33.2325  -41.3458 O.2       9 UNK        -0.4960 
     59 C59        21.3225  -33.2934  -44.3860 C.3       10 UNK        -0.0876 
     60 S60        22.0053  -31.6103  -44.1609 S.3       10 UNK        -0.2414 
     61 C61        20.7220  -30.5495  -44.8984 C.3       10 UNK         0.0169 
     62 H62        12.0895  -24.4003  -47.1135 H         1 UNK         0.0903 
     63 H63        11.8845  -24.9760  -45.4582 H         1 UNK         0.0903 
     64 H64        12.2608  -23.2788  -45.7604 H         1 UNK         0.0903 
     65 H65        13.6678  -26.1158  -44.7199 H         1 UNK         0.3096 
     66 H66        16.2321  -26.0303  -46.0241 H         1 UNK         0.1121 
     67 H67        15.2561  -27.4205  -43.4635 H         1 UNK         0.0849 
     68 H68        16.8939  -27.5490  -44.0522 H         1 UNK         0.0849 
     69 H69        14.9267  -30.2219  -43.6315 H         1 UNK         0.0865 
     70 H70        15.5677  -31.1038  -44.9930 H         1 UNK         0.0865 
     71 H71        18.0969  -30.6218  -45.6247 H         1 UNK         0.1346 
     72 H72        20.6241  -30.0369  -42.2066 H         1 UNK         0.1412 
     73 H73        16.3743  -29.7200  -41.8032 H         1 UNK         0.1426 
     74 H74        19.5635  -30.0321  -39.9612 H         1 UNK         0.0716 
     75 H75        17.8310  -29.9621  -39.8168 H         1 UNK         0.0716 
     76 H76        20.7496  -26.6289  -39.4334 H         1 UNK         0.0695 
     77 H77        21.0813  -28.2597  -39.9286 H         1 UNK         0.0695 
     78 H78        20.7720  -27.6502  -42.3103 H         1 UNK         0.0983 
     79 H79        19.6387  -25.2184  -41.2765 H         1 UNK         0.3095 
     80 H80        18.3572  -24.0045  -42.5683 H         1 UNK         0.0454 
     81 H81        20.1706  -22.5821  -43.5372 H         1 UNK         0.0851 
     82 H82        19.9012  -23.2737  -45.1318 H         1 UNK         0.0851 
     83 H83        18.6557  -22.2831  -44.3754 H         1 UNK         0.0851 
     84 H84        18.2324  -25.4919  -45.1186 H         1 UNK         0.2976 
     85 H85        22.2131  -25.6756  -43.4622 H         1 UNK         0.3116 
     86 H86        24.4743  -24.7014  -42.1055 H         1 UNK         0.0646 
     87 H87        25.2696  -24.0843  -44.3982 H         1 UNK         0.0847 
     88 H88        23.5762  -23.6816  -44.1745 H         1 UNK         0.0847 
     89 H89        24.0290  -25.1051  -45.1123 H         1 UNK         0.0847 
     90 H90        24.0923  -27.7736  -43.8056 H         1 UNK         0.3040 
     91 H91        26.9462  -28.4245  -43.8210 H         1 UNK         0.1015 
     92 H92        25.4544  -29.1826  -45.6560 H         1 UNK         0.0786 
     93 H93        24.4842  -30.1058  -44.5102 H         1 UNK         0.0786 
     94 H94        26.1543  -30.5564  -44.8174 H         1 UNK         0.0786 
     95 H95        26.4614  -27.7537  -41.3249 H         1 UNK         0.3172 
     96 H96        26.6185  -28.2524  -39.1612 H         1 UNK         0.0595 
     97 H97        28.7189  -29.3329  -40.0167 H         1 UNK         0.0839 
     98 H98        27.8737  -30.8764  -40.1317 H         1 UNK         0.0839 
     99 H99        28.1282  -30.1206  -38.5652 H         1 UNK         0.0839 
    100 H100       24.1020  -29.0673  -40.4172 H         1 UNK         0.2998 
    101 H101       22.2208  -30.1972  -40.1925 H         1 UNK         0.0822 
    102 H102       22.2830  -29.1441  -37.9034 H         1 UNK         0.0787 
    103 H103       21.3853  -30.6521  -37.9188 H         1 UNK         0.0787 
    104 H104       23.0151  -30.6135  -37.2618 H         1 UNK         0.0787 
    105 H105       24.5754  -31.7908  -41.0484 H         1 UNK         0.3055 
    106 H106       24.0032  -34.5257  -40.1099 H         1 UNK         0.1106 
    107 H107       25.9914  -33.4832  -42.1939 H         1 UNK         0.0828 
    108 H108       26.3531  -33.7349  -40.4872 H         1 UNK         0.0828 
    109 H109       25.9490  -35.1033  -41.5107 H         1 UNK         0.0828 
    110 H110       21.7208  -33.4164  -41.2092 H         1 UNK         0.2931 
    111 H111       20.9321  -35.1178  -43.2957 H         1 UNK         0.0412 
    112 H112       17.6181  -33.6917  -42.8620 H         1 UNK         0.3472 
    113 H113       18.6070  -34.3226  -44.1519 H         1 UNK         0.3472 
    114 H114       20.4605  -33.2581  -45.0537 H         1 UNK         0.0970 
    115 H115       22.0743  -33.8629  -44.9338 H         1 UNK         0.0970 
    116 H116       20.4441  -30.9518  -45.8737 H         1 UNK         0.0612 
    117 H117       21.1561  -29.5662  -45.0842 H         1 UNK         0.0612 
@<TRIPOS>BOND
     1    1    2 1    
     2    1   62 1    
     3    1   63 1    
     4    1   64 1    
     5    2    3 2    
     6    2    4 am   BACKBONE|DICT|INTERRES
     7    4    5 1    
     8    4   65 1    
     9    5    6 1    
    10    5   25 1    
    11    5   66 1    
    12    6    7 1    
    13    6   67 1    
    14    6   68 1    
    15    7    8 1    
    16    8    9 1    
    17    8   69 1    
    18    8   70 1    
    19    9   10 ar   
    20    9   14 ar   
    21   10   11 ar   
    22   10   71 1    
    23   11   12 ar   
    24   11   61 1    
    25   12   13 ar   
    26   12   72 1    
    27   13   14 ar   
    28   13   15 1    
    29   14   73 1    
    30   15   16 1    
    31   15   74 1    
    32   15   75 1    
    33   16   17 1    
    34   17   18 1    
    35   17   76 1    
    36   17   77 1    
    37   18   19 1    
    38   18   27 1    
    39   18   78 1    
    40   19   20 am   BACKBONE|DICT|INTERRES
    41   19   79 1    
    42   20   21 2    
    43   20   22 1    
    44   22   23 1    
    45   22   24 1    
    46   22   80 1    
    47   23   81 1    
    48   23   82 1    
    49   23   83 1    
    50   24   25 am   BACKBONE|DICT|INTERRES
    51   24   84 1    
    52   25   26 2    
    53   27   28 2    
    54   27   29 am   BACKBONE|DICT|INTERRES
    55   29   30 1    
    56   29   85 1    
    57   30   31 1    
    58   30   32 1    
    59   30   86 1    
    60   31   87 1    
    61   31   88 1    
    62   31   89 1    
    63   32   33 2    
    64   32   34 am   BACKBONE|DICT|INTERRES
    65   34   35 1    
    66   34   90 1    
    67   35   36 1    
    68   35   37 1    
    69   35   91 1    
    70   36   92 1    
    71   36   93 1    
    72   36   94 1    
    73   37   38 2    
    74   37   39 am   BACKBONE|DICT|INTERRES
    75   39   40 1    
    76   39   95 1    
    77   40   41 1    
    78   40   42 1    
    79   40   96 1    
    80   41   97 1    
    81   41   98 1    
    82   41   99 1    
    83   42   43 2    
    84   42   44 am   BACKBONE|DICT|INTERRES
    85   44   45 1    
    86   44  100 1    
    87   45   46 1    
    88   45   47 1    
    89   45  101 1    
    90   46  102 1    
    91   46  103 1    
    92   46  104 1    
    93   47   48 2    
    94   47   49 am   BACKBONE|DICT|INTERRES
    95   49   50 1    
    96   49  105 1    
    97   50   51 1    
    98   50   52 1    
    99   50  106 1    
   100   51  107 1    
   101   51  108 1    
   102   51  109 1    
   103   52   53 2    
   104   52   54 am   BACKBONE|DICT|INTERRES
   105   54   55 1    
   106   54  110 1    
   107   55   56 1    
   108   55   59 1    
   109   55  111 1    
   110   56   57 am   BACKBONE|DICT|INTERRES
   111   56   58 2    
   112   57  112 1    
   113   57  113 1    
   114   59   60 1    
   115   59  114 1    
   116   59  115 1    
   117   60   61 1    
   118   61  116 1    
   119   61  117 1    
@<TRIPOS>SUBSTRUCTURE
     1 UNK         1 GROUP             0       ****    0 ROOT    
