@<TRIPOS>MOLECULE
3R8
117   119    1
SMALL
USER_CHARGES


@<TRIPOS>ATOM
      1 CA         16.1133  -24.6080  -48.6835 C.3       0 UNK        -0.2013 
      2 C          17.4235  -25.1057  -48.0914 C.2       0 UNK         0.4866 
      3 O          18.4716  -24.5060  -48.3328 O.2       0 UNK        -0.5176 
      4 N          17.3750  -26.2018  -47.3235 N.am      1 UNK        -0.4884 
      5 CA         18.5239  -26.7778  -46.6178 C.3       1 UNK         0.0853 
      6 C6         18.2338  -28.2396  -46.1835 C.3       10 UNK        -0.0849 
      7 S7         19.7235  -29.2941  -46.1157 S.3       10 UNK        -0.2776 
      8 C8         20.3292  -29.0788  -44.4119 C.3       10 UNK         0.0316 
      9 C9         19.4486  -29.7399  -43.3621 C.ar      10 UNK        -0.0863 
     10 C10        19.7361  -31.0352  -42.9288 C.ar      10 UNK        -0.1009 
     11 C11        18.9939  -31.6300  -41.9058 C.ar      10 UNK        -0.0712 
     12 C12        17.9554  -30.9127  -41.3049 C.ar      10 UNK        -0.0894 
     13 C13        17.6607  -29.6103  -41.7233 C.ar      10 UNK        -0.0745 
     14 C14        18.4036  -29.0349  -42.7583 C.ar      10 UNK        -0.0972 
     15 C15        16.5483  -28.8216  -41.0476 C.3       10 UNK         0.0209 
     16 S16        17.1898  -27.7653  -39.7067 S.3       10 UNK        -0.2568 
     17 C17        17.7527  -26.2799  -40.6084 C.3       10 UNK        -0.0983 
     18 CA         19.2771  -26.2733  -40.8993 C.3       3 UNK         0.0876 
     19 N          19.5630  -25.5685  -42.1589 N.am      3 UNK        -0.4424 
     20 C          20.7294  -25.5663  -42.8142 C.2       2 UNK         0.4918 
     21 O          21.7382  -26.1430  -42.4049 O.2       2 UNK        -0.4875 
     22 CA         20.7646  -24.8069  -44.1537 C.3       2 UNK         0.0481 
     23 CB         22.1966  -24.3842  -44.5292 C.3       2 UNK        -0.1831 
     24 N          20.2009  -25.6032  -45.2477 N.am      2 UNK        -0.4498 
     25 C          18.9008  -25.8846  -45.4156 C.2       1 UNK         0.5027 
     26 O          18.0129  -25.4838  -44.6576 O.2       1 UNK        -0.4969 
     27 C          20.1099  -25.7782  -39.6924 C.2       3 UNK         0.5005 
     28 O          20.2366  -26.5033  -38.7056 O.2       3 UNK        -0.5279 
     29 N          20.7035  -24.5790  -39.7991 N.am      4 UNK        -0.4463 
     30 CA         21.6965  -24.0554  -38.8560 C.3       4 UNK         0.0283 
     31 CB         21.9803  -22.5798  -39.1796 C.3       4 UNK        -0.1875 
     32 C          23.0075  -24.8673  -38.8497 C.2       4 UNK         0.4949 
     33 O          23.6415  -24.9730  -37.7997 O.2       4 UNK        -0.5039 
     34 N          23.3810  -25.4285  -40.0087 N.am      5 UNK        -0.4663 
     35 CA         24.5135  -26.3435  -40.1639 C.3       5 UNK         0.0242 
     36 CB         25.2261  -26.0543  -41.4965 C.3       5 UNK        -0.1982 
     37 C          24.0452  -27.8053  -40.1088 C.2       5 UNK         0.5017 
     38 O          24.6849  -28.6198  -39.4440 O.2       5 UNK        -0.5012 
     39 N          22.9421  -28.0997  -40.8155 N.am      6 UNK        -0.4439 
     40 CA         22.2737  -29.4002  -40.9507 C.3       6 UNK         0.0297 
     41 CB         21.6687  -29.8580  -39.6082 C.3       6 UNK        -0.2006 
     42 C          23.1407  -30.4921  -41.6117 C.2       6 UNK         0.4892 
     43 O          22.9123  -31.6791  -41.3781 O.2       6 UNK        -0.5089 
     44 N          24.1105  -30.0803  -42.4410 N.am      7 UNK        -0.4243 
     45 CA         25.1832  -30.9141  -42.9997 C.3       7 UNK         0.0196 
     46 CB         26.1027  -30.0263  -43.8543 C.3       7 UNK        -0.2007 
     47 C          24.7403  -32.1528  -43.8026 C.2       7 UNK         0.5020 
     48 O          25.5157  -33.1033  -43.9081 O.2       7 UNK        -0.5147 
     49 N          23.5204  -32.1309  -44.3549 N.am      8 UNK        -0.4734 
     50 CA         22.9505  -33.2327  -45.1347 C.3       8 UNK         0.0238 
     51 CB         21.8053  -32.6990  -46.0132 C.3       8 UNK        -0.1912 
     52 C          22.4779  -34.4342  -44.2915 C.2       8 UNK         0.5038 
     53 O          22.2893  -35.5069  -44.8682 O.2       8 UNK        -0.5046 
     54 N          22.2802  -34.2597  -42.9759 N.am      9 UNK        -0.4200 
     55 CA         21.7532  -35.3098  -42.0822 C.3       9 UNK         0.0839 
     56 C          22.1577  -35.1955  -40.5856 C.2       9 UNK         0.5513 
     57 N          22.7862  -34.1245  -40.1230 N.am      9 UNK        -0.7519 
     58 O          21.9216  -36.1278  -39.8212 O.2       9 UNK        -0.4960 
     59 C59        20.2331  -35.6249  -42.2858 C.3       10 UNK        -0.0876 
     60 S60        19.1459  -34.2386  -42.7815 S.3       10 UNK        -0.2414 
     61 C61        19.3551  -33.0308  -41.4366 C.3       10 UNK         0.0169 
     62 H62        15.2710  -25.2386  -48.3996 H         1 UNK         0.0903 
     63 H63        15.9083  -23.5941  -48.3407 H         1 UNK         0.0903 
     64 H64        16.1745  -24.5941  -49.7714 H         1 UNK         0.0903 
     65 H65        16.4807  -26.6302  -47.1302 H         1 UNK         0.3096 
     66 H66        19.3586  -26.7852  -47.3229 H         1 UNK         0.1121 
     67 H67        17.6649  -28.2909  -45.2561 H         1 UNK         0.0849 
     68 H68        17.5893  -28.7139  -46.9256 H         1 UNK         0.0849 
     69 H69        21.3358  -29.4951  -44.3579 H         1 UNK         0.0865 
     70 H70        20.4467  -28.0244  -44.1834 H         1 UNK         0.0865 
     71 H71        20.5570  -31.5827  -43.3666 H         1 UNK         0.1346 
     72 H72        17.3869  -31.3605  -40.5014 H         1 UNK         0.1412 
     73 H73        18.1868  -28.0221  -43.0672 H         1 UNK         0.1426 
     74 H74        15.8148  -29.5093  -40.6238 H         1 UNK         0.0716 
     75 H75        16.0057  -28.2215  -41.7794 H         1 UNK         0.0716 
     76 H76        17.4577  -25.3938  -40.0430 H         1 UNK         0.0695 
     77 H77        17.1858  -26.2235  -41.5390 H         1 UNK         0.0695 
     78 H78        19.6007  -27.3037  -41.0563 H         1 UNK         0.0983 
     79 H79        18.7749  -25.1227  -42.6133 H         1 UNK         0.3095 
     80 H80        20.1693  -23.8983  -44.0414 H         1 UNK         0.0454 
     81 H81        22.6497  -23.7891  -43.7351 H         1 UNK         0.0851 
     82 H82        22.8448  -25.2451  -44.6986 H         1 UNK         0.0851 
     83 H83        22.2063  -23.7747  -45.4329 H         1 UNK         0.0851 
     84 H84        20.8656  -25.9801  -45.9085 H         1 UNK         0.2976 
     85 H85        20.5242  -24.0308  -40.6276 H         1 UNK         0.3116 
     86 H86        21.2687  -24.1092  -37.8525 H         1 UNK         0.0646 
     87 H87        22.6984  -22.1586  -38.4746 H         1 UNK         0.0847 
     88 H88        21.0747  -21.9765  -39.1144 H         1 UNK         0.0847 
     89 H89        22.3971  -22.4562  -40.1800 H         1 UNK         0.0847 
     90 H90        22.7801  -25.3160  -40.8160 H         1 UNK         0.3040 
     91 H91        25.2330  -26.1921  -39.3558 H         1 UNK         0.1015 
     92 H92        25.6208  -25.0383  -41.5182 H         1 UNK         0.0786 
     93 H93        24.5599  -26.1699  -42.3524 H         1 UNK         0.0786 
     94 H94        26.0690  -26.7312  -41.6435 H         1 UNK         0.0786 
     95 H95        22.5229  -27.3476  -41.3606 H         1 UNK         0.3172 
     96 H96        21.4449  -29.2192  -41.6302 H         1 UNK         0.0595 
     97 H97        21.0308  -29.0869  -39.1771 H         1 UNK         0.0839 
     98 H98        22.4410  -30.1043  -38.8793 H         1 UNK         0.0839 
     99 H99        21.0501  -30.7465  -39.7404 H         1 UNK         0.0839 
    100 H100       24.2005  -29.0859  -42.5871 H         1 UNK         0.2998 
    101 H101       25.7635  -31.2856  -42.1525 H         1 UNK         0.0822 
    102 H102       25.5674  -29.5852  -44.6961 H         1 UNK         0.0787 
    103 H103       26.9347  -30.6019  -44.2629 H         1 UNK         0.0787 
    104 H104       26.5329  -29.2154  -43.2659 H         1 UNK         0.0787 
    105 H105       22.9503  -31.3103  -44.2211 H         1 UNK         0.3055 
    106 H106       23.7297  -33.6085  -45.8023 H         1 UNK         0.1106 
    107 H107       20.9556  -32.3578  -45.4236 H         1 UNK         0.0828 
    108 H108       22.1341  -31.8699  -46.6401 H         1 UNK         0.0828 
    109 H109       21.4357  -33.4783  -46.6811 H         1 UNK         0.0828 
    110 H110       22.4809  -33.3613  -42.5531 H         1 UNK         0.2931 
    111 H111       22.2843  -36.2187  -42.3738 H         1 UNK         0.0412 
    112 H112       23.0463  -34.1076  -39.1502 H         1 UNK         0.3472 
    113 H113       22.9314  -33.2878  -40.6840 H         1 UNK         0.3472 
    114 H114       19.7966  -36.1097  -41.4106 H         1 UNK         0.0970 
    115 H115       20.1460  -36.3672  -43.0806 H         1 UNK         0.0970 
    116 H116       20.3890  -33.0115  -41.0978 H         1 UNK         0.0612 
    117 H117       18.7491  -33.3347  -40.5820 H         1 UNK         0.0612 
@<TRIPOS>BOND
     1    1    2 1    
     2    1   62 1    
     3    1   63 1    
     4    1   64 1    
     5    2    3 2    
     6    2    4 am   BACKBONE|DICT|INTERRES
     7    4    5 1    
     8    4   65 1    
     9    5    6 1    
    10    5   25 1    
    11    5   66 1    
    12    6    7 1    
    13    6   67 1    
    14    6   68 1    
    15    7    8 1    
    16    8    9 1    
    17    8   69 1    
    18    8   70 1    
    19    9   10 ar   
    20    9   14 ar   
    21   10   11 ar   
    22   10   71 1    
    23   11   12 ar   
    24   11   61 1    
    25   12   13 ar   
    26   12   72 1    
    27   13   14 ar   
    28   13   15 1    
    29   14   73 1    
    30   15   16 1    
    31   15   74 1    
    32   15   75 1    
    33   16   17 1    
    34   17   18 1    
    35   17   76 1    
    36   17   77 1    
    37   18   19 1    
    38   18   27 1    
    39   18   78 1    
    40   19   20 am   BACKBONE|DICT|INTERRES
    41   19   79 1    
    42   20   21 2    
    43   20   22 1    
    44   22   23 1    
    45   22   24 1    
    46   22   80 1    
    47   23   81 1    
    48   23   82 1    
    49   23   83 1    
    50   24   25 am   BACKBONE|DICT|INTERRES
    51   24   84 1    
    52   25   26 2    
    53   27   28 2    
    54   27   29 am   BACKBONE|DICT|INTERRES
    55   29   30 1    
    56   29   85 1    
    57   30   31 1    
    58   30   32 1    
    59   30   86 1    
    60   31   87 1    
    61   31   88 1    
    62   31   89 1    
    63   32   33 2    
    64   32   34 am   BACKBONE|DICT|INTERRES
    65   34   35 1    
    66   34   90 1    
    67   35   36 1    
    68   35   37 1    
    69   35   91 1    
    70   36   92 1    
    71   36   93 1    
    72   36   94 1    
    73   37   38 2    
    74   37   39 am   BACKBONE|DICT|INTERRES
    75   39   40 1    
    76   39   95 1    
    77   40   41 1    
    78   40   42 1    
    79   40   96 1    
    80   41   97 1    
    81   41   98 1    
    82   41   99 1    
    83   42   43 2    
    84   42   44 am   BACKBONE|DICT|INTERRES
    85   44   45 1    
    86   44  100 1    
    87   45   46 1    
    88   45   47 1    
    89   45  101 1    
    90   46  102 1    
    91   46  103 1    
    92   46  104 1    
    93   47   48 2    
    94   47   49 am   BACKBONE|DICT|INTERRES
    95   49   50 1    
    96   49  105 1    
    97   50   51 1    
    98   50   52 1    
    99   50  106 1    
   100   51  107 1    
   101   51  108 1    
   102   51  109 1    
   103   52   53 2    
   104   52   54 am   BACKBONE|DICT|INTERRES
   105   54   55 1    
   106   54  110 1    
   107   55   56 1    
   108   55   59 1    
   109   55  111 1    
   110   56   57 am   BACKBONE|DICT|INTERRES
   111   56   58 2    
   112   57  112 1    
   113   57  113 1    
   114   59   60 1    
   115   59  114 1    
   116   59  115 1    
   117   60   61 1    
   118   61  116 1    
   119   61  117 1    
@<TRIPOS>SUBSTRUCTURE
     1 UNK         1 GROUP             0       ****    0 ROOT    
