@<TRIPOS>MOLECULE
3R8
117   119    1
SMALL
USER_CHARGES


@<TRIPOS>ATOM
      1 CA         16.6938  -23.7153  -40.6528 C.3       0 UNK        -0.2013 
      2 C          16.8493  -23.9187  -42.1529 C.2       0 UNK         0.4866 
      3 O          16.9924  -22.9435  -42.8921 O.2       0 UNK        -0.5176 
      4 N          16.8125  -25.1769  -42.6086 N.am      1 UNK        -0.4884 
      5 CA         17.0003  -25.5695  -44.0106 C.3       1 UNK         0.0853 
      6 C6         16.5654  -27.0364  -44.2622 C.3       10 UNK        -0.0849 
      7 S7         14.8572  -27.3969  -43.7163 S.3       10 UNK        -0.2776 
      8 C8         14.3522  -28.7510  -44.8357 C.3       10 UNK         0.0316 
      9 C9         15.4236  -29.8255  -44.9759 C.ar      10 UNK        -0.0863 
     10 C10        15.8433  -30.5597  -43.8609 C.ar      10 UNK        -0.1009 
     11 C11        16.8993  -31.4694  -43.9705 C.ar      10 UNK        -0.0712 
     12 C12        17.4921  -31.6905  -45.2151 C.ar      10 UNK        -0.0894 
     13 C13        17.0963  -30.9458  -46.3301 C.ar      10 UNK        -0.0745 
     14 C14        16.0479  -30.0304  -46.2108 C.ar      10 UNK        -0.0972 
     15 C15        17.8850  -31.0467  -47.6285 C.3       10 UNK         0.0209 
     16 S16        19.0926  -29.6815  -47.7892 S.3       10 UNK        -0.2568 
     17 C17        20.0180  -29.8291  -46.2199 C.3       10 UNK        -0.0983 
     18 CA         20.9976  -28.6730  -45.9052 C.3       3 UNK         0.0876 
     19 N          20.3463  -27.3722  -46.0654 N.am      3 UNK        -0.4424 
     20 C          20.9599  -26.1910  -46.1961 C.2       2 UNK         0.4918 
     21 O          22.1826  -26.0509  -46.2022 O.2       2 UNK        -0.4875 
     22 CA         20.0483  -24.9518  -46.3167 C.3       2 UNK         0.0481 
     23 CB         19.9063  -24.5387  -47.7902 C.3       2 UNK        -0.1831 
     24 N          18.7092  -25.1229  -45.7297 N.am      2 UNK        -0.4498 
     25 C          18.4728  -25.3811  -44.4346 C.2       1 UNK         0.5027 
     26 O          19.3726  -25.5345  -43.6051 O.2       1 UNK        -0.4969 
     27 C          21.5741  -28.9063  -44.4872 C.2       3 UNK         0.5005 
     28 O          22.2025  -29.9471  -44.2890 O.2       3 UNK        -0.5279 
     29 N          21.2989  -28.0083  -43.5215 N.am      4 UNK        -0.4463 
     30 CA         21.5659  -28.1805  -42.0849 C.3       4 UNK         0.0283 
     31 CB         21.0873  -26.9453  -41.3066 C.3       4 UNK        -0.1875 
     32 C          23.0193  -28.5121  -41.7107 C.2       4 UNK         0.4949 
     33 O          23.2231  -29.2695  -40.7628 O.2       4 UNK        -0.5039 
     34 N          23.9849  -27.9426  -42.4493 N.am      5 UNK        -0.4663 
     35 CA         25.4244  -28.2518  -42.4264 C.3       5 UNK         0.0242 
     36 CB         25.6704  -29.5855  -43.1614 C.3       5 UNK        -0.1982 
     37 C          26.0763  -28.2254  -41.0260 C.2       5 UNK         0.5017 
     38 O          26.9314  -29.0630  -40.7345 O.2       5 UNK        -0.5012 
     39 N          25.6529  -27.2638  -40.1906 N.am      6 UNK        -0.4439 
     40 CA         26.0410  -27.0791  -38.7856 C.3       6 UNK         0.0297 
     41 CB         27.5319  -26.6939  -38.6654 C.3       6 UNK        -0.2006 
     42 C          25.6510  -28.2859  -37.9059 C.2       6 UNK         0.4892 
     43 O          26.5034  -28.8587  -37.2245 O.2       6 UNK        -0.5089 
     44 N          24.3544  -28.6284  -37.9446 N.am      7 UNK        -0.4243 
     45 CA         23.6921  -29.7246  -37.2254 C.3       7 UNK         0.0196 
     46 CB         23.7963  -29.5439  -35.6948 C.3       7 UNK        -0.2007 
     47 C          24.1445  -31.1149  -37.7111 C.2       7 UNK         0.5020 
     48 O          24.4373  -31.9959  -36.9007 O.2       7 UNK        -0.5147 
     49 N          24.1620  -31.2911  -39.0352 N.am      8 UNK        -0.4734 
     50 CA         24.4468  -32.5462  -39.7292 C.3       8 UNK         0.0238 
     51 CB         25.9504  -32.6264  -40.0583 C.3       8 UNK        -0.1912 
     52 C          23.5436  -32.6231  -40.9701 C.2       8 UNK         0.5038 
     53 O          24.0454  -32.7783  -42.0838 O.2       8 UNK        -0.5046 
     54 N          22.2338  -32.4454  -40.7367 N.am      9 UNK        -0.4200 
     55 CA         21.1763  -32.2264  -41.7356 C.3       9 UNK         0.0839 
     56 C          21.1654  -33.2480  -42.9048 C.2       9 UNK         0.5513 
     57 N          21.3862  -32.7902  -44.1295 N.am      9 UNK        -0.7519 
     58 O          20.9269  -34.4370  -42.7047 O.2       9 UNK        -0.4960 
     59 C59        19.7831  -32.1133  -41.0537 C.3       10 UNK        -0.0876 
     60 S60        18.6731  -30.9832  -41.9549 S.3       10 UNK        -0.2414 
     61 C61        17.4865  -32.1256  -42.7324 C.3       10 UNK         0.0169 
     62 H62        16.5399  -24.6588  -40.1264 H         1 UNK         0.0903 
     63 H63        17.5869  -23.2406  -40.2457 H         1 UNK         0.0903 
     64 H64        15.8390  -23.0691  -40.4474 H         1 UNK         0.0903 
     65 H65        16.6939  -25.9411  -41.9588 H         1 UNK         0.3096 
     66 H66        16.3808  -24.9127  -44.6261 H         1 UNK         0.1121 
     67 H67        16.6441  -27.2677  -45.3263 H         1 UNK         0.0849 
     68 H68        17.2326  -27.7331  -43.7484 H         1 UNK         0.0849 
     69 H69        13.4354  -29.2042  -44.4560 H         1 UNK         0.0865 
     70 H70        14.1013  -28.3251  -45.8085 H         1 UNK         0.0865 
     71 H71        15.3964  -30.3696  -42.8944 H         1 UNK         0.1346 
     72 H72        18.3317  -32.3682  -45.2934 H         1 UNK         0.1412 
     73 H73        15.7600  -29.4380  -47.0688 H         1 UNK         0.1426 
     74 H74        17.2025  -31.0238  -48.4793 H         1 UNK         0.0716 
     75 H75        18.4129  -32.0001  -47.6830 H         1 UNK         0.0716 
     76 H76        20.5391  -30.7883  -46.2307 H         1 UNK         0.0695 
     77 H77        19.2979  -29.8757  -45.4042 H         1 UNK         0.0695 
     78 H78        21.8325  -28.7248  -46.6073 H         1 UNK         0.0983 
     79 H79        19.3388  -27.3920  -46.1065 H         1 UNK         0.3095 
     80 H80        20.5390  -24.1366  -45.7810 H         1 UNK         0.0454 
     81 H81        20.8841  -24.3752  -48.2458 H         1 UNK         0.0851 
     82 H82        19.3466  -23.6087  -47.8913 H         1 UNK         0.0851 
     83 H83        19.3981  -25.3043  -48.3779 H         1 UNK         0.0851 
     84 H84        17.9261  -25.0181  -46.3597 H         1 UNK         0.2976 
     85 H85        20.7580  -27.1882  -43.7720 H         1 UNK         0.3116 
     86 H86        20.9592  -29.0235  -41.7536 H         1 UNK         0.0646 
     87 H87        20.0065  -26.8268  -41.3819 H         1 UNK         0.0847 
     88 H88        21.5529  -26.0296  -41.6726 H         1 UNK         0.0847 
     89 H89        21.3219  -27.0317  -40.2446 H         1 UNK         0.0847 
     90 H90        23.6867  -27.3133  -43.1821 H         1 UNK         0.3040 
     91 H91        25.9193  -27.4655  -42.9987 H         1 UNK         0.1015 
     92 H92        26.7361  -29.7904  -43.2699 H         1 UNK         0.0786 
     93 H93        25.2395  -29.5730  -44.1626 H         1 UNK         0.0786 
     94 H94        25.2281  -30.4232  -42.6221 H         1 UNK         0.0786 
     95 H95        24.9420  -26.6349  -40.5380 H         1 UNK         0.3172 
     96 H96        25.4595  -26.2328  -38.4166 H         1 UNK         0.0595 
     97 H97        27.7878  -26.4512  -37.6333 H         1 UNK         0.0839 
     98 H98        27.7664  -25.8186  -39.2711 H         1 UNK         0.0839 
     99 H99        28.1907  -27.5046  -38.9781 H         1 UNK         0.0839 
    100 H100       23.7650  -28.1295  -38.5968 H         1 UNK         0.2998 
    101 H101       22.6344  -29.6524  -37.4840 H         1 UNK         0.0822 
    102 H102       23.4468  -28.5586  -35.3864 H         1 UNK         0.0787 
    103 H103       23.1844  -30.2815  -35.1741 H         1 UNK         0.0787 
    104 H104       24.8193  -29.6649  -35.3377 H         1 UNK         0.0787 
    105 H105       23.8821  -30.5146  -39.6376 H         1 UNK         0.3055 
    106 H106       24.1849  -33.3940  -39.0920 H         1 UNK         0.1106 
    107 H107       26.5561  -32.5915  -39.1527 H         1 UNK         0.0828 
    108 H108       26.1903  -33.5567  -40.5746 H         1 UNK         0.0828 
    109 H109       26.2643  -31.8026  -40.7005 H         1 UNK         0.0828 
    110 H110       21.9493  -32.3422  -39.7748 H         1 UNK         0.2931 
    111 H111       21.4196  -31.2505  -42.1543 H         1 UNK         0.0412 
    112 H112       21.6480  -31.8171  -44.2622 H         1 UNK         0.3472 
    113 H113       21.3877  -33.4292  -44.9078 H         1 UNK         0.3472 
    114 H114       19.3153  -33.0898  -40.9130 H         1 UNK         0.0970 
    115 H115       19.8849  -31.6932  -40.0520 H         1 UNK         0.0970 
    116 H116       16.6998  -32.3805  -42.0211 H         1 UNK         0.0612 
    117 H117       17.9858  -33.0577  -43.0019 H         1 UNK         0.0612 
@<TRIPOS>BOND
     1    1    2 1    
     2    1   62 1    
     3    1   63 1    
     4    1   64 1    
     5    2    3 2    
     6    2    4 am   BACKBONE|DICT|INTERRES
     7    4    5 1    
     8    4   65 1    
     9    5    6 1    
    10    5   25 1    
    11    5   66 1    
    12    6    7 1    
    13    6   67 1    
    14    6   68 1    
    15    7    8 1    
    16    8    9 1    
    17    8   69 1    
    18    8   70 1    
    19    9   10 ar   
    20    9   14 ar   
    21   10   11 ar   
    22   10   71 1    
    23   11   12 ar   
    24   11   61 1    
    25   12   13 ar   
    26   12   72 1    
    27   13   14 ar   
    28   13   15 1    
    29   14   73 1    
    30   15   16 1    
    31   15   74 1    
    32   15   75 1    
    33   16   17 1    
    34   17   18 1    
    35   17   76 1    
    36   17   77 1    
    37   18   19 1    
    38   18   27 1    
    39   18   78 1    
    40   19   20 am   BACKBONE|DICT|INTERRES
    41   19   79 1    
    42   20   21 2    
    43   20   22 1    
    44   22   23 1    
    45   22   24 1    
    46   22   80 1    
    47   23   81 1    
    48   23   82 1    
    49   23   83 1    
    50   24   25 am   BACKBONE|DICT|INTERRES
    51   24   84 1    
    52   25   26 2    
    53   27   28 2    
    54   27   29 am   BACKBONE|DICT|INTERRES
    55   29   30 1    
    56   29   85 1    
    57   30   31 1    
    58   30   32 1    
    59   30   86 1    
    60   31   87 1    
    61   31   88 1    
    62   31   89 1    
    63   32   33 2    
    64   32   34 am   BACKBONE|DICT|INTERRES
    65   34   35 1    
    66   34   90 1    
    67   35   36 1    
    68   35   37 1    
    69   35   91 1    
    70   36   92 1    
    71   36   93 1    
    72   36   94 1    
    73   37   38 2    
    74   37   39 am   BACKBONE|DICT|INTERRES
    75   39   40 1    
    76   39   95 1    
    77   40   41 1    
    78   40   42 1    
    79   40   96 1    
    80   41   97 1    
    81   41   98 1    
    82   41   99 1    
    83   42   43 2    
    84   42   44 am   BACKBONE|DICT|INTERRES
    85   44   45 1    
    86   44  100 1    
    87   45   46 1    
    88   45   47 1    
    89   45  101 1    
    90   46  102 1    
    91   46  103 1    
    92   46  104 1    
    93   47   48 2    
    94   47   49 am   BACKBONE|DICT|INTERRES
    95   49   50 1    
    96   49  105 1    
    97   50   51 1    
    98   50   52 1    
    99   50  106 1    
   100   51  107 1    
   101   51  108 1    
   102   51  109 1    
   103   52   53 2    
   104   52   54 am   BACKBONE|DICT|INTERRES
   105   54   55 1    
   106   54  110 1    
   107   55   56 1    
   108   55   59 1    
   109   55  111 1    
   110   56   57 am   BACKBONE|DICT|INTERRES
   111   56   58 2    
   112   57  112 1    
   113   57  113 1    
   114   59   60 1    
   115   59  114 1    
   116   59  115 1    
   117   60   61 1    
   118   61  116 1    
   119   61  117 1    
@<TRIPOS>SUBSTRUCTURE
     1 UNK         1 GROUP             0       ****    0 ROOT    
