@<TRIPOS>MOLECULE
3R8
117   119    1
SMALL
USER_CHARGES


@<TRIPOS>ATOM
      1 CA         14.9612  -21.8652  -46.0306 C.3       0 UNK        -0.2013 
      2 C          15.4953  -23.1917  -45.5113 C.2       0 UNK         0.4866 
      3 O          14.7613  -24.1799  -45.4827 O.2       0 UNK        -0.5176 
      4 N          16.7671  -23.2243  -45.1023 N.am      1 UNK        -0.4884 
      5 CA         17.4678  -24.4062  -44.6068 C.3       1 UNK         0.0853 
      6 C6         17.0964  -24.7246  -43.1325 C.3       10 UNK        -0.0849 
      7 S7         17.6487  -26.3798  -42.6041 S.3       10 UNK        -0.2776 
      8 C8         16.2768  -27.4177  -43.1899 C.3       10 UNK         0.0316 
      9 C9         16.7911  -28.8070  -43.5212 C.ar      10 UNK        -0.0863 
     10 C10        16.8161  -29.8036  -42.5408 C.ar      10 UNK        -0.1009 
     11 C11        17.3338  -31.0703  -42.8293 C.ar      10 UNK        -0.0712 
     12 C12        17.7809  -31.3453  -44.1231 C.ar      10 UNK        -0.0894 
     13 C13        17.8069  -30.3431  -45.0965 C.ar      10 UNK        -0.0745 
     14 C14        17.2910  -29.0801  -44.7980 C.ar      10 UNK        -0.0972 
     15 C15        18.4592  -30.6154  -46.4445 C.3       10 UNK         0.0209 
     16 S16        20.0868  -29.7967  -46.6114 S.3       10 UNK        -0.2568 
     17 C17        20.9714  -30.2644  -45.0721 C.3       10 UNK        -0.0983 
     18 CA         21.6624  -29.0897  -44.3148 C.3       3 UNK         0.0876 
     19 N          21.1460  -27.7546  -44.6475 N.am      3 UNK        -0.4424 
     20 C          21.7678  -26.6098  -44.3247 C.2       2 UNK         0.4918 
     21 O          22.7567  -26.5572  -43.5945 O.2       2 UNK        -0.4875 
     22 CA         21.1969  -25.3093  -44.9003 C.3       2 UNK         0.0481 
     23 CB         21.6490  -25.1113  -46.3588 C.3       2 UNK        -0.1831 
     24 N          19.7400  -25.2869  -44.7935 N.am      2 UNK        -0.4498 
     25 C          18.9781  -24.1878  -44.8163 C.2       1 UNK         0.5027 
     26 O          19.4156  -23.0452  -44.9866 O.2       1 UNK        -0.4969 
     27 C          21.7123  -29.3483  -42.7937 C.2       3 UNK         0.5005 
     28 O          22.6767  -29.9498  -42.3215 O.2       3 UNK        -0.5279 
     29 N          20.7081  -28.8613  -42.0472 N.am      4 UNK        -0.4463 
     30 CA         20.6768  -28.9358  -40.5816 C.3       4 UNK         0.0283 
     31 CB         19.2568  -28.6813  -40.0577 C.3       4 UNK        -0.1875 
     32 C          21.6659  -27.9712  -39.9107 C.2       4 UNK         0.4949 
     33 O          22.2098  -28.3111  -38.8614 O.2       4 UNK        -0.5039 
     34 N          21.9102  -26.8063  -40.5295 N.am      5 UNK        -0.4663 
     35 CA         22.9033  -25.8260  -40.0741 C.3       5 UNK         0.0242 
     36 CB         22.6841  -24.4845  -40.7925 C.3       5 UNK        -0.1982 
     37 C          24.3422  -26.3340  -40.2687 C.2       5 UNK         0.5017 
     38 O          25.1894  -26.1104  -39.4042 O.2       5 UNK        -0.5012 
     39 N          24.5707  -27.0558  -41.3745 N.am      6 UNK        -0.4439 
     40 CA         25.7970  -27.8055  -41.6590 C.3       6 UNK         0.0297 
     41 CB         25.8250  -28.1499  -43.1576 C.3       6 UNK        -0.2006 
     42 C          25.9443  -29.0898  -40.8159 C.2       6 UNK         0.4892 
     43 O          27.0346  -29.6616  -40.7945 O.2       6 UNK        -0.5089 
     44 N          24.8528  -29.5260  -40.1661 N.am      7 UNK        -0.4243 
     45 CA         24.6878  -30.7665  -39.3974 C.3       7 UNK         0.0196 
     46 CB         25.5841  -30.7649  -38.1412 C.3       7 UNK        -0.2007 
     47 C          24.8568  -32.0326  -40.2609 C.2       7 UNK         0.5020 
     48 O          25.3290  -33.0588  -39.7694 O.2       7 UNK        -0.5147 
     49 N          24.4656  -31.9398  -41.5375 N.am      8 UNK        -0.4734 
     50 CA         24.5895  -33.0060  -42.5295 C.3       8 UNK         0.0238 
     51 CB         24.6575  -32.3805  -43.9323 C.3       8 UNK        -0.1912 
     52 C          23.4431  -34.0236  -42.4473 C.2       8 UNK         0.5038 
     53 O          23.6712  -35.1988  -42.7371 O.2       8 UNK        -0.5046 
     54 N          22.2425  -33.5653  -42.0641 N.am      9 UNK        -0.4200 
     55 CA         21.0422  -34.4070  -41.9251 C.3       9 UNK         0.0839 
     56 C          20.9122  -35.1418  -40.5583 C.2       9 UNK         0.5513 
     57 N          21.8285  -34.9597  -39.6143 N.am      9 UNK        -0.7519 
     58 O          19.9736  -35.9090  -40.3596 O.2       9 UNK        -0.4960 
     59 C59        19.7561  -33.6531  -42.3557 C.3       10 UNK        -0.0876 
     60 S60        19.1843  -32.3543  -41.2033 S.3       10 UNK        -0.2414 
     61 C61        17.4509  -32.1260  -41.7377 C.3       10 UNK         0.0169 
     62 H62        14.1155  -21.5390  -45.4259 H         1 UNK         0.0903 
     63 H63        15.7189  -21.0823  -46.0042 H         1 UNK         0.0903 
     64 H64        14.6221  -21.9744  -47.0603 H         1 UNK         0.0903 
     65 H65        17.3627  -22.4075  -45.1825 H         1 UNK         0.3096 
     66 H66        17.1768  -25.2469  -45.2410 H         1 UNK         0.1121 
     67 H67        16.0161  -24.6683  -42.9890 H         1 UNK         0.0849 
     68 H68        17.5217  -23.9789  -42.4580 H         1 UNK         0.0849 
     69 H69        15.5008  -27.4640  -42.4243 H         1 UNK         0.0865 
     70 H70        15.8119  -26.9758  -44.0729 H         1 UNK         0.0865 
     71 H71        16.4584  -29.5813  -41.5447 H         1 UNK         0.1346 
     72 H72        18.1706  -32.3244  -44.3579 H         1 UNK         0.1412 
     73 H73        17.3094  -28.3033  -45.5502 H         1 UNK         0.1426 
     74 H74        18.5881  -31.6876  -46.6005 H         1 UNK         0.0716 
     75 H75        17.8027  -30.2678  -47.2435 H         1 UNK         0.0716 
     76 H76        20.2981  -30.8060  -44.4124 H         1 UNK         0.0695 
     77 H77        21.7249  -31.0042  -45.3463 H         1 UNK         0.0695 
     78 H78        22.7035  -29.0836  -44.6465 H         1 UNK         0.0983 
     79 H79        20.3827  -27.7461  -45.3085 H         1 UNK         0.3095 
     80 H80        21.5984  -24.4906  -44.2990 H         1 UNK         0.0454 
     81 H81        21.2324  -25.8728  -47.0190 H         1 UNK         0.0851 
     82 H82        21.3471  -24.1364  -46.7413 H         1 UNK         0.0851 
     83 H83        22.7354  -25.1652  -46.4412 H         1 UNK         0.0851 
     84 H84        19.2949  -26.1606  -44.5483 H         1 UNK         0.2976 
     85 H85        19.9323  -28.4045  -42.5058 H         1 UNK         0.3116 
     86 H86        20.9609  -29.9491  -40.2887 H         1 UNK         0.0646 
     87 H87        18.5584  -29.4225  -40.4390 H         1 UNK         0.0847 
     88 H88        19.2268  -28.7495  -38.9695 H         1 UNK         0.0847 
     89 H89        18.8917  -27.6916  -40.3290 H         1 UNK         0.0847 
     90 H90        21.4425  -26.6136  -41.4030 H         1 UNK         0.3040 
     91 H91        22.7538  -25.6653  -39.0037 H         1 UNK         0.1015 
     92 H92        22.8407  -24.5644  -41.8681 H         1 UNK         0.0786 
     93 H93        23.3779  -23.7293  -40.4207 H         1 UNK         0.0786 
     94 H94        21.6754  -24.1056  -40.6272 H         1 UNK         0.0786 
     95 H95        23.8322  -27.1061  -42.0715 H         1 UNK         0.3172 
     96 H96        26.6521  -27.1639  -41.4365 H         1 UNK         0.0595 
     97 H97        26.7505  -28.6619  -43.4245 H         1 UNK         0.0839 
     98 H98        25.7615  -27.2527  -43.7738 H         1 UNK         0.0839 
     99 H99        24.9992  -28.8059  -43.4352 H         1 UNK         0.0839 
    100 H100       24.0105  -28.9766  -40.2692 H         1 UNK         0.2998 
    101 H101       23.6504  -30.7733  -39.0597 H         1 UNK         0.0822 
    102 H102       25.3555  -31.6145  -37.4967 H         1 UNK         0.0787 
    103 H103       26.6421  -30.8275  -38.3973 H         1 UNK         0.0787 
    104 H104       25.4339  -29.8614  -37.5500 H         1 UNK         0.0787 
    105 H105       24.0047  -31.0826  -41.8418 H         1 UNK         0.3055 
    106 H106       25.5228  -33.5456  -42.3518 H         1 UNK         0.1106 
    107 H107       25.5055  -31.7011  -44.0215 H         1 UNK         0.0828 
    108 H108       24.7756  -33.1488  -44.6977 H         1 UNK         0.0828 
    109 H109       23.7535  -31.8192  -44.1689 H         1 UNK         0.0828 
    110 H110       22.1423  -32.5899  -41.8219 H         1 UNK         0.2931 
    111 H111       21.1430  -35.2180  -42.6491 H         1 UNK         0.0412 
    112 H112       21.7371  -35.4474  -38.7370 H         1 UNK         0.3472 
    113 H113       22.6168  -34.3533  -39.7760 H         1 UNK         0.3472 
    114 H114       19.9267  -33.2010  -43.3323 H         1 UNK         0.0970 
    115 H115       18.9484  -34.3731  -42.4983 H         1 UNK         0.0970 
    116 H116       17.0287  -33.0706  -42.0827 H         1 UNK         0.0612 
    117 H117       16.8621  -31.8319  -40.8676 H         1 UNK         0.0612 
@<TRIPOS>BOND
     1    1    2 1    
     2    1   62 1    
     3    1   63 1    
     4    1   64 1    
     5    2    3 2    
     6    2    4 am   BACKBONE|DICT|INTERRES
     7    4    5 1    
     8    4   65 1    
     9    5    6 1    
    10    5   25 1    
    11    5   66 1    
    12    6    7 1    
    13    6   67 1    
    14    6   68 1    
    15    7    8 1    
    16    8    9 1    
    17    8   69 1    
    18    8   70 1    
    19    9   10 ar   
    20    9   14 ar   
    21   10   11 ar   
    22   10   71 1    
    23   11   12 ar   
    24   11   61 1    
    25   12   13 ar   
    26   12   72 1    
    27   13   14 ar   
    28   13   15 1    
    29   14   73 1    
    30   15   16 1    
    31   15   74 1    
    32   15   75 1    
    33   16   17 1    
    34   17   18 1    
    35   17   76 1    
    36   17   77 1    
    37   18   19 1    
    38   18   27 1    
    39   18   78 1    
    40   19   20 am   BACKBONE|DICT|INTERRES
    41   19   79 1    
    42   20   21 2    
    43   20   22 1    
    44   22   23 1    
    45   22   24 1    
    46   22   80 1    
    47   23   81 1    
    48   23   82 1    
    49   23   83 1    
    50   24   25 am   BACKBONE|DICT|INTERRES
    51   24   84 1    
    52   25   26 2    
    53   27   28 2    
    54   27   29 am   BACKBONE|DICT|INTERRES
    55   29   30 1    
    56   29   85 1    
    57   30   31 1    
    58   30   32 1    
    59   30   86 1    
    60   31   87 1    
    61   31   88 1    
    62   31   89 1    
    63   32   33 2    
    64   32   34 am   BACKBONE|DICT|INTERRES
    65   34   35 1    
    66   34   90 1    
    67   35   36 1    
    68   35   37 1    
    69   35   91 1    
    70   36   92 1    
    71   36   93 1    
    72   36   94 1    
    73   37   38 2    
    74   37   39 am   BACKBONE|DICT|INTERRES
    75   39   40 1    
    76   39   95 1    
    77   40   41 1    
    78   40   42 1    
    79   40   96 1    
    80   41   97 1    
    81   41   98 1    
    82   41   99 1    
    83   42   43 2    
    84   42   44 am   BACKBONE|DICT|INTERRES
    85   44   45 1    
    86   44  100 1    
    87   45   46 1    
    88   45   47 1    
    89   45  101 1    
    90   46  102 1    
    91   46  103 1    
    92   46  104 1    
    93   47   48 2    
    94   47   49 am   BACKBONE|DICT|INTERRES
    95   49   50 1    
    96   49  105 1    
    97   50   51 1    
    98   50   52 1    
    99   50  106 1    
   100   51  107 1    
   101   51  108 1    
   102   51  109 1    
   103   52   53 2    
   104   52   54 am   BACKBONE|DICT|INTERRES
   105   54   55 1    
   106   54  110 1    
   107   55   56 1    
   108   55   59 1    
   109   55  111 1    
   110   56   57 am   BACKBONE|DICT|INTERRES
   111   56   58 2    
   112   57  112 1    
   113   57  113 1    
   114   59   60 1    
   115   59  114 1    
   116   59  115 1    
   117   60   61 1    
   118   61  116 1    
   119   61  117 1    
@<TRIPOS>SUBSTRUCTURE
     1 UNK         1 GROUP             0       ****    0 ROOT    
