@<TRIPOS>MOLECULE
3R8
117   119    1
SMALL
USER_CHARGES


@<TRIPOS>ATOM
      1 CA         14.7040  -30.2105  -39.4468 C.3       0 UNK        -0.2013 
      2 C          15.4211  -29.0997  -40.1992 C.2       0 UNK         0.4866 
      3 O          15.7771  -28.0853  -39.5985 O.2       0 UNK        -0.5176 
      4 N          15.6262  -29.2800  -41.5095 N.am      1 UNK        -0.4884 
      5 CA         16.3630  -28.3612  -42.3843 C.3       1 UNK         0.0853 
      6 C6         15.9947  -28.5518  -43.8845 C.3       10 UNK        -0.0849 
      7 S7         15.8835  -30.2875  -44.4471 S.3       10 UNK        -0.2776 
      8 C8         16.5822  -30.1907  -46.1334 C.3       10 UNK         0.0316 
      9 C9         18.1051  -30.1405  -46.1343 C.ar      10 UNK        -0.0863 
     10 C10        18.8314  -31.0846  -45.4086 C.ar      10 UNK        -0.1009 
     11 C11        20.2251  -31.0321  -45.3454 C.ar      10 UNK        -0.0712 
     12 C12        20.9042  -30.0670  -46.0981 C.ar      10 UNK        -0.0894 
     13 C13        20.1927  -29.1659  -46.8997 C.ar      10 UNK        -0.0745 
     14 C14        18.7933  -29.1870  -46.8890 C.ar      10 UNK        -0.0972 
     15 C15        20.9230  -28.2139  -47.8356 C.3       10 UNK         0.0209 
     16 S16        20.9878  -26.5178  -47.1899 S.3       10 UNK        -0.2568 
     17 C17        22.5878  -26.5096  -46.3175 C.3       10 UNK        -0.0983 
     18 CA         22.5286  -25.7207  -44.9812 C.3       3 UNK         0.0876 
     19 N          21.8052  -26.4514  -43.9358 N.am      3 UNK        -0.4424 
     20 C          20.5185  -26.2861  -43.6174 C.2       2 UNK         0.4918 
     21 O          19.7593  -25.4761  -44.1555 O.2       2 UNK        -0.4875 
     22 CA         20.0054  -27.1352  -42.4523 C.3       2 UNK         0.0481 
     23 CB         20.2505  -26.4041  -41.1184 C.3       2 UNK        -0.1831 
     24 N          18.5769  -27.3643  -42.6236 N.am      2 UNK        -0.4498 
     25 C          17.8851  -28.3899  -42.1147 C.2       1 UNK         0.5027 
     26 O          18.3925  -29.2921  -41.4381 O.2       1 UNK        -0.4969 
     27 C          23.9260  -25.3045  -44.4694 C.2       3 UNK         0.5005 
     28 O          24.8626  -25.1958  -45.2635 O.2       3 UNK        -0.5279 
     29 N          24.0565  -25.0865  -43.1501 N.am      4 UNK        -0.4463 
     30 CA         25.2482  -24.6746  -42.3875 C.3       4 UNK         0.0283 
     31 CB         25.7734  -23.3006  -42.8476 C.3       4 UNK        -0.1875 
     32 C          26.3813  -25.7173  -42.3476 C.2       4 UNK         0.4949 
     33 O          26.8843  -26.0159  -41.2647 O.2       4 UNK        -0.5039 
     34 N          26.7471  -26.2717  -43.5103 N.am      5 UNK        -0.4663 
     35 CA         27.6994  -27.3788  -43.6624 C.3       5 UNK         0.0242 
     36 CB         28.0908  -27.5049  -45.1433 C.3       5 UNK        -0.1982 
     37 C          27.1435  -28.7144  -43.1340 C.2       5 UNK         0.5017 
     38 O          27.9186  -29.5840  -42.7349 O.2       5 UNK        -0.5012 
     39 N          25.8130  -28.8306  -43.1221 N.am      6 UNK        -0.4439 
     40 CA         25.0303  -29.8611  -42.4577 C.3       6 UNK         0.0297 
     41 CB         24.5426  -30.8885  -43.4902 C.3       6 UNK        -0.2006 
     42 C          23.8533  -29.1383  -41.7970 C.2       6 UNK         0.4892 
     43 O          23.3658  -28.1486  -42.3549 O.2       6 UNK        -0.5089 
     44 N          23.4228  -29.6258  -40.6316 N.am      7 UNK        -0.4243 
     45 CA         22.3367  -29.0450  -39.8513 C.3       7 UNK         0.0196 
     46 CB         22.8707  -27.8984  -38.9724 C.3       7 UNK        -0.2007 
     47 C          21.6584  -30.1271  -39.0127 C.2       7 UNK         0.5020 
     48 O          22.2739  -31.1602  -38.7381 O.2       7 UNK        -0.5147 
     49 N          20.4030  -29.8531  -38.6265 N.am      8 UNK        -0.4734 
     50 CA         19.4797  -30.7490  -37.9166 C.3       8 UNK         0.0238 
     51 CB         19.9642  -31.0124  -36.4744 C.3       8 UNK        -0.1912 
     52 C          19.2102  -32.0407  -38.7124 C.2       8 UNK         0.5038 
     53 O          19.2211  -33.1347  -38.1448 O.2       8 UNK        -0.5046 
     54 N          19.0005  -31.8799  -40.0248 N.am      9 UNK        -0.4200 
     55 CA         18.8353  -32.9700  -40.9953 C.3       9 UNK         0.0839 
     56 C          17.4795  -33.7321  -40.9047 C.2       9 UNK         0.5513 
     57 N          16.5121  -33.2898  -40.1104 N.am      9 UNK        -0.7519 
     58 O          17.3060  -34.7518  -41.5671 O.2       9 UNK        -0.4960 
     59 C59        19.0836  -32.4629  -42.4361 C.3       10 UNK        -0.0876 
     60 S60        20.7547  -31.7665  -42.7049 S.3       10 UNK        -0.2414 
     61 C61        20.9859  -32.0437  -44.4955 C.3       10 UNK         0.0169 
     62 H62        15.3278  -30.5756  -38.6316 H         1 UNK         0.0903 
     63 H63        13.7744  -29.8340  -39.0208 H         1 UNK         0.0903 
     64 H64        14.4621  -31.0521  -40.0957 H         1 UNK         0.0903 
     65 H65        15.3366  -30.1407  -41.9531 H         1 UNK         0.3096 
     66 H66        16.0448  -27.3519  -42.1117 H         1 UNK         0.1121 
     67 H67        16.6783  -27.9994  -44.5320 H         1 UNK         0.0849 
     68 H68        15.0151  -28.1051  -44.0620 H         1 UNK         0.0849 
     69 H69        16.2663  -31.0721  -46.6931 H         1 UNK         0.0865 
     70 H70        16.1580  -29.3297  -46.6525 H         1 UNK         0.0865 
     71 H71        18.2946  -31.8568  -44.8811 H         1 UNK         0.1346 
     72 H72        21.9850  -30.0402  -46.0895 H         1 UNK         0.1412 
     73 H73        18.2443  -28.4775  -47.4934 H         1 UNK         0.1426 
     74 H74        20.4047  -28.1947  -48.7955 H         1 UNK         0.0716 
     75 H75        21.9302  -28.5736  -48.0519 H         1 UNK         0.0716 
     76 H76        23.3026  -26.0684  -47.0142 H         1 UNK         0.0695 
     77 H77        22.9281  -27.5305  -46.1363 H         1 UNK         0.0695 
     78 H78        22.0191  -24.7733  -45.1713 H         1 UNK         0.0983 
     79 H79        22.3563  -27.1318  -43.4096 H         1 UNK         0.3095 
     80 H80        20.5253  -28.0951  -42.4686 H         1 UNK         0.0454 
     81 H81        21.3146  -26.2322  -40.9545 H         1 UNK         0.0851 
     82 H82        19.8758  -26.9765  -40.2706 H         1 UNK         0.0851 
     83 H83        19.7588  -25.4306  -41.0996 H         1 UNK         0.0851 
     84 H84        18.1178  -26.6744  -43.2053 H         1 UNK         0.2976 
     85 H85        23.2318  -25.2397  -42.5867 H         1 UNK         0.3116 
     86 H86        24.9031  -24.5574  -41.3587 H         1 UNK         0.0646 
     87 H87        26.1528  -23.3259  -43.8694 H         1 UNK         0.0847 
     88 H88        24.9932  -22.5411  -42.7988 H         1 UNK         0.0847 
     89 H89        26.5917  -22.9649  -42.2093 H         1 UNK         0.0847 
     90 H90        26.2633  -25.9469  -44.3462 H         1 UNK         0.3040 
     91 H91        28.5953  -27.1434  -43.0836 H         1 UNK         0.1015 
     92 H92        28.8129  -28.3096  -45.2894 H         1 UNK         0.0786 
     93 H93        28.5505  -26.5874  -45.5111 H         1 UNK         0.0786 
     94 H94        27.2263  -27.7226  -45.7721 H         1 UNK         0.0786 
     95 H95        25.2660  -28.0299  -43.4110 H         1 UNK         0.3172 
     96 H96        25.6278  -30.3568  -41.6895 H         1 UNK         0.0595 
     97 H97        23.9174  -30.4240  -44.2537 H         1 UNK         0.0839 
     98 H98        23.9517  -31.6703  -43.0115 H         1 UNK         0.0839 
     99 H99        25.3796  -31.3740  -43.9919 H         1 UNK         0.0839 
    100 H100       23.8107  -30.4799  -40.2505 H         1 UNK         0.2998 
    101 H101       21.5857  -28.6668  -40.5411 H         1 UNK         0.0822 
    102 H102       22.0695  -27.4393  -38.3920 H         1 UNK         0.0787 
    103 H103       23.6236  -28.2532  -38.2676 H         1 UNK         0.0787 
    104 H104       23.3239  -27.1115  -39.5758 H         1 UNK         0.0787 
    105 H105       19.9995  -28.9752  -38.9237 H         1 UNK         0.3055 
    106 H106       18.5230  -30.2271  -37.8535 H         1 UNK         0.1106 
    107 H107       20.1330  -30.0801  -35.9358 H         1 UNK         0.0828 
    108 H108       19.2228  -31.5810  -35.9118 H         1 UNK         0.0828 
    109 H109       20.8927  -31.5839  -36.4550 H         1 UNK         0.0828 
    110 H110       18.9837  -30.9430  -40.4163 H         1 UNK         0.2931 
    111 H111       19.6055  -33.7118  -40.7752 H         1 UNK         0.0412 
    112 H112       16.6590  -32.4746  -39.5401 H         1 UNK         0.3472 
    113 H113       15.6453  -33.8013  -40.0567 H         1 UNK         0.3472 
    114 H114       18.9350  -33.2778  -43.1469 H         1 UNK         0.0970 
    115 H115       18.3469  -31.6952  -42.6779 H         1 UNK         0.0970 
    116 H116       22.0520  -31.9930  -44.7173 H         1 UNK         0.0612 
    117 H117       20.6743  -33.0555  -44.7579 H         1 UNK         0.0612 
@<TRIPOS>BOND
     1    1    2 1    
     2    1   62 1    
     3    1   63 1    
     4    1   64 1    
     5    2    3 2    
     6    2    4 am   BACKBONE|DICT|INTERRES
     7    4    5 1    
     8    4   65 1    
     9    5    6 1    
    10    5   25 1    
    11    5   66 1    
    12    6    7 1    
    13    6   67 1    
    14    6   68 1    
    15    7    8 1    
    16    8    9 1    
    17    8   69 1    
    18    8   70 1    
    19    9   10 ar   
    20    9   14 ar   
    21   10   11 ar   
    22   10   71 1    
    23   11   12 ar   
    24   11   61 1    
    25   12   13 ar   
    26   12   72 1    
    27   13   14 ar   
    28   13   15 1    
    29   14   73 1    
    30   15   16 1    
    31   15   74 1    
    32   15   75 1    
    33   16   17 1    
    34   17   18 1    
    35   17   76 1    
    36   17   77 1    
    37   18   19 1    
    38   18   27 1    
    39   18   78 1    
    40   19   20 am   BACKBONE|DICT|INTERRES
    41   19   79 1    
    42   20   21 2    
    43   20   22 1    
    44   22   23 1    
    45   22   24 1    
    46   22   80 1    
    47   23   81 1    
    48   23   82 1    
    49   23   83 1    
    50   24   25 am   BACKBONE|DICT|INTERRES
    51   24   84 1    
    52   25   26 2    
    53   27   28 2    
    54   27   29 am   BACKBONE|DICT|INTERRES
    55   29   30 1    
    56   29   85 1    
    57   30   31 1    
    58   30   32 1    
    59   30   86 1    
    60   31   87 1    
    61   31   88 1    
    62   31   89 1    
    63   32   33 2    
    64   32   34 am   BACKBONE|DICT|INTERRES
    65   34   35 1    
    66   34   90 1    
    67   35   36 1    
    68   35   37 1    
    69   35   91 1    
    70   36   92 1    
    71   36   93 1    
    72   36   94 1    
    73   37   38 2    
    74   37   39 am   BACKBONE|DICT|INTERRES
    75   39   40 1    
    76   39   95 1    
    77   40   41 1    
    78   40   42 1    
    79   40   96 1    
    80   41   97 1    
    81   41   98 1    
    82   41   99 1    
    83   42   43 2    
    84   42   44 am   BACKBONE|DICT|INTERRES
    85   44   45 1    
    86   44  100 1    
    87   45   46 1    
    88   45   47 1    
    89   45  101 1    
    90   46  102 1    
    91   46  103 1    
    92   46  104 1    
    93   47   48 2    
    94   47   49 am   BACKBONE|DICT|INTERRES
    95   49   50 1    
    96   49  105 1    
    97   50   51 1    
    98   50   52 1    
    99   50  106 1    
   100   51  107 1    
   101   51  108 1    
   102   51  109 1    
   103   52   53 2    
   104   52   54 am   BACKBONE|DICT|INTERRES
   105   54   55 1    
   106   54  110 1    
   107   55   56 1    
   108   55   59 1    
   109   55  111 1    
   110   56   57 am   BACKBONE|DICT|INTERRES
   111   56   58 2    
   112   57  112 1    
   113   57  113 1    
   114   59   60 1    
   115   59  114 1    
   116   59  115 1    
   117   60   61 1    
   118   61  116 1    
   119   61  117 1    
@<TRIPOS>SUBSTRUCTURE
     1 UNK         1 GROUP             0       ****    0 ROOT    
