@<TRIPOS>MOLECULE
3R8
117   119    1
SMALL
USER_CHARGES


@<TRIPOS>ATOM
      1 CA         18.0201  -22.2843  -40.9335 C.3       0 UNK        -0.2013 
      2 C          17.3865  -22.9150  -42.1647 C.2       0 UNK         0.4866 
      3 O          16.7950  -22.2062  -42.9801 O.2       0 UNK        -0.5176 
      4 N          17.4975  -24.2427  -42.3005 N.am      1 UNK        -0.4884 
      5 CA         17.0175  -25.0071  -43.4571 C.3       1 UNK         0.0853 
      6 C6         16.9146  -26.5158  -43.1207 C.3       10 UNK        -0.0849 
      7 S7         15.6532  -27.3661  -44.1273 S.3       10 UNK        -0.2776 
      8 C8         15.7797  -29.0699  -43.4910 C.3       10 UNK         0.0316 
      9 C9         17.1529  -29.6653  -43.7624 C.ar      10 UNK        -0.0863 
     10 C10        18.0535  -29.8803  -42.7152 C.ar      10 UNK        -0.1009 
     11 C11        19.3343  -30.3775  -42.9723 C.ar      10 UNK        -0.0712 
     12 C12        19.7108  -30.6567  -44.2903 C.ar      10 UNK        -0.0894 
     13 C13        18.8163  -30.4545  -45.3464 C.ar      10 UNK        -0.0745 
     14 C14        17.5322  -29.9751  -45.0702 C.ar      10 UNK        -0.0972 
     15 C15        19.2280  -30.7731  -46.7800 C.3       10 UNK         0.0209 
     16 S16        18.8769  -29.4034  -47.9341 S.3       10 UNK        -0.2568 
     17 C17        20.4725  -28.5163  -48.0408 C.3       10 UNK        -0.0983 
     18 CA         20.6653  -27.3351  -47.0450 C.3       3 UNK         0.0876 
     19 N          19.4649  -26.5101  -46.8934 N.am      3 UNK        -0.4424 
     20 C          19.2368  -25.3535  -47.5223 C.2       2 UNK         0.4918 
     21 O          20.0184  -24.8435  -48.3259 O.2       2 UNK        -0.4875 
     22 CA         17.9157  -24.6263  -47.2027 C.3       2 UNK         0.0481 
     23 CB         16.8792  -24.9139  -48.3008 C.3       2 UNK        -0.1831 
     24 N          17.3191  -24.9275  -45.8936 N.am      2 UNK        -0.4498 
     25 C          17.9028  -24.7527  -44.6991 C.2       1 UNK         0.5027 
     26 O          19.0875  -24.4369  -44.5574 O.2       1 UNK        -0.4969 
     27 C          21.2415  -27.7382  -45.6726 C.2       3 UNK         0.5005 
     28 O          21.8978  -28.7766  -45.5722 O.2       3 UNK        -0.5279 
     29 N          21.0107  -26.9079  -44.6400 N.am      4 UNK        -0.4463 
     30 CA         21.5145  -27.1083  -43.2776 C.3       4 UNK         0.0283 
     31 CB         20.9835  -25.9992  -42.3564 C.3       4 UNK        -0.1875 
     32 C          23.0511  -27.1706  -43.2108 C.2       4 UNK         0.4949 
     33 O          23.7274  -26.3610  -43.8490 O.2       4 UNK        -0.5039 
     34 N          23.5623  -28.1169  -42.4186 N.am      5 UNK        -0.4663 
     35 CA         24.9845  -28.3891  -42.2241 C.3       5 UNK         0.0242 
     36 CB         25.5281  -29.2312  -43.3958 C.3       5 UNK        -0.1982 
     37 C          25.1425  -29.0655  -40.8574 C.2       5 UNK         0.5017 
     38 O          25.5249  -30.2357  -40.7826 O.2       5 UNK        -0.5012 
     39 N          24.7612  -28.3168  -39.8109 N.am      6 UNK        -0.4439 
     40 CA         24.5803  -28.7427  -38.4164 C.3       6 UNK         0.0297 
     41 CB         25.8907  -29.3166  -37.8312 C.3       6 UNK        -0.2006 
     42 C          23.3923  -29.7121  -38.2516 C.2       6 UNK         0.4892 
     43 O          22.7172  -30.0462  -39.2282 O.2       6 UNK        -0.5089 
     44 N          23.1539  -30.1528  -37.0084 N.am      7 UNK        -0.4243 
     45 CA         22.0989  -31.1103  -36.6498 C.3       7 UNK         0.0196 
     46 CB         21.9905  -31.1926  -35.1184 C.3       7 UNK        -0.2007 
     47 C          22.3035  -32.5139  -37.2517 C.2       7 UNK         0.5020 
     48 O          21.3319  -33.2538  -37.4051 O.2       7 UNK        -0.5147 
     49 N          23.5559  -32.8512  -37.5889 N.am      8 UNK        -0.4734 
     50 CA         23.9292  -34.0760  -38.2992 C.3       8 UNK         0.0238 
     51 CB         25.4348  -34.3229  -38.1065 C.3       8 UNK        -0.1912 
     52 C          23.5826  -34.0401  -39.7999 C.2       8 UNK         0.5038 
     53 O          23.5067  -35.1065  -40.4118 O.2       8 UNK        -0.5046 
     54 N          23.3920  -32.8362  -40.3604 N.am      9 UNK        -0.4200 
     55 CA         23.1153  -32.5682  -41.7798 C.3       9 UNK         0.0839 
     56 C          24.2476  -33.0699  -42.7206 C.2       9 UNK         0.5513 
     57 N          25.4922  -32.7060  -42.4400 N.am      9 UNK        -0.7519 
     58 O          24.0107  -33.7788  -43.6958 O.2       9 UNK        -0.4960 
     59 C59        21.6893  -33.0091  -42.2230 C.3       10 UNK        -0.0876 
     60 S60        20.3627  -32.2708  -41.2059 S.3       10 UNK        -0.2414 
     61 C61        20.3205  -30.5608  -41.8278 C.3       10 UNK         0.0169 
     62 H62        17.2624  -21.7695  -40.3433 H         1 UNK         0.0903 
     63 H63        18.5007  -23.0260  -40.2958 H         1 UNK         0.0903 
     64 H64        18.7733  -21.5556  -41.2320 H         1 UNK         0.0903 
     65 H65        18.0110  -24.7665  -41.6070 H         1 UNK         0.3096 
     66 H66        16.0158  -24.6323  -43.6821 H         1 UNK         0.1121 
     67 H67        17.8793  -27.0146  -43.2324 H         1 UNK         0.0849 
     68 H68        16.6257  -26.6509  -42.0769 H         1 UNK         0.0849 
     69 H69        15.5534  -29.0761  -42.4235 H         1 UNK         0.0865 
     70 H70        15.0173  -29.6868  -43.9690 H         1 UNK         0.0865 
     71 H71        17.7652  -29.6429  -41.7002 H         1 UNK         0.1346 
     72 H72        20.7095  -31.0128  -44.4990 H         1 UNK         0.1412 
     73 H73        16.8332  -29.8133  -45.8797 H         1 UNK         0.1426 
     74 H74        18.6707  -31.6516  -47.1074 H         1 UNK         0.0716 
     75 H75        20.2838  -31.0420  -46.8363 H         1 UNK         0.0716 
     76 H76        20.5155  -28.1094  -49.0521 H         1 UNK         0.0695 
     77 H77        21.2982  -29.2284  -47.9987 H         1 UNK         0.0695 
     78 H78        21.4603  -26.7130  -47.4623 H         1 UNK         0.0983 
     79 H79        18.7583  -26.8724  -46.2693 H         1 UNK         0.3095 
     80 H80        18.1319  -23.5563  -47.2140 H         1 UNK         0.0454 
     81 H81        17.2760  -24.6705  -49.2876 H         1 UNK         0.0851 
     82 H82        15.9762  -24.3189  -48.1636 H         1 UNK         0.0851 
     83 H83        16.5913  -25.9660  -48.3172 H         1 UNK         0.0851 
     84 H84        16.3583  -25.2411  -45.9079 H         1 UNK         0.2976 
     85 H85        20.5019  -26.0475  -44.8099 H         1 UNK         0.3116 
     86 H86        21.1105  -28.0577  -42.9281 H         1 UNK         0.0646 
     87 H87        21.2879  -25.0098  -42.7005 H         1 UNK         0.0847 
     88 H88        19.8966  -26.0160  -42.3028 H         1 UNK         0.0847 
     89 H89        21.3566  -26.1208  -41.3386 H         1 UNK         0.0847 
     90 H90        22.9369  -28.7075  -41.8863 H         1 UNK         0.3040 
     91 H91        25.5388  -27.4484  -42.1872 H         1 UNK         0.1015 
     92 H92        26.5665  -29.5185  -43.2264 H         1 UNK         0.0786 
     93 H93        25.4948  -28.6736  -44.3318 H         1 UNK         0.0786 
     94 H94        24.9504  -30.1446  -43.5358 H         1 UNK         0.0786 
     95 H95        24.4306  -27.3835  -40.0141 H         1 UNK         0.3172 
     96 H96        24.3281  -27.8402  -37.8576 H         1 UNK         0.0595 
     97 H97        26.1265  -30.3002  -38.2387 H         1 UNK         0.0839 
     98 H98        25.8320  -29.4217  -36.7476 H         1 UNK         0.0839 
     99 H99        26.7362  -28.6606  -38.0387 H         1 UNK         0.0839 
    100 H100       23.7364  -29.8199  -36.2534 H         1 UNK         0.2998 
    101 H101       21.1539  -30.7272  -37.0414 H         1 UNK         0.0822 
    102 H102       21.1941  -31.8761  -34.8199 H         1 UNK         0.0787 
    103 H103       21.7590  -30.2201  -34.6832 H         1 UNK         0.0787 
    104 H104       22.9153  -31.5533  -34.6664 H         1 UNK         0.0787 
    105 H105       24.2931  -32.1865  -37.4057 H         1 UNK         0.3055 
    106 H106       23.3825  -34.9135  -37.8594 H         1 UNK         0.1106 
    107 H107       25.6910  -34.4173  -37.0511 H         1 UNK         0.0828 
    108 H108       25.7440  -35.2474  -38.5965 H         1 UNK         0.0828 
    109 H109       26.0343  -33.5154  -38.5292 H         1 UNK         0.0828 
    110 H110       23.4425  -32.0115  -39.7758 H         1 UNK         0.2931 
    111 H111       23.1566  -31.4838  -41.8735 H         1 UNK         0.0412 
    112 H112       25.6658  -32.0451  -41.6898 H         1 UNK         0.3472 
    113 H113       26.2486  -33.0183  -43.0274 H         1 UNK         0.3472 
    114 H114       21.5148  -32.7561  -43.2685 H         1 UNK         0.0970 
    115 H115       21.5973  -34.0947  -42.1631 H         1 UNK         0.0970 
    116 H116       20.0557  -29.9029  -40.9986 H         1 UNK         0.0612 
    117 H117       21.3153  -30.2516  -42.1437 H         1 UNK         0.0612 
@<TRIPOS>BOND
     1    1    2 1    
     2    1   62 1    
     3    1   63 1    
     4    1   64 1    
     5    2    3 2    
     6    2    4 am   BACKBONE|DICT|INTERRES
     7    4    5 1    
     8    4   65 1    
     9    5    6 1    
    10    5   25 1    
    11    5   66 1    
    12    6    7 1    
    13    6   67 1    
    14    6   68 1    
    15    7    8 1    
    16    8    9 1    
    17    8   69 1    
    18    8   70 1    
    19    9   10 ar   
    20    9   14 ar   
    21   10   11 ar   
    22   10   71 1    
    23   11   12 ar   
    24   11   61 1    
    25   12   13 ar   
    26   12   72 1    
    27   13   14 ar   
    28   13   15 1    
    29   14   73 1    
    30   15   16 1    
    31   15   74 1    
    32   15   75 1    
    33   16   17 1    
    34   17   18 1    
    35   17   76 1    
    36   17   77 1    
    37   18   19 1    
    38   18   27 1    
    39   18   78 1    
    40   19   20 am   BACKBONE|DICT|INTERRES
    41   19   79 1    
    42   20   21 2    
    43   20   22 1    
    44   22   23 1    
    45   22   24 1    
    46   22   80 1    
    47   23   81 1    
    48   23   82 1    
    49   23   83 1    
    50   24   25 am   BACKBONE|DICT|INTERRES
    51   24   84 1    
    52   25   26 2    
    53   27   28 2    
    54   27   29 am   BACKBONE|DICT|INTERRES
    55   29   30 1    
    56   29   85 1    
    57   30   31 1    
    58   30   32 1    
    59   30   86 1    
    60   31   87 1    
    61   31   88 1    
    62   31   89 1    
    63   32   33 2    
    64   32   34 am   BACKBONE|DICT|INTERRES
    65   34   35 1    
    66   34   90 1    
    67   35   36 1    
    68   35   37 1    
    69   35   91 1    
    70   36   92 1    
    71   36   93 1    
    72   36   94 1    
    73   37   38 2    
    74   37   39 am   BACKBONE|DICT|INTERRES
    75   39   40 1    
    76   39   95 1    
    77   40   41 1    
    78   40   42 1    
    79   40   96 1    
    80   41   97 1    
    81   41   98 1    
    82   41   99 1    
    83   42   43 2    
    84   42   44 am   BACKBONE|DICT|INTERRES
    85   44   45 1    
    86   44  100 1    
    87   45   46 1    
    88   45   47 1    
    89   45  101 1    
    90   46  102 1    
    91   46  103 1    
    92   46  104 1    
    93   47   48 2    
    94   47   49 am   BACKBONE|DICT|INTERRES
    95   49   50 1    
    96   49  105 1    
    97   50   51 1    
    98   50   52 1    
    99   50  106 1    
   100   51  107 1    
   101   51  108 1    
   102   51  109 1    
   103   52   53 2    
   104   52   54 am   BACKBONE|DICT|INTERRES
   105   54   55 1    
   106   54  110 1    
   107   55   56 1    
   108   55   59 1    
   109   55  111 1    
   110   56   57 am   BACKBONE|DICT|INTERRES
   111   56   58 2    
   112   57  112 1    
   113   57  113 1    
   114   59   60 1    
   115   59  114 1    
   116   59  115 1    
   117   60   61 1    
   118   61  116 1    
   119   61  117 1    
@<TRIPOS>SUBSTRUCTURE
     1 UNK         1 GROUP             0       ****    0 ROOT    
