@<TRIPOS>MOLECULE
3R8
117   119    1
SMALL
USER_CHARGES


@<TRIPOS>ATOM
      1 CA         18.9861  -27.8222  -49.3414 C.3       0 UNK        -0.2013 
      2 C          18.9507  -28.2693  -47.8877 C.2       0 UNK         0.4866 
      3 O          19.4447  -29.3506  -47.5686 O.2       0 UNK        -0.5176 
      4 N          18.3630  -27.4494  -47.0076 N.am      1 UNK        -0.4884 
      5 CA         18.2687  -27.6909  -45.5642 C.3       1 UNK         0.0853 
      6 C6         17.2462  -26.7416  -44.8925 C.3       10 UNK        -0.0849 
      7 S7         15.5502  -27.1046  -45.4641 S.3       10 UNK        -0.2776 
      8 C8         14.7227  -27.6778  -43.9404 C.3       10 UNK         0.0316 
      9 C9         15.4918  -28.7603  -43.1880 C.ar      10 UNK        -0.0863 
     10 C10        15.9339  -29.9173  -43.8398 C.ar      10 UNK        -0.1009 
     11 C11        16.6478  -30.8959  -43.1416 C.ar      10 UNK        -0.0712 
     12 C12        16.8902  -30.7289  -41.7757 C.ar      10 UNK        -0.0894 
     13 C13        16.4374  -29.5875  -41.1088 C.ar      10 UNK        -0.0745 
     14 C14        15.7467  -28.6038  -41.8217 C.ar      10 UNK        -0.0972 
     15 C15        16.6640  -29.4378  -39.6115 C.3       10 UNK         0.0209 
     16 S16        18.4184  -29.1981  -39.1963 S.3       10 UNK        -0.2568 
     17 C17        18.7041  -27.4766  -39.7228 C.3       10 UNK        -0.0983 
     18 CA         20.1256  -27.3074  -40.3061 C.3       3 UNK         0.0876 
     19 N          20.2848  -28.0026  -41.5871 N.am      3 UNK        -0.4424 
     20 C          21.4624  -28.2228  -42.1885 C.2       2 UNK         0.4918 
     21 O          22.5499  -28.0114  -41.6472 O.2       2 UNK        -0.4875 
     22 CA         21.4338  -28.7392  -43.6392 C.3       2 UNK         0.0481 
     23 CB         21.8956  -30.1970  -43.7117 C.3       2 UNK        -0.1831 
     24 N          20.1129  -28.6432  -44.2639 N.am      2 UNK        -0.4498 
     25 C          19.6575  -27.5636  -44.9117 C.2       1 UNK         0.5027 
     26 O          20.2826  -26.5063  -45.0197 O.2       1 UNK        -0.4969 
     27 C          20.4979  -25.8182  -40.4624 C.2       3 UNK         0.5005 
     28 O          20.3781  -25.2658  -41.5583 O.2       3 UNK        -0.5279 
     29 N          21.0036  -25.2124  -39.3780 N.am      4 UNK        -0.4463 
     30 CA         21.6295  -23.8799  -39.2856 C.3       4 UNK         0.0283 
     31 CB         20.7035  -22.7524  -39.7840 C.3       4 UNK        -0.1875 
     32 C          23.0215  -23.8038  -39.9456 C.2       4 UNK         0.4949 
     33 O          23.8999  -23.1291  -39.4093 O.2       4 UNK        -0.5039 
     34 N          23.2275  -24.5404  -41.0466 N.am      5 UNK        -0.4663 
     35 CA         24.5356  -24.8001  -41.6602 C.3       5 UNK         0.0242 
     36 CB         24.3286  -25.2788  -43.1069 C.3       5 UNK        -0.1982 
     37 C          25.3869  -25.8112  -40.8619 C.2       5 UNK         0.5017 
     38 O          26.5899  -25.9027  -41.1077 O.2       5 UNK        -0.5012 
     39 N          24.7523  -26.5245  -39.9181 N.am      6 UNK        -0.4439 
     40 CA         25.3194  -27.4902  -38.9713 C.3       6 UNK         0.0297 
     41 CB         26.3310  -26.8099  -38.0234 C.3       6 UNK        -0.2006 
     42 C          25.8792  -28.7479  -39.6603 C.2       6 UNK         0.4892 
     43 O          27.0080  -29.1580  -39.3815 O.2       6 UNK        -0.5089 
     44 N          25.0642  -29.3466  -40.5343 N.am      7 UNK        -0.4243 
     45 CA         25.3312  -30.6172  -41.2053 C.3       7 UNK         0.0196 
     46 CB         25.8290  -30.3286  -42.6353 C.3       7 UNK        -0.2007 
     47 C          24.0639  -31.4883  -41.1791 C.2       7 UNK         0.5020 
     48 O          23.0359  -31.0658  -40.6450 O.2       7 UNK        -0.5147 
     49 N          24.1516  -32.6888  -41.7617 N.am      8 UNK        -0.4734 
     50 CA         23.0214  -33.5976  -41.9702 C.3       8 UNK         0.0238 
     51 CB         23.4289  -35.0131  -41.5283 C.3       8 UNK        -0.1912 
     52 C          22.6328  -33.5940  -43.4558 C.2       8 UNK         0.5038 
     53 O          23.5103  -33.4420  -44.3098 O.2       8 UNK        -0.5046 
     54 N          21.3361  -33.7773  -43.7367 N.am      9 UNK        -0.4200 
     55 CA         20.7783  -33.8250  -45.1016 C.3       9 UNK         0.0839 
     56 C          21.0835  -35.1386  -45.8809 C.2       9 UNK         0.5513 
     57 N          21.5960  -36.1882  -45.2493 N.am      9 UNK        -0.7519 
     58 O          20.8533  -35.2036  -47.0856 O.2       9 UNK        -0.4960 
     59 C59        19.2566  -33.5153  -45.1233 C.3       10 UNK        -0.0876 
     60 S60        18.8596  -31.8687  -44.4472 S.3       10 UNK        -0.2414 
     61 C61        17.1626  -32.1335  -43.8569 C.3       10 UNK         0.0169 
     62 H62        20.0175  -27.7404  -49.6834 H         1 UNK         0.0903 
     63 H63        18.4752  -28.5509  -49.9703 H         1 UNK         0.0903 
     64 H64        18.5039  -26.8551  -49.4833 H         1 UNK         0.0903 
     65 H65        17.9793  -26.5709  -47.3255 H         1 UNK         0.3096 
     66 H66        17.9241  -28.7180  -45.4261 H         1 UNK         0.1121 
     67 H67        17.2922  -26.8225  -43.8049 H         1 UNK         0.0849 
     68 H68        17.4777  -25.6995  -45.1211 H         1 UNK         0.0849 
     69 H69        14.5512  -26.8113  -43.2998 H         1 UNK         0.0865 
     70 H70        13.7360  -28.0637  -44.2000 H         1 UNK         0.0865 
     71 H71        15.7371  -30.0469  -44.8955 H         1 UNK         0.1346 
     72 H72        17.4342  -31.4872  -41.2289 H         1 UNK         0.1412 
     73 H73        15.3954  -27.7197  -41.3066 H         1 UNK         0.1426 
     74 H74        16.3066  -30.3378  -39.1092 H         1 UNK         0.0716 
     75 H75        16.0803  -28.6106  -39.2043 H         1 UNK         0.0716 
     76 H76        18.5607  -26.8421  -38.8460 H         1 UNK         0.0695 
     77 H77        17.9506  -27.1705  -40.4505 H         1 UNK         0.0695 
     78 H78        20.8391  -27.7494  -39.6064 H         1 UNK         0.0983 
     79 H79        19.4390  -28.1960  -42.0997 H         1 UNK         0.3095 
     80 H80        22.1417  -28.1389  -44.2145 H         1 UNK         0.0454 
     81 H81        21.3391  -30.8301  -43.0197 H         1 UNK         0.0851 
     82 H82        22.9485  -30.2772  -43.4565 H         1 UNK         0.0851 
     83 H83        21.7830  -30.6077  -44.7153 H         1 UNK         0.0851 
     84 H84        19.5513  -29.4855  -44.2528 H         1 UNK         0.2976 
     85 H85        21.0508  -25.7521  -38.5236 H         1 UNK         0.3116 
     86 H86        21.7880  -23.7132  -38.2188 H         1 UNK         0.0646 
     87 H87        20.5549  -22.7861  -40.8634 H         1 UNK         0.0847 
     88 H88        21.1287  -21.7751  -39.5522 H         1 UNK         0.0847 
     89 H89        19.7247  -22.8011  -39.3074 H         1 UNK         0.0847 
     90 H90        22.4248  -25.0108  -41.4521 H         1 UNK         0.3040 
     91 H91        25.0946  -23.8620  -41.6881 H         1 UNK         0.1015 
     92 H92        23.7770  -24.5437  -43.6931 H         1 UNK         0.0786 
     93 H93        23.7809  -26.2199  -43.1498 H         1 UNK         0.0786 
     94 H94        25.2857  -25.4378  -43.6057 H         1 UNK         0.0786 
     95 H95        23.7515  -26.4024  -39.8698 H         1 UNK         0.3172 
     96 H96        24.4848  -27.8329  -38.3577 H         1 UNK         0.0595 
     97 H97        27.2253  -26.4786  -38.5520 H         1 UNK         0.0839 
     98 H98        26.6547  -27.4975  -37.2411 H         1 UNK         0.0839 
     99 H99        25.8922  -25.9425  -37.5303 H         1 UNK         0.0839 
    100 H100       24.1363  -28.9643  -40.6972 H         1 UNK         0.2998 
    101 H101       26.1016  -31.1730  -40.6662 H         1 UNK         0.0822 
    102 H102       26.7870  -29.8087  -42.6125 H         1 UNK         0.0787 
    103 H103       25.9768  -31.2433  -43.2100 H         1 UNK         0.0787 
    104 H104       25.1324  -29.6986  -43.1879 H         1 UNK         0.0787 
    105 H105       25.0075  -32.9401  -42.2374 H         1 UNK         0.3055 
    106 H106       22.1589  -33.2815  -41.3784 H         1 UNK         0.1106 
    107 H107       22.6020  -35.7146  -41.6457 H         1 UNK         0.0828 
    108 H108       24.2674  -35.3953  -42.1123 H         1 UNK         0.0828 
    109 H109       23.7186  -35.0304  -40.4774 H         1 UNK         0.0828 
    110 H110       20.6754  -33.9057  -42.9847 H         1 UNK         0.2931 
    111 H111       21.2678  -33.0325  -45.6716 H         1 UNK         0.0412 
    112 H112       21.7911  -36.1479  -44.2623 H         1 UNK         0.3472 
    113 H113       21.7911  -37.0299  -45.7689 H         1 UNK         0.3472 
    114 H114       18.8714  -33.5470  -46.1446 H         1 UNK         0.0970 
    115 H115       18.7103  -34.2804  -44.5687 H         1 UNK         0.0970 
    116 H116       17.1381  -32.9904  -43.1818 H         1 UNK         0.0612 
    117 H117       16.5186  -32.3815  -44.7021 H         1 UNK         0.0612 
@<TRIPOS>BOND
     1    1    2 1    
     2    1   62 1    
     3    1   63 1    
     4    1   64 1    
     5    2    3 2    
     6    2    4 am   BACKBONE|DICT|INTERRES
     7    4    5 1    
     8    4   65 1    
     9    5    6 1    
    10    5   25 1    
    11    5   66 1    
    12    6    7 1    
    13    6   67 1    
    14    6   68 1    
    15    7    8 1    
    16    8    9 1    
    17    8   69 1    
    18    8   70 1    
    19    9   10 ar   
    20    9   14 ar   
    21   10   11 ar   
    22   10   71 1    
    23   11   12 ar   
    24   11   61 1    
    25   12   13 ar   
    26   12   72 1    
    27   13   14 ar   
    28   13   15 1    
    29   14   73 1    
    30   15   16 1    
    31   15   74 1    
    32   15   75 1    
    33   16   17 1    
    34   17   18 1    
    35   17   76 1    
    36   17   77 1    
    37   18   19 1    
    38   18   27 1    
    39   18   78 1    
    40   19   20 am   BACKBONE|DICT|INTERRES
    41   19   79 1    
    42   20   21 2    
    43   20   22 1    
    44   22   23 1    
    45   22   24 1    
    46   22   80 1    
    47   23   81 1    
    48   23   82 1    
    49   23   83 1    
    50   24   25 am   BACKBONE|DICT|INTERRES
    51   24   84 1    
    52   25   26 2    
    53   27   28 2    
    54   27   29 am   BACKBONE|DICT|INTERRES
    55   29   30 1    
    56   29   85 1    
    57   30   31 1    
    58   30   32 1    
    59   30   86 1    
    60   31   87 1    
    61   31   88 1    
    62   31   89 1    
    63   32   33 2    
    64   32   34 am   BACKBONE|DICT|INTERRES
    65   34   35 1    
    66   34   90 1    
    67   35   36 1    
    68   35   37 1    
    69   35   91 1    
    70   36   92 1    
    71   36   93 1    
    72   36   94 1    
    73   37   38 2    
    74   37   39 am   BACKBONE|DICT|INTERRES
    75   39   40 1    
    76   39   95 1    
    77   40   41 1    
    78   40   42 1    
    79   40   96 1    
    80   41   97 1    
    81   41   98 1    
    82   41   99 1    
    83   42   43 2    
    84   42   44 am   BACKBONE|DICT|INTERRES
    85   44   45 1    
    86   44  100 1    
    87   45   46 1    
    88   45   47 1    
    89   45  101 1    
    90   46  102 1    
    91   46  103 1    
    92   46  104 1    
    93   47   48 2    
    94   47   49 am   BACKBONE|DICT|INTERRES
    95   49   50 1    
    96   49  105 1    
    97   50   51 1    
    98   50   52 1    
    99   50  106 1    
   100   51  107 1    
   101   51  108 1    
   102   51  109 1    
   103   52   53 2    
   104   52   54 am   BACKBONE|DICT|INTERRES
   105   54   55 1    
   106   54  110 1    
   107   55   56 1    
   108   55   59 1    
   109   55  111 1    
   110   56   57 am   BACKBONE|DICT|INTERRES
   111   56   58 2    
   112   57  112 1    
   113   57  113 1    
   114   59   60 1    
   115   59  114 1    
   116   59  115 1    
   117   60   61 1    
   118   61  116 1    
   119   61  117 1    
@<TRIPOS>SUBSTRUCTURE
     1 UNK         1 GROUP             0       ****    0 ROOT    
