@<TRIPOS>MOLECULE
3R8
117   119    1
SMALL
USER_CHARGES


@<TRIPOS>ATOM
      1 CA         14.8663  -22.5813  -42.6271 C.3       0 UNK        -0.2013 
      2 C          15.9450  -23.4202  -43.2950 C.2       0 UNK         0.4866 
      3 O          16.1518  -23.3056  -44.5043 O.2       0 UNK        -0.5176 
      4 N          16.6415  -24.2617  -42.5203 N.am      1 UNK        -0.4884 
      5 CA         17.7148  -25.1498  -42.9821 C.3       1 UNK         0.0853 
      6 C6         17.8980  -26.3714  -42.0454 C.3       10 UNK        -0.0849 
      7 S7         16.4822  -27.5162  -42.1549 S.3       10 UNK        -0.2776 
      8 C8         17.2734  -29.1207  -41.7840 C.3       10 UNK         0.0316 
      9 C9         17.8716  -29.8669  -42.9814 C.ar      10 UNK        -0.0863 
     10 C10        17.9542  -31.2615  -42.9117 C.ar      10 UNK        -0.1009 
     11 C11        18.5120  -32.0044  -43.9556 C.ar      10 UNK        -0.0712 
     12 C12        19.0027  -31.3422  -45.0821 C.ar      10 UNK        -0.0894 
     13 C13        18.9330  -29.9498  -45.1728 C.ar      10 UNK        -0.0745 
     14 C14        18.3622  -29.2180  -44.1244 C.ar      10 UNK        -0.0972 
     15 C15        19.4662  -29.2497  -46.4151 C.3       10 UNK         0.0209 
     16 S16        21.2159  -28.7810  -46.2228 S.3       10 UNK        -0.2568 
     17 C17        21.0672  -27.2653  -45.2230 C.3       10 UNK        -0.0983 
     18 CA         22.0770  -26.1565  -45.6189 C.3       3 UNK         0.0876 
     19 N          21.6438  -24.8766  -45.0720 N.am      3 UNK        -0.4424 
     20 C          20.8776  -23.9843  -45.7024 C.2       2 UNK         0.4918 
     21 O          20.5799  -24.0486  -46.8963 O.2       2 UNK        -0.4875 
     22 CA         20.2393  -22.9093  -44.8056 C.3       2 UNK         0.0481 
     23 CB         19.8552  -21.6407  -45.5873 C.3       2 UNK        -0.1831 
     24 N          19.0379  -23.4848  -44.1995 N.am      2 UNK        -0.4498 
     25 C          19.0311  -24.3742  -43.1978 C.2       1 UNK         0.5027 
     26 O          20.0149  -24.6095  -42.4933 O.2       1 UNK        -0.4969 
     27 C          23.4881  -26.4560  -45.0903 C.2       3 UNK         0.5005 
     28 O          23.8486  -25.9869  -44.0069 O.2       3 UNK        -0.5279 
     29 N          24.2496  -27.2548  -45.8496 N.am      4 UNK        -0.4463 
     30 CA         25.5724  -27.7489  -45.4587 C.3       4 UNK         0.0283 
     31 CB         26.2950  -28.3128  -46.6929 C.3       4 UNK        -0.1875 
     32 C          25.5033  -28.8078  -44.3441 C.2       4 UNK         0.4949 
     33 O          26.4194  -28.8757  -43.5246 O.2       4 UNK        -0.5039 
     34 N          24.4278  -29.6090  -44.3352 N.am      5 UNK        -0.4663 
     35 CA         24.1487  -30.5990  -43.2962 C.3       5 UNK         0.0242 
     36 CB         23.3332  -31.7627  -43.8873 C.3       5 UNK        -0.1982 
     37 C          23.4401  -29.9304  -42.1104 C.2       5 UNK         0.5017 
     38 O          24.0260  -29.8335  -41.0319 O.2       5 UNK        -0.5012 
     39 N          22.2036  -29.4615  -42.3413 N.am      6 UNK        -0.4439 
     40 CA         21.3337  -28.7676  -41.3842 C.3       6 UNK         0.0297 
     41 CB         21.8428  -27.3287  -41.1378 C.3       6 UNK        -0.2006 
     42 C          21.1290  -29.5899  -40.0962 C.2       6 UNK         0.4892 
     43 O          20.5176  -30.6559  -40.1581 O.2       6 UNK        -0.5089 
     44 N          21.6698  -29.1140  -38.9662 N.am      7 UNK        -0.4243 
     45 CA         21.6404  -29.7948  -37.6683 C.3       7 UNK         0.0196 
     46 CB         22.1850  -28.8457  -36.5889 C.3       7 UNK        -0.2007 
     47 C          22.4053  -31.1321  -37.6432 C.2       7 UNK         0.5020 
     48 O          22.0589  -32.0025  -36.8444 O.2       7 UNK        -0.5147 
     49 N          23.4089  -31.2937  -38.5186 N.am      8 UNK        -0.4734 
     50 CA         24.1790  -32.5338  -38.6670 C.3       8 UNK         0.0238 
     51 CB         25.5665  -32.2082  -39.2465 C.3       8 UNK        -0.1912 
     52 C          23.4632  -33.5927  -39.5270 C.2       8 UNK         0.5038 
     53 O          23.9553  -34.7188  -39.6097 O.2       8 UNK        -0.5046 
     54 N          22.3339  -33.2299  -40.1526 N.am      9 UNK        -0.4200 
     55 CA         21.4956  -34.1288  -40.9594 C.3       9 UNK         0.0839 
     56 C          20.7060  -35.1885  -40.1335 C.2       9 UNK         0.5513 
     57 N          20.5678  -35.0383  -38.8207 N.am      9 UNK        -0.7519 
     58 O          20.2200  -36.1695  -40.6896 O.2       9 UNK        -0.4960 
     59 C59        20.5610  -33.3116  -41.8888 C.3       10 UNK        -0.0876 
     60 S60        20.2666  -34.1062  -43.5018 S.3       10 UNK        -0.2414 
     61 C61        18.5824  -33.5232  -43.8682 C.3       10 UNK         0.0169 
     62 H62        13.8974  -22.7865  -43.0815 H         1 UNK         0.0903 
     63 H63        14.7907  -22.7880  -41.5597 H         1 UNK         0.0903 
     64 H64        15.0842  -21.5211  -42.7531 H         1 UNK         0.0903 
     65 H65        16.4369  -24.3069  -41.5318 H         1 UNK         0.3096 
     66 H66        17.4368  -25.5394  -43.9648 H         1 UNK         0.1121 
     67 H67        18.0250  -26.0541  -41.0087 H         1 UNK         0.0849 
     68 H68        18.8043  -26.9211  -42.3035 H         1 UNK         0.0849 
     69 H69        16.5094  -29.7484  -41.3223 H         1 UNK         0.0865 
     70 H70        18.0432  -28.9840  -41.0237 H         1 UNK         0.0865 
     71 H71        17.5845  -31.7746  -42.0342 H         1 UNK         0.1346 
     72 H72        19.4427  -31.9140  -45.8879 H         1 UNK         0.1412 
     73 H73        18.3059  -28.1438  -44.2084 H         1 UNK         0.1426 
     74 H74        18.8605  -28.3742  -46.6538 H         1 UNK         0.0716 
     75 H75        19.3799  -29.9134  -47.2768 H         1 UNK         0.0716 
     76 H76        21.1478  -27.5231  -44.1672 H         1 UNK         0.0695 
     77 H77        20.0544  -26.8810  -45.3500 H         1 UNK         0.0695 
     78 H78        22.1309  -26.0786  -46.7075 H         1 UNK         0.0983 
     79 H79        21.8659  -24.7403  -44.0931 H         1 UNK         0.3095 
     80 H80        20.9493  -22.6294  -44.0243 H         1 UNK         0.0454 
     81 H81        19.1180  -21.8468  -46.3644 H         1 UNK         0.0851 
     82 H82        20.7286  -21.2041  -46.0731 H         1 UNK         0.0851 
     83 H83        19.4381  -20.8809  -44.9262 H         1 UNK         0.0851 
     84 H84        18.1600  -23.3323  -44.6872 H         1 UNK         0.2976 
     85 H85        23.8728  -27.6015  -46.7212 H         1 UNK         0.3116 
     86 H86        26.1547  -26.9059  -45.0800 H         1 UNK         0.0646 
     87 H87        25.7572  -29.1554  -47.1293 H         1 UNK         0.0847 
     88 H88        27.2937  -28.6655  -46.4312 H         1 UNK         0.0847 
     89 H89        26.4148  -27.5529  -47.4653 H         1 UNK         0.0847 
     90 H90        23.7216  -29.4720  -45.0440 H         1 UNK         0.3040 
     91 H91        25.0916  -31.0113  -42.9285 H         1 UNK         0.1015 
     92 H92        23.8698  -32.2394  -44.7078 H         1 UNK         0.0786 
     93 H93        22.3616  -31.4471  -44.2699 H         1 UNK         0.0786 
     94 H94        23.1596  -32.5323  -43.1349 H         1 UNK         0.0786 
     95 H95        21.7989  -29.6300  -43.2511 H         1 UNK         0.3172 
     96 H96        20.3557  -28.6960  -41.8583 H         1 UNK         0.0595 
     97 H97        22.8482  -27.3093  -40.7159 H         1 UNK         0.0839 
     98 H98        21.1820  -26.7840  -40.4619 H         1 UNK         0.0839 
     99 H99        21.8756  -26.7585  -42.0654 H         1 UNK         0.0839 
    100 H100       22.1832  -28.2459  -39.0127 H         1 UNK         0.2998 
    101 H101       20.5965  -30.0158  -37.4353 H         1 UNK         0.0822 
    102 H102       21.5973  -27.9292  -36.5316 H         1 UNK         0.0787 
    103 H103       22.1488  -29.3133  -35.6038 H         1 UNK         0.0787 
    104 H104       23.2228  -28.5698  -36.7805 H         1 UNK         0.0787 
    105 H105       23.6135  -30.5535  -39.1846 H         1 UNK         0.3055 
    106 H106       24.3259  -32.9742  -37.6779 H         1 UNK         0.1106 
    107 H107       26.2024  -33.0944  -39.2530 H         1 UNK         0.0828 
    108 H108       26.0781  -31.4490  -38.6549 H         1 UNK         0.0828 
    109 H109       25.5055  -31.8501  -40.2741 H         1 UNK         0.0828 
    110 H110       21.9712  -32.2960  -40.0061 H         1 UNK         0.2931 
    111 H111       22.1861  -34.6909  -41.5916 H         1 UNK         0.0412 
    112 H112       20.9629  -34.2388  -38.3501 H         1 UNK         0.3472 
    113 H113       20.0604  -35.7331  -38.2953 H         1 UNK         0.3472 
    114 H114       19.6150  -33.0935  -41.3900 H         1 UNK         0.0970 
    115 H115       20.9944  -32.3370  -42.1140 H         1 UNK         0.0970 
    116 H116       18.2567  -33.9573  -44.8146 H         1 UNK         0.0612 
    117 H117       17.8980  -33.9007  -43.1068 H         1 UNK         0.0612 
@<TRIPOS>BOND
     1    1    2 1    
     2    1   62 1    
     3    1   63 1    
     4    1   64 1    
     5    2    3 2    
     6    2    4 am   BACKBONE|DICT|INTERRES
     7    4    5 1    
     8    4   65 1    
     9    5    6 1    
    10    5   25 1    
    11    5   66 1    
    12    6    7 1    
    13    6   67 1    
    14    6   68 1    
    15    7    8 1    
    16    8    9 1    
    17    8   69 1    
    18    8   70 1    
    19    9   10 ar   
    20    9   14 ar   
    21   10   11 ar   
    22   10   71 1    
    23   11   12 ar   
    24   11   61 1    
    25   12   13 ar   
    26   12   72 1    
    27   13   14 ar   
    28   13   15 1    
    29   14   73 1    
    30   15   16 1    
    31   15   74 1    
    32   15   75 1    
    33   16   17 1    
    34   17   18 1    
    35   17   76 1    
    36   17   77 1    
    37   18   19 1    
    38   18   27 1    
    39   18   78 1    
    40   19   20 am   BACKBONE|DICT|INTERRES
    41   19   79 1    
    42   20   21 2    
    43   20   22 1    
    44   22   23 1    
    45   22   24 1    
    46   22   80 1    
    47   23   81 1    
    48   23   82 1    
    49   23   83 1    
    50   24   25 am   BACKBONE|DICT|INTERRES
    51   24   84 1    
    52   25   26 2    
    53   27   28 2    
    54   27   29 am   BACKBONE|DICT|INTERRES
    55   29   30 1    
    56   29   85 1    
    57   30   31 1    
    58   30   32 1    
    59   30   86 1    
    60   31   87 1    
    61   31   88 1    
    62   31   89 1    
    63   32   33 2    
    64   32   34 am   BACKBONE|DICT|INTERRES
    65   34   35 1    
    66   34   90 1    
    67   35   36 1    
    68   35   37 1    
    69   35   91 1    
    70   36   92 1    
    71   36   93 1    
    72   36   94 1    
    73   37   38 2    
    74   37   39 am   BACKBONE|DICT|INTERRES
    75   39   40 1    
    76   39   95 1    
    77   40   41 1    
    78   40   42 1    
    79   40   96 1    
    80   41   97 1    
    81   41   98 1    
    82   41   99 1    
    83   42   43 2    
    84   42   44 am   BACKBONE|DICT|INTERRES
    85   44   45 1    
    86   44  100 1    
    87   45   46 1    
    88   45   47 1    
    89   45  101 1    
    90   46  102 1    
    91   46  103 1    
    92   46  104 1    
    93   47   48 2    
    94   47   49 am   BACKBONE|DICT|INTERRES
    95   49   50 1    
    96   49  105 1    
    97   50   51 1    
    98   50   52 1    
    99   50  106 1    
   100   51  107 1    
   101   51  108 1    
   102   51  109 1    
   103   52   53 2    
   104   52   54 am   BACKBONE|DICT|INTERRES
   105   54   55 1    
   106   54  110 1    
   107   55   56 1    
   108   55   59 1    
   109   55  111 1    
   110   56   57 am   BACKBONE|DICT|INTERRES
   111   56   58 2    
   112   57  112 1    
   113   57  113 1    
   114   59   60 1    
   115   59  114 1    
   116   59  115 1    
   117   60   61 1    
   118   61  116 1    
   119   61  117 1    
@<TRIPOS>SUBSTRUCTURE
     1 UNK         1 GROUP             0       ****    0 ROOT    
