@<TRIPOS>MOLECULE
3R8
117   119    1
SMALL
USER_CHARGES


@<TRIPOS>ATOM
      1 CA         21.3465  -24.4906  -41.5091 C.3       0 UNK        -0.2013 
      2 C          20.2402  -24.8916  -42.4716 C.2       0 UNK         0.4866 
      3 O          20.5289  -25.4216  -43.5488 O.2       0 UNK        -0.5176 
      4 N          18.9802  -24.6338  -42.0922 N.am      1 UNK        -0.4884 
      5 CA         17.7673  -24.8566  -42.8923 C.3       1 UNK         0.0853 
      6 C6         17.4757  -26.3640  -43.1568 C.3       10 UNK        -0.0849 
      7 S7         17.2512  -27.3114  -41.6133 S.3       10 UNK        -0.2776 
      8 C8         16.3881  -28.7984  -42.2174 C.3       10 UNK         0.0316 
      9 C9         17.2835  -29.6586  -43.0985 C.ar      10 UNK        -0.0863 
     10 C10        18.1398  -30.6047  -42.5257 C.ar      10 UNK        -0.1009 
     11 C11        18.9626  -31.3977  -43.3325 C.ar      10 UNK        -0.0712 
     12 C12        18.9338  -31.2298  -44.7200 C.ar      10 UNK        -0.0894 
     13 C13        18.0829  -30.2869  -45.3042 C.ar      10 UNK        -0.0745 
     14 C14        17.2501  -29.5148  -44.4887 C.ar      10 UNK        -0.0972 
     15 C15        18.0621  -30.1079  -46.8168 C.3       10 UNK         0.0209 
     16 S16        18.5153  -28.4189  -47.3281 S.3       10 UNK        -0.2568 
     17 C17        20.2026  -28.2677  -46.6474 C.3       10 UNK        -0.0983 
     18 CA         20.8782  -26.9119  -46.9909 C.3       3 UNK         0.0876 
     19 N          20.0740  -25.7824  -46.5065 N.am      3 UNK        -0.4424 
     20 C          19.3959  -24.9317  -47.2920 C.2       2 UNK         0.4918 
     21 O          19.5299  -24.8762  -48.5153 O.2       2 UNK        -0.4875 
     22 CA         18.3593  -24.0232  -46.6019 C.3       2 UNK         0.0481 
     23 CB         17.1259  -23.7605  -47.4856 C.3       2 UNK        -0.1831 
     24 N          17.9332  -24.6268  -45.3388 N.am      2 UNK        -0.4498 
     25 C          17.8510  -23.9873  -44.1677 C.2       1 UNK         0.5027 
     26 O          17.9029  -22.7605  -44.0533 O.2       1 UNK        -0.4969 
     27 C          22.3169  -26.8769  -46.4344 C.2       3 UNK         0.5005 
     28 O          23.1055  -27.7589  -46.7786 O.2       3 UNK        -0.5279 
     29 N          22.6301  -25.8951  -45.5716 N.am      4 UNK        -0.4463 
     30 CA         23.8338  -25.8014  -44.7337 C.3       4 UNK         0.0283 
     31 CB         25.1152  -25.6500  -45.5812 C.3       4 UNK        -0.1875 
     32 C          23.9047  -26.9587  -43.7171 C.2       4 UNK         0.4949 
     33 O          24.9689  -27.5425  -43.5015 O.2       4 UNK        -0.5039 
     34 N          22.7504  -27.2744  -43.1141 N.am      5 UNK        -0.4663 
     35 CA         22.5502  -28.3389  -42.1310 C.3       5 UNK         0.0242 
     36 CB         21.0482  -28.6683  -42.0611 C.3       5 UNK        -0.1982 
     37 C          23.1382  -27.9689  -40.7560 C.2       5 UNK         0.5017 
     38 O          22.3937  -27.7222  -39.8060 O.2       5 UNK        -0.5012 
     39 N          24.4750  -27.9236  -40.6812 N.am      6 UNK        -0.4439 
     40 CA         25.2536  -27.6672  -39.4628 C.3       6 UNK         0.0297 
     41 CB         26.7236  -27.4344  -39.8472 C.3       6 UNK        -0.2006 
     42 C          25.1420  -28.7871  -38.4082 C.2       6 UNK         0.4892 
     43 O          25.4019  -28.5361  -37.2308 O.2       6 UNK        -0.5089 
     44 N          24.7479  -29.9863  -38.8478 N.am      7 UNK        -0.4243 
     45 CA         24.3643  -31.1286  -38.0275 C.3       7 UNK         0.0196 
     46 CB         25.4280  -32.2306  -38.1678 C.3       7 UNK        -0.2007 
     47 C          22.9997  -31.6207  -38.5258 C.2       7 UNK         0.5020 
     48 O          22.6070  -31.3041  -39.6535 O.2       7 UNK        -0.5147 
     49 N          22.3098  -32.4147  -37.6978 N.am      8 UNK        -0.4734 
     50 CA         20.9790  -32.9787  -37.9622 C.3       8 UNK         0.0238 
     51 CB         20.3448  -33.4016  -36.6234 C.3       8 UNK        -0.1912 
     52 C          21.0005  -34.1254  -38.9961 C.2       8 UNK         0.5038 
     53 O          20.5819  -35.2436  -38.6907 O.2       8 UNK        -0.5046 
     54 N          21.5041  -33.8165  -40.1958 N.am      9 UNK        -0.4200 
     55 CA         21.6320  -34.6937  -41.3704 C.3       9 UNK         0.0839 
     56 C          22.6703  -35.8465  -41.2094 C.2       9 UNK         0.5513 
     57 N          23.5582  -35.8065  -40.2229 N.am      9 UNK        -0.7519 
     58 O          22.6970  -36.7774  -42.0107 O.2       9 UNK        -0.4960 
     59 C59        20.2592  -35.1987  -41.9092 C.3       10 UNK        -0.0876 
     60 S60        18.9731  -33.9402  -42.2635 S.3       10 UNK        -0.2414 
     61 C61        19.8891  -32.4297  -42.7085 C.3       10 UNK         0.0169 
     62 H62        21.6729  -25.3535  -40.9317 H         1 UNK         0.0903 
     63 H63        21.0144  -23.7209  -40.8129 H         1 UNK         0.0903 
     64 H64        22.2033  -24.1001  -42.0572 H         1 UNK         0.0903 
     65 H65        18.8214  -24.1878  -41.1995 H         1 UNK         0.3096 
     66 H66        16.9326  -24.4544  -42.3156 H         1 UNK         0.1121 
     67 H67        16.5672  -26.4714  -43.7524 H         1 UNK         0.0849 
     68 H68        18.2827  -26.8352  -43.7208 H         1 UNK         0.0849 
     69 H69        16.0508  -29.3817  -41.3593 H         1 UNK         0.0865 
     70 H70        15.4848  -28.5066  -42.7555 H         1 UNK         0.0865 
     71 H71        18.1674  -30.7249  -41.4513 H         1 UNK         0.1346 
     72 H72        19.5743  -31.8363  -45.3456 H         1 UNK         0.1412 
     73 H73        16.5880  -28.7891  -44.9406 H         1 UNK         0.1426 
     74 H74        18.7349  -30.8154  -47.3041 H         1 UNK         0.0716 
     75 H75        17.0606  -30.3314  -47.1865 H         1 UNK         0.0716 
     76 H76        20.7923  -29.1021  -47.0321 H         1 UNK         0.0695 
     77 H77        20.1517  -28.3989  -45.5646 H         1 UNK         0.0695 
     78 H78        20.9840  -26.8560  -48.0764 H         1 UNK         0.0983 
     79 H79        19.9647  -25.7163  -45.4997 H         1 UNK         0.3095 
     80 H80        18.8624  -23.0724  -46.4145 H         1 UNK         0.0454 
     81 H81        16.4062  -23.1172  -46.9794 H         1 UNK         0.0851 
     82 H82        16.6183  -24.6883  -47.7519 H         1 UNK         0.0851 
     83 H83        17.4055  -23.2613  -48.4142 H         1 UNK         0.0851 
     84 H84        17.8552  -25.6342  -45.3475 H         1 UNK         0.2976 
     85 H85        21.8969  -25.2390  -45.3356 H         1 UNK         0.3116 
     86 H86        23.7232  -24.8893  -44.1454 H         1 UNK         0.0646 
     87 H87        25.0266  -24.8294  -46.2927 H         1 UNK         0.0847 
     88 H88        25.9761  -25.4372  -44.9464 H         1 UNK         0.0847 
     89 H89        25.3462  -26.5569  -46.1404 H         1 UNK         0.0847 
     90 H90        21.9329  -26.7124  -43.3354 H         1 UNK         0.3040 
     91 H91        23.0679  -29.2357  -42.4789 H         1 UNK         0.1015 
     92 H92        20.4567  -27.8176  -41.7216 H         1 UNK         0.0786 
     93 H93        20.8626  -29.4894  -41.3674 H         1 UNK         0.0786 
     94 H94        20.6624  -28.9721  -43.0343 H         1 UNK         0.0786 
     95 H95        24.9918  -28.0468  -41.5473 H         1 UNK         0.3172 
     96 H96        24.8694  -26.7518  -39.0081 H         1 UNK         0.0595 
     97 H97        27.1609  -28.3136  -40.3221 H         1 UNK         0.0839 
     98 H98        27.3260  -27.2062  -38.9667 H         1 UNK         0.0839 
     99 H99        26.8268  -26.5946  -40.5347 H         1 UNK         0.0839 
    100 H100       24.4778  -30.0667  -39.8189 H         1 UNK         0.2998 
    101 H101       24.2682  -30.8349  -36.9799 H         1 UNK         0.0822 
    102 H102       26.4072  -31.8755  -37.8456 H         1 UNK         0.0787 
    103 H103       25.1814  -33.0980  -37.5543 H         1 UNK         0.0787 
    104 H104       25.5208  -32.5741  -39.1991 H         1 UNK         0.0787 
    105 H105       22.7247  -32.6567  -36.8087 H         1 UNK         0.3055 
    106 H106       20.3528  -32.1905  -38.3873 H         1 UNK         0.1106 
    107 H107       20.2698  -32.5596  -35.9351 H         1 UNK         0.0828 
    108 H108       19.3339  -33.7837  -36.7727 H         1 UNK         0.0828 
    109 H109       20.9209  -34.1873  -36.1330 H         1 UNK         0.0828 
    110 H110       21.8781  -32.8765  -40.3002 H         1 UNK         0.2931 
    111 H111       22.0723  -34.0640  -42.1427 H         1 UNK         0.0412 
    112 H112       23.5493  -35.0494  -39.5594 H         1 UNK         0.3472 
    113 H113       24.2324  -36.5507  -40.1344 H         1 UNK         0.3472 
    114 H114       20.4115  -35.7513  -42.8381 H         1 UNK         0.0970 
    115 H115       19.8299  -35.9198  -41.2118 H         1 UNK         0.0970 
    116 H116       20.3595  -32.0017  -41.8231 H         1 UNK         0.0612 
    117 H117       20.6905  -32.6800  -43.4048 H         1 UNK         0.0612 
@<TRIPOS>BOND
     1    1    2 1    
     2    1   62 1    
     3    1   63 1    
     4    1   64 1    
     5    2    3 2    
     6    2    4 am   BACKBONE|DICT|INTERRES
     7    4    5 1    
     8    4   65 1    
     9    5    6 1    
    10    5   25 1    
    11    5   66 1    
    12    6    7 1    
    13    6   67 1    
    14    6   68 1    
    15    7    8 1    
    16    8    9 1    
    17    8   69 1    
    18    8   70 1    
    19    9   10 ar   
    20    9   14 ar   
    21   10   11 ar   
    22   10   71 1    
    23   11   12 ar   
    24   11   61 1    
    25   12   13 ar   
    26   12   72 1    
    27   13   14 ar   
    28   13   15 1    
    29   14   73 1    
    30   15   16 1    
    31   15   74 1    
    32   15   75 1    
    33   16   17 1    
    34   17   18 1    
    35   17   76 1    
    36   17   77 1    
    37   18   19 1    
    38   18   27 1    
    39   18   78 1    
    40   19   20 am   BACKBONE|DICT|INTERRES
    41   19   79 1    
    42   20   21 2    
    43   20   22 1    
    44   22   23 1    
    45   22   24 1    
    46   22   80 1    
    47   23   81 1    
    48   23   82 1    
    49   23   83 1    
    50   24   25 am   BACKBONE|DICT|INTERRES
    51   24   84 1    
    52   25   26 2    
    53   27   28 2    
    54   27   29 am   BACKBONE|DICT|INTERRES
    55   29   30 1    
    56   29   85 1    
    57   30   31 1    
    58   30   32 1    
    59   30   86 1    
    60   31   87 1    
    61   31   88 1    
    62   31   89 1    
    63   32   33 2    
    64   32   34 am   BACKBONE|DICT|INTERRES
    65   34   35 1    
    66   34   90 1    
    67   35   36 1    
    68   35   37 1    
    69   35   91 1    
    70   36   92 1    
    71   36   93 1    
    72   36   94 1    
    73   37   38 2    
    74   37   39 am   BACKBONE|DICT|INTERRES
    75   39   40 1    
    76   39   95 1    
    77   40   41 1    
    78   40   42 1    
    79   40   96 1    
    80   41   97 1    
    81   41   98 1    
    82   41   99 1    
    83   42   43 2    
    84   42   44 am   BACKBONE|DICT|INTERRES
    85   44   45 1    
    86   44  100 1    
    87   45   46 1    
    88   45   47 1    
    89   45  101 1    
    90   46  102 1    
    91   46  103 1    
    92   46  104 1    
    93   47   48 2    
    94   47   49 am   BACKBONE|DICT|INTERRES
    95   49   50 1    
    96   49  105 1    
    97   50   51 1    
    98   50   52 1    
    99   50  106 1    
   100   51  107 1    
   101   51  108 1    
   102   51  109 1    
   103   52   53 2    
   104   52   54 am   BACKBONE|DICT|INTERRES
   105   54   55 1    
   106   54  110 1    
   107   55   56 1    
   108   55   59 1    
   109   55  111 1    
   110   56   57 am   BACKBONE|DICT|INTERRES
   111   56   58 2    
   112   57  112 1    
   113   57  113 1    
   114   59   60 1    
   115   59  114 1    
   116   59  115 1    
   117   60   61 1    
   118   61  116 1    
   119   61  117 1    
@<TRIPOS>SUBSTRUCTURE
     1 UNK         1 GROUP             0       ****    0 ROOT    
