@<TRIPOS>MOLECULE
3R8
117   119    1
SMALL
USER_CHARGES


@<TRIPOS>ATOM
      1 CA         16.1307  -25.9201  -40.2810 C.3       0 UNK        -0.2013 
      2 C          16.9719  -27.1687  -40.0257 C.2       0 UNK         0.4866 
      3 O          17.1390  -27.5524  -38.8696 O.2       0 UNK        -0.5176 
      4 N          17.5045  -27.8412  -41.0551 N.am      1 UNK        -0.4884 
      5 CA         17.4700  -27.4712  -42.4766 C.3       1 UNK         0.0853 
      6 C6         17.8773  -28.6632  -43.3766 C.3       10 UNK        -0.0849 
      7 S7         16.6575  -30.0185  -43.3319 S.3       10 UNK        -0.2776 
      8 C8         16.7262  -30.6252  -45.0524 C.3       10 UNK         0.0316 
      9 C9         18.1407  -31.0185  -45.4584 C.ar      10 UNK        -0.0863 
     10 C10        18.7742  -32.0925  -44.8302 C.ar      10 UNK        -0.1009 
     11 C11        20.0921  -32.4268  -45.1483 C.ar      10 UNK        -0.0712 
     12 C12        20.7762  -31.6876  -46.1174 C.ar      10 UNK        -0.0894 
     13 C13        20.1470  -30.6223  -46.7708 C.ar      10 UNK        -0.0745 
     14 C14        18.8261  -30.2977  -46.4414 C.ar      10 UNK        -0.0972 
     15 C15        20.8947  -29.8304  -47.8372 C.3       10 UNK         0.0209 
     16 S16        20.9538  -28.0432  -47.4843 S.3       10 UNK        -0.2568 
     17 C17        21.9122  -28.0097  -45.9335 C.3       10 UNK        -0.0983 
     18 CA         21.9896  -26.5825  -45.3339 C.3       3 UNK         0.0876 
     19 N          20.6570  -26.0569  -45.0254 N.am      3 UNK        -0.4424 
     20 C          20.3359  -24.7704  -44.8344 C.2       2 UNK         0.4918 
     21 O          21.1374  -23.8441  -44.9678 O.2       2 UNK        -0.4875 
     22 CA         18.8843  -24.4531  -44.4218 C.3       2 UNK         0.0481 
     23 CB         18.1217  -23.8276  -45.6008 C.3       2 UNK        -0.1831 
     24 N          18.1276  -25.6080  -43.9211 N.am      2 UNK        -0.4498 
     25 C          18.3752  -26.2564  -42.7731 C.2       1 UNK         0.5027 
     26 O          19.2829  -25.9487  -41.9980 O.2       1 UNK        -0.4969 
     27 C          22.8807  -26.5284  -44.0744 C.2       3 UNK         0.5005 
     28 O          23.1694  -27.5673  -43.4760 O.2       3 UNK        -0.5279 
     29 N          23.2786  -25.3067  -43.6884 N.am      4 UNK        -0.4463 
     30 CA         23.9789  -24.9312  -42.4518 C.3       4 UNK         0.0283 
     31 CB         24.2230  -23.4134  -42.4657 C.3       4 UNK        -0.1875 
     32 C          25.2917  -25.6783  -42.1506 C.2       4 UNK         0.4949 
     33 O          25.7357  -25.6663  -41.0026 O.2       4 UNK        -0.5039 
     34 N          25.8780  -26.3302  -43.1629 N.am      5 UNK        -0.4663 
     35 CA         27.0167  -27.2416  -43.0293 C.3       5 UNK         0.0242 
     36 CB         27.5334  -27.6012  -44.4320 C.3       5 UNK        -0.1982 
     37 C          26.6965  -28.5214  -42.2296 C.2       5 UNK         0.5017 
     38 O          27.6289  -29.1484  -41.7246 O.2       5 UNK        -0.5012 
     39 N          25.4100  -28.8861  -42.1270 N.am      6 UNK        -0.4439 
     40 CA         24.9264  -30.0309  -41.3560 C.3       6 UNK         0.0297 
     41 CB         24.6374  -31.2129  -42.2958 C.3       6 UNK        -0.2006 
     42 C          23.6952  -29.6491  -40.5242 C.2       6 UNK         0.4892 
     43 O          23.7304  -29.8025  -39.3028 O.2       6 UNK        -0.5089 
     44 N          22.6455  -29.1501  -41.1955 N.am      7 UNK        -0.4243 
     45 CA         21.3432  -28.6833  -40.6948 C.3       7 UNK         0.0196 
     46 CB         21.5012  -27.4220  -39.8260 C.3       7 UNK        -0.2007 
     47 C          20.4909  -29.7416  -39.9715 C.2       7 UNK         0.5020 
     48 O          19.3478  -29.9743  -40.3658 O.2       7 UNK        -0.5147 
     49 N          21.0527  -30.3576  -38.9252 N.am      8 UNK        -0.4734 
     50 CA         20.3994  -31.3039  -38.0142 C.3       8 UNK         0.0238 
     51 CB         21.3360  -31.5727  -36.8249 C.3       8 UNK        -0.1912 
     52 C          19.9614  -32.6273  -38.6653 C.2       8 UNK         0.5038 
     53 O          19.1376  -33.3352  -38.0841 O.2       8 UNK        -0.5046 
     54 N          20.5048  -32.9341  -39.8490 N.am      9 UNK        -0.4200 
     55 CA         20.0787  -34.0458  -40.7082 C.3       9 UNK         0.0839 
     56 C          18.6702  -33.8642  -41.3511 C.2       9 UNK         0.5513 
     57 N          18.0635  -32.6828  -41.3083 N.am      9 UNK        -0.7519 
     58 O          18.1175  -34.8194  -41.8900 O.2       9 UNK        -0.4960 
     59 C59        21.1685  -34.3961  -41.7555 C.3       10 UNK        -0.0876 
     60 S60        21.5548  -33.0172  -42.8924 S.3       10 UNK        -0.2414 
     61 C61        20.7687  -33.5828  -44.4329 C.3       10 UNK         0.0169 
     62 H62        16.7532  -25.0968  -40.6296 H         1 UNK         0.0903 
     63 H63        15.3473  -26.1099  -41.0136 H         1 UNK         0.0903 
     64 H64        15.6434  -25.5972  -39.3611 H         1 UNK         0.0903 
     65 H65        18.0662  -28.6630  -40.8441 H         1 UNK         0.3096 
     66 H66        16.4473  -27.1900  -42.7342 H         1 UNK         0.1121 
     67 H67        18.8502  -29.0635  -43.0837 H         1 UNK         0.0849 
     68 H68        17.9821  -28.3431  -44.4146 H         1 UNK         0.0849 
     69 H69        16.3269  -29.8593  -45.7191 H         1 UNK         0.0865 
     70 H70        16.0693  -31.4904  -45.1516 H         1 UNK         0.0865 
     71 H71        18.2464  -32.6535  -44.0719 H         1 UNK         0.1346 
     72 H72        21.7985  -31.9435  -46.3601 H         1 UNK         0.1412 
     73 H73        18.3420  -29.4689  -46.9399 H         1 UNK         0.1426 
     74 H74        20.4008  -29.9822  -48.7977 H         1 UNK         0.0716 
     75 H75        21.9152  -30.1985  -47.9543 H         1 UNK         0.0716 
     76 H76        22.9122  -28.3938  -46.1444 H         1 UNK         0.0695 
     77 H77        21.4579  -28.7007  -45.2204 H         1 UNK         0.0695 
     78 H78        22.4504  -25.9344  -46.0830 H         1 UNK         0.0983 
     79 H79        19.9334  -26.7477  -44.9076 H         1 UNK         0.3095 
     80 H80        18.9333  -23.7140  -43.6194 H         1 UNK         0.0454 
     81 H81        18.0260  -24.5231  -46.4356 H         1 UNK         0.0851 
     82 H82        18.6376  -22.9417  -45.9742 H         1 UNK         0.0851 
     83 H83        17.1202  -23.5137  -45.3062 H         1 UNK         0.0851 
     84 H84        17.3626  -25.9203  -44.5030 H         1 UNK         0.2976 
     85 H85        22.9145  -24.5317  -44.2335 H         1 UNK         0.3116 
     86 H86        23.2992  -25.1530  -41.6283 H         1 UNK         0.0646 
     87 H87        24.8677  -23.1173  -43.2941 H         1 UNK         0.0847 
     88 H88        24.7050  -23.0839  -41.5439 H         1 UNK         0.0847 
     89 H89        23.2874  -22.8603  -42.5528 H         1 UNK         0.0847 
     90 H90        25.4384  -26.2805  -44.0702 H         1 UNK         0.3040 
     91 H91        27.8091  -26.7148  -42.4927 H         1 UNK         0.1015 
     92 H92        27.8379  -26.7118  -44.9840 H         1 UNK         0.0786 
     93 H93        26.7757  -28.1209  -45.0201 H         1 UNK         0.0786 
     94 H94        28.4040  -28.2560  -44.3713 H         1 UNK         0.0786 
     95 H95        24.7035  -28.3004  -42.5672 H         1 UNK         0.3172 
     96 H96        25.6930  -30.3495  -40.6462 H         1 UNK         0.0595 
     97 H97        23.9035  -30.9565  -43.0609 H         1 UNK         0.0839 
     98 H98        24.2501  -32.0674  -41.7396 H         1 UNK         0.0839 
     99 H99        25.5438  -31.5428  -42.8033 H         1 UNK         0.0839 
    100 H100       22.7656  -29.0090  -42.1938 H         1 UNK         0.2998 
    101 H101       20.7818  -28.3899  -41.5833 H         1 UNK         0.0822 
    102 H102       21.9756  -26.6186  -40.3871 H         1 UNK         0.0787 
    103 H103       20.5279  -27.0522  -39.4993 H         1 UNK         0.0787 
    104 H104       22.0983  -27.6077  -38.9329 H         1 UNK         0.0787 
    105 H105       22.0308  -30.1384  -38.7426 H         1 UNK         0.3055 
    106 H106       19.4929  -30.8240  -37.6390 H         1 UNK         0.1106 
    107 H107       20.8742  -32.2518  -36.1066 H         1 UNK         0.0828 
    108 H108       21.5734  -30.6526  -36.2907 H         1 UNK         0.0828 
    109 H109       22.2746  -32.0258  -37.1467 H         1 UNK         0.0828 
    110 H110       21.1529  -32.2799  -40.2612 H         1 UNK         0.2931 
    111 H111       19.9863  -34.9184  -40.0586 H         1 UNK         0.0412 
    112 H112       17.1534  -32.5760  -41.7259 H         1 UNK         0.3472 
    113 H113       18.5259  -31.8767  -40.9061 H         1 UNK         0.3472 
    114 H114       22.0909  -34.6651  -41.2387 H         1 UNK         0.0970 
    115 H115       20.8894  -35.2888  -42.3177 H         1 UNK         0.0970 
    116 H116       21.5224  -34.0440  -45.0727 H         1 UNK         0.0612 
    117 H117       20.0273  -34.3555  -44.2246 H         1 UNK         0.0612 
@<TRIPOS>BOND
     1    1    2 1    
     2    1   62 1    
     3    1   63 1    
     4    1   64 1    
     5    2    3 2    
     6    2    4 am   BACKBONE|DICT|INTERRES
     7    4    5 1    
     8    4   65 1    
     9    5    6 1    
    10    5   25 1    
    11    5   66 1    
    12    6    7 1    
    13    6   67 1    
    14    6   68 1    
    15    7    8 1    
    16    8    9 1    
    17    8   69 1    
    18    8   70 1    
    19    9   10 ar   
    20    9   14 ar   
    21   10   11 ar   
    22   10   71 1    
    23   11   12 ar   
    24   11   61 1    
    25   12   13 ar   
    26   12   72 1    
    27   13   14 ar   
    28   13   15 1    
    29   14   73 1    
    30   15   16 1    
    31   15   74 1    
    32   15   75 1    
    33   16   17 1    
    34   17   18 1    
    35   17   76 1    
    36   17   77 1    
    37   18   19 1    
    38   18   27 1    
    39   18   78 1    
    40   19   20 am   BACKBONE|DICT|INTERRES
    41   19   79 1    
    42   20   21 2    
    43   20   22 1    
    44   22   23 1    
    45   22   24 1    
    46   22   80 1    
    47   23   81 1    
    48   23   82 1    
    49   23   83 1    
    50   24   25 am   BACKBONE|DICT|INTERRES
    51   24   84 1    
    52   25   26 2    
    53   27   28 2    
    54   27   29 am   BACKBONE|DICT|INTERRES
    55   29   30 1    
    56   29   85 1    
    57   30   31 1    
    58   30   32 1    
    59   30   86 1    
    60   31   87 1    
    61   31   88 1    
    62   31   89 1    
    63   32   33 2    
    64   32   34 am   BACKBONE|DICT|INTERRES
    65   34   35 1    
    66   34   90 1    
    67   35   36 1    
    68   35   37 1    
    69   35   91 1    
    70   36   92 1    
    71   36   93 1    
    72   36   94 1    
    73   37   38 2    
    74   37   39 am   BACKBONE|DICT|INTERRES
    75   39   40 1    
    76   39   95 1    
    77   40   41 1    
    78   40   42 1    
    79   40   96 1    
    80   41   97 1    
    81   41   98 1    
    82   41   99 1    
    83   42   43 2    
    84   42   44 am   BACKBONE|DICT|INTERRES
    85   44   45 1    
    86   44  100 1    
    87   45   46 1    
    88   45   47 1    
    89   45  101 1    
    90   46  102 1    
    91   46  103 1    
    92   46  104 1    
    93   47   48 2    
    94   47   49 am   BACKBONE|DICT|INTERRES
    95   49   50 1    
    96   49  105 1    
    97   50   51 1    
    98   50   52 1    
    99   50  106 1    
   100   51  107 1    
   101   51  108 1    
   102   51  109 1    
   103   52   53 2    
   104   52   54 am   BACKBONE|DICT|INTERRES
   105   54   55 1    
   106   54  110 1    
   107   55   56 1    
   108   55   59 1    
   109   55  111 1    
   110   56   57 am   BACKBONE|DICT|INTERRES
   111   56   58 2    
   112   57  112 1    
   113   57  113 1    
   114   59   60 1    
   115   59  114 1    
   116   59  115 1    
   117   60   61 1    
   118   61  116 1    
   119   61  117 1    
@<TRIPOS>SUBSTRUCTURE
     1 UNK         1 GROUP             0       ****    0 ROOT    
