@<TRIPOS>MOLECULE
3R8
117   119    1
SMALL
USER_CHARGES


@<TRIPOS>ATOM
      1 CA         19.6871  -25.0186  -49.5040 C.3       0 UNK        -0.2013 
      2 C          19.8983  -26.1126  -48.4680 C.2       0 UNK         0.4866 
      3 O          20.8972  -26.8289  -48.5320 O.2       0 UNK        -0.5176 
      4 N          18.9606  -26.2498  -47.5212 N.am      1 UNK        -0.4884 
      5 CA         18.9951  -27.2335  -46.4324 C.3       1 UNK         0.0853 
      6 C6         17.6674  -27.2502  -45.6366 C.3       10 UNK        -0.0849 
      7 S7         16.2952  -28.0568  -46.5307 S.3       10 UNK        -0.2776 
      8 C8         16.4626  -29.8240  -46.0752 C.3       10 UNK         0.0316 
      9 C9         16.8056  -30.0544  -44.6063 C.ar      10 UNK        -0.0863 
     10 C10        17.9650  -30.7588  -44.2640 C.ar      10 UNK        -0.1009 
     11 C11        18.3258  -30.9169  -42.9240 C.ar      10 UNK        -0.0712 
     12 C12        17.5182  -30.3761  -41.9231 C.ar      10 UNK        -0.0894 
     13 C13        16.3749  -29.6431  -42.2497 C.ar      10 UNK        -0.0745 
     14 C14        16.0057  -29.5128  -43.5925 C.ar      10 UNK        -0.0972 
     15 C15        15.5595  -28.9597  -41.1581 C.3       10 UNK         0.0209 
     16 S16        16.5898  -28.0147  -39.9781 S.3       10 UNK        -0.2568 
     17 C17        17.4545  -26.8131  -41.0527 C.3       10 UNK        -0.0983 
     18 CA         18.9938  -27.0204  -41.1342 C.3       3 UNK         0.0876 
     19 N          19.5646  -26.2261  -42.2331 N.am      3 UNK        -0.4424 
     20 C          20.8606  -26.0954  -42.5640 C.2       2 UNK         0.4918 
     21 O          21.7938  -26.5599  -41.9087 O.2       2 UNK        -0.4875 
     22 CA         21.1389  -25.3090  -43.8646 C.3       2 UNK         0.0481 
     23 CB         22.6223  -25.3252  -44.2852 C.3       2 UNK        -0.1831 
     24 N          20.2752  -25.7459  -44.9707 N.am      2 UNK        -0.4498 
     25 C          20.1619  -26.9951  -45.4553 C.2       1 UNK         0.5027 
     26 O          20.8822  -27.9398  -45.1308 O.2       1 UNK        -0.4969 
     27 C          19.6835  -26.7673  -39.7747 C.2       3 UNK         0.5005 
     28 O          20.0679  -27.7202  -39.0946 O.2       3 UNK        -0.5279 
     29 N          19.8819  -25.4848  -39.4351 N.am      4 UNK        -0.4463 
     30 CA         20.5152  -25.0294  -38.1925 C.3       4 UNK         0.0283 
     31 CB         20.3449  -23.5062  -38.0723 C.3       4 UNK        -0.1875 
     32 C          22.0011  -25.4123  -38.0489 C.2       4 UNK         0.4949 
     33 O          22.4995  -25.4493  -36.9238 O.2       4 UNK        -0.5039 
     34 N          22.6805  -25.6880  -39.1699 N.am      5 UNK        -0.4663 
     35 CA         24.0844  -26.1039  -39.2161 C.3       5 UNK         0.0242 
     36 CB         24.7664  -25.3826  -40.3924 C.3       5 UNK        -0.1982 
     37 C          24.2410  -27.6288  -39.3584 C.2       5 UNK         0.5017 
     38 O          25.3762  -28.1001  -39.4449 O.2       5 UNK        -0.5012 
     39 N          23.1228  -28.3693  -39.4262 N.am      6 UNK        -0.4439 
     40 CA         22.9831  -29.7990  -39.7364 C.3       6 UNK         0.0297 
     41 CB         23.7310  -30.7015  -38.7358 C.3       6 UNK        -0.2006 
     42 C          23.3463  -30.1382  -41.1918 C.2       6 UNK         0.4892 
     43 O          22.5197  -30.7290  -41.8822 O.2       6 UNK        -0.5089 
     44 N          24.5480  -29.7411  -41.6354 N.am      7 UNK        -0.4243 
     45 CA         25.0636  -29.7942  -43.0079 C.3       7 UNK         0.0196 
     46 CB         24.4578  -28.6310  -43.8226 C.3       7 UNK        -0.2007 
     47 C          24.8784  -31.1754  -43.6668 C.2       7 UNK         0.5020 
     48 O          25.5901  -32.1144  -43.3083 O.2       7 UNK        -0.5147 
     49 N          23.9099  -31.2835  -44.5874 N.am      8 UNK        -0.4734 
     50 CA         23.5329  -32.5076  -45.3012 C.3       8 UNK         0.0238 
     51 CB         22.4616  -32.1621  -46.3488 C.3       8 UNK        -0.1912 
     52 C          23.0414  -33.6523  -44.3948 C.2       8 UNK         0.5038 
     53 O          23.1653  -34.8135  -44.7873 O.2       8 UNK        -0.5046 
     54 N          22.5092  -33.3171  -43.2125 N.am      9 UNK        -0.4200 
     55 CA         22.1084  -34.2792  -42.1755 C.3       9 UNK         0.0839 
     56 C          23.2922  -34.7556  -41.2821 C.2       9 UNK         0.5513 
     57 N          24.5052  -34.2323  -41.4263 N.am      9 UNK        -0.7519 
     58 O          23.1071  -35.6317  -40.4414 O.2       9 UNK        -0.4960 
     59 C59        20.9364  -33.7443  -41.3105 C.3       10 UNK        -0.0876 
     60 S60        19.4235  -33.3805  -42.2700 S.3       10 UNK        -0.2414 
     61 C61        19.6272  -31.5968  -42.5453 C.3       10 UNK         0.0169 
     62 H62        20.5092  -24.3042  -49.4677 H         1 UNK         0.0903 
     63 H63        19.6547  -25.4503  -50.5040 H         1 UNK         0.0903 
     64 H64        18.7572  -24.4740  -49.3401 H         1 UNK         0.0903 
     65 H65        18.1462  -25.6520  -47.5446 H         1 UNK         0.3096 
     66 H66        19.1521  -28.2204  -46.8741 H         1 UNK         0.1121 
     67 H67        17.3530  -26.2307  -45.4062 H         1 UNK         0.0849 
     68 H68        17.7959  -27.7193  -44.6614 H         1 UNK         0.0849 
     69 H69        15.5289  -30.3384  -46.3064 H         1 UNK         0.0865 
     70 H70        17.2215  -30.2710  -46.7192 H         1 UNK         0.0865 
     71 H71        18.6048  -31.1612  -45.0377 H         1 UNK         0.1346 
     72 H72        17.8085  -30.4841  -40.8868 H         1 UNK         0.1412 
     73 H73        15.1231  -28.9462  -43.8572 H         1 UNK         0.1426 
     74 H74        15.0008  -29.7187  -40.6093 H         1 UNK         0.0716 
     75 H75        14.8209  -28.2839  -41.5922 H         1 UNK         0.0716 
     76 H76        17.2196  -25.8081  -40.6974 H         1 UNK         0.0695 
     77 H77        17.0204  -26.8771  -42.0517 H         1 UNK         0.0695 
     78 H78        19.1833  -28.0641  -41.3931 H         1 UNK         0.0983 
     79 H79        18.8911  -25.7795  -42.8367 H         1 UNK         0.3095 
     80 H80        20.8721  -24.2725  -43.6538 H         1 UNK         0.0454 
     81 H81        22.7908  -24.6991  -45.1610 H         1 UNK         0.0851 
     82 H82        22.9629  -26.3306  -44.5266 H         1 UNK         0.0851 
     83 H83        23.2620  -24.9449  -43.4883 H         1 UNK         0.0851 
     84 H84        19.6473  -25.0449  -45.3392 H         1 UNK         0.2976 
     85 H85        19.5585  -24.7681  -40.0690 H         1 UNK         0.3116 
     86 H86        19.9820  -25.4974  -37.3622 H         1 UNK         0.0646 
     87 H87        20.8391  -22.9785  -38.8891 H         1 UNK         0.0847 
     88 H88        19.2927  -23.2210  -38.0734 H         1 UNK         0.0847 
     89 H89        20.7755  -23.1374  -37.1402 H         1 UNK         0.0847 
     90 H90        22.1894  -25.6910  -40.0577 H         1 UNK         0.3040 
     91 H91        24.5956  -25.8123  -38.2960 H         1 UNK         0.1015 
     92 H92        25.8346  -25.6020  -40.4212 H         1 UNK         0.0786 
     93 H93        24.6622  -24.3007  -40.3100 H         1 UNK         0.0786 
     94 H94        24.3464  -25.6896  -41.3508 H         1 UNK         0.0786 
     95 H95        22.2410  -27.8726  -39.3601 H         1 UNK         0.3172 
     96 H96        21.9182  -30.0104  -39.6249 H         1 UNK         0.0595 
     97 H97        24.8124  -30.5759  -38.7907 H         1 UNK         0.0839 
     98 H98        23.5209  -31.7533  -38.9350 H         1 UNK         0.0839 
     99 H99        23.4213  -30.4972  -37.7110 H         1 UNK         0.0839 
    100 H100       25.1394  -29.2690  -40.9570 H         1 UNK         0.2998 
    101 H101       26.1402  -29.6289  -42.9439 H         1 UNK         0.0822 
    102 H102       24.8177  -28.6333  -44.8525 H         1 UNK         0.0787 
    103 H103       23.3674  -28.6693  -43.8456 H         1 UNK         0.0787 
    104 H104       24.7374  -27.6708  -43.3886 H         1 UNK         0.0787 
    105 H105       23.3529  -30.4619  -44.7760 H         1 UNK         0.3055 
    106 H106       24.4218  -32.8715  -45.8210 H         1 UNK         0.1106 
    107 H107       22.8260  -31.4233  -47.0628 H         1 UNK         0.0828 
    108 H108       22.1733  -33.0461  -46.9197 H         1 UNK         0.0828 
    109 H109       21.5575  -31.7650  -45.8850 H         1 UNK         0.0828 
    110 H110       22.4834  -32.3380  -42.9398 H         1 UNK         0.2931 
    111 H111       21.7426  -35.1776  -42.6764 H         1 UNK         0.0412 
    112 H112       25.2534  -34.5648  -40.8391 H         1 UNK         0.3472 
    113 H113       24.6947  -33.5212  -42.1234 H         1 UNK         0.3472 
    114 H114       20.6577  -34.4856  -40.5592 H         1 UNK         0.0970 
    115 H115       21.2462  -32.8621  -40.7481 H         1 UNK         0.0970 
    116 H116       20.0097  -31.1303  -41.6370 H         1 UNK         0.0612 
    117 H117       20.3748  -31.4312  -43.3221 H         1 UNK         0.0612 
@<TRIPOS>BOND
     1    1    2 1    
     2    1   62 1    
     3    1   63 1    
     4    1   64 1    
     5    2    3 2    
     6    2    4 am   BACKBONE|DICT|INTERRES
     7    4    5 1    
     8    4   65 1    
     9    5    6 1    
    10    5   25 1    
    11    5   66 1    
    12    6    7 1    
    13    6   67 1    
    14    6   68 1    
    15    7    8 1    
    16    8    9 1    
    17    8   69 1    
    18    8   70 1    
    19    9   10 ar   
    20    9   14 ar   
    21   10   11 ar   
    22   10   71 1    
    23   11   12 ar   
    24   11   61 1    
    25   12   13 ar   
    26   12   72 1    
    27   13   14 ar   
    28   13   15 1    
    29   14   73 1    
    30   15   16 1    
    31   15   74 1    
    32   15   75 1    
    33   16   17 1    
    34   17   18 1    
    35   17   76 1    
    36   17   77 1    
    37   18   19 1    
    38   18   27 1    
    39   18   78 1    
    40   19   20 am   BACKBONE|DICT|INTERRES
    41   19   79 1    
    42   20   21 2    
    43   20   22 1    
    44   22   23 1    
    45   22   24 1    
    46   22   80 1    
    47   23   81 1    
    48   23   82 1    
    49   23   83 1    
    50   24   25 am   BACKBONE|DICT|INTERRES
    51   24   84 1    
    52   25   26 2    
    53   27   28 2    
    54   27   29 am   BACKBONE|DICT|INTERRES
    55   29   30 1    
    56   29   85 1    
    57   30   31 1    
    58   30   32 1    
    59   30   86 1    
    60   31   87 1    
    61   31   88 1    
    62   31   89 1    
    63   32   33 2    
    64   32   34 am   BACKBONE|DICT|INTERRES
    65   34   35 1    
    66   34   90 1    
    67   35   36 1    
    68   35   37 1    
    69   35   91 1    
    70   36   92 1    
    71   36   93 1    
    72   36   94 1    
    73   37   38 2    
    74   37   39 am   BACKBONE|DICT|INTERRES
    75   39   40 1    
    76   39   95 1    
    77   40   41 1    
    78   40   42 1    
    79   40   96 1    
    80   41   97 1    
    81   41   98 1    
    82   41   99 1    
    83   42   43 2    
    84   42   44 am   BACKBONE|DICT|INTERRES
    85   44   45 1    
    86   44  100 1    
    87   45   46 1    
    88   45   47 1    
    89   45  101 1    
    90   46  102 1    
    91   46  103 1    
    92   46  104 1    
    93   47   48 2    
    94   47   49 am   BACKBONE|DICT|INTERRES
    95   49   50 1    
    96   49  105 1    
    97   50   51 1    
    98   50   52 1    
    99   50  106 1    
   100   51  107 1    
   101   51  108 1    
   102   51  109 1    
   103   52   53 2    
   104   52   54 am   BACKBONE|DICT|INTERRES
   105   54   55 1    
   106   54  110 1    
   107   55   56 1    
   108   55   59 1    
   109   55  111 1    
   110   56   57 am   BACKBONE|DICT|INTERRES
   111   56   58 2    
   112   57  112 1    
   113   57  113 1    
   114   59   60 1    
   115   59  114 1    
   116   59  115 1    
   117   60   61 1    
   118   61  116 1    
   119   61  117 1    
@<TRIPOS>SUBSTRUCTURE
     1 UNK         1 GROUP             0       ****    0 ROOT    
