@<TRIPOS>MOLECULE
3R8
117   119    1
SMALL
USER_CHARGES


@<TRIPOS>ATOM
      1 CA         16.6651  -24.7428  -39.6889 C.3       0 UNK        -0.2013 
      2 C          16.5320  -24.9440  -41.1910 C.2       0 UNK         0.4866 
      3 O          15.4289  -24.8437  -41.7283 O.2       0 UNK        -0.5176 
      4 N          17.6471  -25.2244  -41.8713 N.am      1 UNK        -0.4884 
      5 CA         17.7458  -25.4214  -43.3155 C.3       1 UNK         0.0853 
      6 C6         17.1798  -26.7940  -43.7729 C.3       10 UNK        -0.0849 
      7 S7         16.6100  -26.7463  -45.5042 S.3       10 UNK        -0.2776 
      8 C8         15.7612  -28.3521  -45.6481 C.3       10 UNK         0.0316 
      9 C9         16.7382  -29.5187  -45.6069 C.ar      10 UNK        -0.0863 
     10 C10        16.7019  -30.4408  -44.5545 C.ar      10 UNK        -0.1009 
     11 C11        17.6000  -31.5124  -44.5214 C.ar      10 UNK        -0.0712 
     12 C12        18.5402  -31.6539  -45.5453 C.ar      10 UNK        -0.0894 
     13 C13        18.5959  -30.7300  -46.5931 C.ar      10 UNK        -0.0745 
     14 C14        17.6806  -29.6754  -46.6284 C.ar      10 UNK        -0.0972 
     15 C15        19.6772  -30.8489  -47.6591 C.3       10 UNK         0.0209 
     16 S16        20.9450  -29.5423  -47.5134 S.3       10 UNK        -0.2568 
     17 C17        21.4779  -29.7090  -45.7729 C.3       10 UNK        -0.0983 
     18 CA         22.0974  -28.4192  -45.1815 C.3       3 UNK         0.0876 
     19 N          21.3168  -27.2102  -45.4655 N.am      3 UNK        -0.4424 
     20 C          21.7962  -25.9652  -45.3383 C.2       2 UNK         0.4918 
     21 O          22.9542  -25.7044  -45.0119 O.2       2 UNK        -0.4875 
     22 CA         20.8068  -24.8142  -45.5868 C.3       2 UNK         0.0481 
     23 CB         20.6769  -24.5305  -47.0917 C.3       2 UNK        -0.1831 
     24 N          19.4770  -25.0462  -45.0129 N.am      2 UNK        -0.4498 
     25 C          19.2219  -25.2333  -43.7107 C.2       1 UNK         0.5027 
     26 O          20.0968  -25.2750  -42.8393 O.2       1 UNK        -0.4969 
     27 C          22.2959  -28.5858  -43.6636 C.2       3 UNK         0.5005 
     28 O          23.4114  -28.8603  -43.2217 O.2       3 UNK        -0.5279 
     29 N          21.2106  -28.3760  -42.8990 N.am      4 UNK        -0.4463 
     30 CA         21.1447  -28.5159  -41.4405 C.3       4 UNK         0.0283 
     31 CB         19.7063  -28.2798  -40.9562 C.3       4 UNK        -0.1875 
     32 C          22.1315  -27.6127  -40.6820 C.2       4 UNK         0.4949 
     33 O          22.6083  -27.9978  -39.6153 O.2       4 UNK        -0.5039 
     34 N          22.4421  -26.4457  -41.2613 N.am      5 UNK        -0.4663 
     35 CA         23.4679  -25.5192  -40.7826 C.3       5 UNK         0.0242 
     36 CB         23.3287  -24.1908  -41.5432 C.3       5 UNK        -0.1982 
     37 C          24.9051  -26.0641  -40.9060 C.2       5 UNK         0.5017 
     38 O          25.7682  -25.6271  -40.1436 O.2       5 UNK        -0.5012 
     39 N          25.1450  -26.9876  -41.8490 N.am      6 UNK        -0.4439 
     40 CA         26.4369  -27.6434  -42.0599 C.3       6 UNK         0.0297 
     41 CB         26.6658  -27.8782  -43.5628 C.3       6 UNK        -0.2006 
     42 C          26.5224  -28.9621  -41.2768 C.2       6 UNK         0.4892 
     43 O          27.5226  -29.1912  -40.5953 O.2       6 UNK        -0.5089 
     44 N          25.4780  -29.7943  -41.3699 N.am      7 UNK        -0.4243 
     45 CA         25.3404  -31.0549  -40.6444 C.3       7 UNK         0.0196 
     46 CB         25.9958  -32.2013  -41.4349 C.3       7 UNK        -0.2007 
     47 C          23.8465  -31.3010  -40.4324 C.2       7 UNK         0.5020 
     48 O          23.1062  -31.3403  -41.4145 O.2       7 UNK        -0.5147 
     49 N          23.4290  -31.4434  -39.1680 N.am      8 UNK        -0.4734 
     50 CA         22.0381  -31.4218  -38.6899 C.3       8 UNK         0.0238 
     51 CB         22.0527  -31.1921  -37.1662 C.3       8 UNK        -0.1912 
     52 C          21.1572  -32.6254  -39.0969 C.2       8 UNK         0.5038 
     53 O          20.4776  -33.1983  -38.2430 O.2       8 UNK        -0.5046 
     54 N          21.1590  -32.9688  -40.3899 N.am      9 UNK        -0.4200 
     55 CA         20.2943  -33.9670  -41.0445 C.3       9 UNK         0.0839 
     56 C          20.5019  -35.4366  -40.5645 C.2       9 UNK         0.5513 
     57 N          21.6264  -35.7741  -39.9447 N.am      9 UNK        -0.7519 
     58 O          19.6512  -36.2949  -40.7862 O.2       9 UNK        -0.4960 
     59 C59        18.7990  -33.5298  -41.0597 C.3       10 UNK        -0.0876 
     60 S60        18.5573  -31.9611  -41.9678 S.3       10 UNK        -0.2414 
     61 C61        17.5644  -32.5226  -43.3852 C.3       10 UNK         0.0169 
     62 H62        16.0406  -25.4608  -39.1578 H         1 UNK         0.0903 
     63 H63        17.6928  -24.8719  -39.3494 H         1 UNK         0.0903 
     64 H64        16.3404  -23.7395  -39.4142 H         1 UNK         0.0903 
     65 H65        18.5498  -25.2328  -41.4101 H         1 UNK         0.3096 
     66 H66        17.1775  -24.6149  -43.7854 H         1 UNK         0.1121 
     67 H67        16.3191  -27.0707  -43.1623 H         1 UNK         0.0849 
     68 H68        17.9056  -27.5988  -43.6408 H         1 UNK         0.0849 
     69 H69        15.0100  -28.4382  -44.8613 H         1 UNK         0.0865 
     70 H70        15.2168  -28.3797  -46.5930 H         1 UNK         0.0865 
     71 H71        15.9785  -30.3264  -43.7586 H         1 UNK         0.1346 
     72 H72        19.2483  -32.4707  -45.5106 H         1 UNK         0.1412 
     73 H73        17.7225  -28.9567  -47.4358 H         1 UNK         0.1426 
     74 H74        20.1671  -31.8225  -47.6057 H         1 UNK         0.0716 
     75 H75        19.2192  -30.7905  -48.6474 H         1 UNK         0.0716 
     76 H76        20.6267  -30.0100  -45.1643 H         1 UNK         0.0695 
     77 H77        22.1928  -30.5319  -45.7132 H         1 UNK         0.0695 
     78 H78        23.0854  -28.2905  -45.6301 H         1 UNK         0.0983 
     79 H79        20.3667  -27.3443  -45.7786 H         1 UNK         0.3095 
     80 H80        21.2162  -23.9218  -45.1087 H         1 UNK         0.0454 
     81 H81        20.2352  -25.3718  -47.6273 H         1 UNK         0.0851 
     82 H82        20.0598  -23.6517  -47.2787 H         1 UNK         0.0851 
     83 H83        21.6537  -24.3377  -47.5378 H         1 UNK         0.0851 
     84 H84        18.6996  -25.0596  -45.6593 H         1 UNK         0.2976 
     85 H85        20.3520  -28.1238  -43.3626 H         1 UNK         0.3116 
     86 H86        21.3961  -29.5492  -41.2144 H         1 UNK         0.0646 
     87 H87        19.3886  -27.2525  -41.1224 H         1 UNK         0.0847 
     88 H88        18.9993  -28.9388  -41.4601 H         1 UNK         0.0847 
     89 H89        19.6216  -28.4750  -39.8863 H         1 UNK         0.0847 
     90 H90        21.9387  -26.1796  -42.1002 H         1 UNK         0.3040 
     91 H91        23.2816  -25.3310  -39.7229 H         1 UNK         0.1015 
     92 H92        23.4952  -24.3208  -42.6134 H         1 UNK         0.0786 
     93 H93        24.0527  -23.4572  -41.1860 H         1 UNK         0.0786 
     94 H94        22.3363  -23.7592  -41.4099 H         1 UNK         0.0786 
     95 H95        24.3656  -27.3474  -42.3919 H         1 UNK         0.3172 
     96 H96        27.2391  -26.9916  -41.7071 H         1 UNK         0.0595 
     97 H97        27.6432  -28.3287  -43.7399 H         1 UNK         0.0839 
     98 H98        26.6356  -26.9407  -44.1183 H         1 UNK         0.0839 
     99 H99        25.9193  -28.5453  -43.9943 H         1 UNK         0.0839 
    100 H100       24.6820  -29.5394  -41.9540 H         1 UNK         0.2998 
    101 H101       25.8284  -30.9693  -39.6709 H         1 UNK         0.0822 
    102 H102       25.8746  -33.1526  -40.9154 H         1 UNK         0.0787 
    103 H103       25.5535  -32.3098  -42.4262 H         1 UNK         0.0787 
    104 H104       27.0654  -32.0341  -41.5626 H         1 UNK         0.0787 
    105 H105       24.1314  -31.4444  -38.4421 H         1 UNK         0.3055 
    106 H106       21.5581  -30.5480  -39.1327 H         1 UNK         0.1106 
    107 H107       22.5917  -30.2804  -36.9073 H         1 UNK         0.0828 
    108 H108       21.0407  -31.0827  -36.7736 H         1 UNK         0.0828 
    109 H109       22.5202  -32.0237  -36.6377 H         1 UNK         0.0828 
    110 H110       21.7820  -32.4446  -41.0024 H         1 UNK         0.2931 
    111 H111       20.6270  -33.9850  -42.0831 H         1 UNK         0.0412 
    112 H112       21.7613  -36.7274  -39.6462 H         1 UNK         0.3472 
    113 H113       22.3333  -35.0802  -39.7607 H         1 UNK         0.3472 
    114 H114       18.1729  -34.2998  -41.5131 H         1 UNK         0.0970 
    115 H115       18.4235  -33.4084  -40.0426 H         1 UNK         0.0970 
    116 H116       17.9413  -33.4839  -43.7383 H         1 UNK         0.0612 
    117 H117       16.5364  -32.6925  -43.0616 H         1 UNK         0.0612 
@<TRIPOS>BOND
     1    1    2 1    
     2    1   62 1    
     3    1   63 1    
     4    1   64 1    
     5    2    3 2    
     6    2    4 am   BACKBONE|DICT|INTERRES
     7    4    5 1    
     8    4   65 1    
     9    5    6 1    
    10    5   25 1    
    11    5   66 1    
    12    6    7 1    
    13    6   67 1    
    14    6   68 1    
    15    7    8 1    
    16    8    9 1    
    17    8   69 1    
    18    8   70 1    
    19    9   10 ar   
    20    9   14 ar   
    21   10   11 ar   
    22   10   71 1    
    23   11   12 ar   
    24   11   61 1    
    25   12   13 ar   
    26   12   72 1    
    27   13   14 ar   
    28   13   15 1    
    29   14   73 1    
    30   15   16 1    
    31   15   74 1    
    32   15   75 1    
    33   16   17 1    
    34   17   18 1    
    35   17   76 1    
    36   17   77 1    
    37   18   19 1    
    38   18   27 1    
    39   18   78 1    
    40   19   20 am   BACKBONE|DICT|INTERRES
    41   19   79 1    
    42   20   21 2    
    43   20   22 1    
    44   22   23 1    
    45   22   24 1    
    46   22   80 1    
    47   23   81 1    
    48   23   82 1    
    49   23   83 1    
    50   24   25 am   BACKBONE|DICT|INTERRES
    51   24   84 1    
    52   25   26 2    
    53   27   28 2    
    54   27   29 am   BACKBONE|DICT|INTERRES
    55   29   30 1    
    56   29   85 1    
    57   30   31 1    
    58   30   32 1    
    59   30   86 1    
    60   31   87 1    
    61   31   88 1    
    62   31   89 1    
    63   32   33 2    
    64   32   34 am   BACKBONE|DICT|INTERRES
    65   34   35 1    
    66   34   90 1    
    67   35   36 1    
    68   35   37 1    
    69   35   91 1    
    70   36   92 1    
    71   36   93 1    
    72   36   94 1    
    73   37   38 2    
    74   37   39 am   BACKBONE|DICT|INTERRES
    75   39   40 1    
    76   39   95 1    
    77   40   41 1    
    78   40   42 1    
    79   40   96 1    
    80   41   97 1    
    81   41   98 1    
    82   41   99 1    
    83   42   43 2    
    84   42   44 am   BACKBONE|DICT|INTERRES
    85   44   45 1    
    86   44  100 1    
    87   45   46 1    
    88   45   47 1    
    89   45  101 1    
    90   46  102 1    
    91   46  103 1    
    92   46  104 1    
    93   47   48 2    
    94   47   49 am   BACKBONE|DICT|INTERRES
    95   49   50 1    
    96   49  105 1    
    97   50   51 1    
    98   50   52 1    
    99   50  106 1    
   100   51  107 1    
   101   51  108 1    
   102   51  109 1    
   103   52   53 2    
   104   52   54 am   BACKBONE|DICT|INTERRES
   105   54   55 1    
   106   54  110 1    
   107   55   56 1    
   108   55   59 1    
   109   55  111 1    
   110   56   57 am   BACKBONE|DICT|INTERRES
   111   56   58 2    
   112   57  112 1    
   113   57  113 1    
   114   59   60 1    
   115   59  114 1    
   116   59  115 1    
   117   60   61 1    
   118   61  116 1    
   119   61  117 1    
@<TRIPOS>SUBSTRUCTURE
     1 UNK         1 GROUP             0       ****    0 ROOT    
