@<TRIPOS>MOLECULE
3R8
117   119    1
SMALL
USER_CHARGES


@<TRIPOS>ATOM
      1 CA         17.9827  -27.8210  -41.1763 C.3       0 UNK        -0.2013 
      2 C          17.3605  -26.8496  -42.1664 C.2       0 UNK         0.4866 
      3 O          16.6502  -25.9311  -41.7564 O.2       0 UNK        -0.5176 
      4 N          17.6271  -27.0490  -43.4632 N.am      1 UNK        -0.4884 
      5 CA         17.1711  -26.1848  -44.5594 C.3       1 UNK         0.0853 
      6 C6         16.8420  -26.9952  -45.8467 C.3       10 UNK        -0.0849 
      7 S7         15.7040  -28.3913  -45.5374 S.3       10 UNK        -0.2776 
      8 C8         16.6389  -29.8134  -46.1958 C.3       10 UNK         0.0316 
      9 C9         17.9770  -30.0192  -45.4960 C.ar      10 UNK        -0.0863 
     10 C10        18.0210  -30.4572  -44.1689 C.ar      10 UNK        -0.1009 
     11 C11        19.2473  -30.6600  -43.5280 C.ar      10 UNK        -0.0712 
     12 C12        20.4346  -30.4147  -44.2236 C.ar      10 UNK        -0.0894 
     13 C13        20.4058  -29.9987  -45.5578 C.ar      10 UNK        -0.0745 
     14 C14        19.1734  -29.8018  -46.1875 C.ar      10 UNK        -0.0972 
     15 C15        21.7040  -29.8108  -46.3336 C.3       10 UNK         0.0209 
     16 S16        21.9728  -28.0867  -46.8520 S.3       10 UNK        -0.2568 
     17 C17        22.3557  -27.3029  -45.2532 C.3       10 UNK        -0.0983 
     18 CA         22.3782  -25.7558  -45.3305 C.3       3 UNK         0.0876 
     19 N          21.1154  -25.2322  -45.8562 N.am      3 UNK        -0.4424 
     20 C          20.8403  -23.9571  -46.1589 C.2       2 UNK         0.4918 
     21 O          21.6769  -23.0543  -46.1492 O.2       2 UNK        -0.4875 
     22 CA         19.3700  -23.6251  -46.4943 C.3       2 UNK         0.0481 
     23 CB         19.2076  -23.3942  -48.0053 C.3       2 UNK        -0.1831 
     24 N          18.3909  -24.6332  -46.0545 N.am      2 UNK        -0.4498 
     25 C          18.2057  -25.0561  -44.7924 C.2       1 UNK         0.5027 
     26 O          18.8598  -24.6142  -43.8430 O.2       1 UNK        -0.4969 
     27 C          22.7417  -25.1857  -43.9408 C.2       3 UNK         0.5005 
     28 O          23.9230  -25.1989  -43.5925 O.2       3 UNK        -0.5279 
     29 N          21.7351  -24.7241  -43.1740 N.am      4 UNK        -0.4463 
     30 CA         21.8146  -24.2800  -41.7761 C.3       4 UNK         0.0283 
     31 CB         22.6692  -23.0018  -41.6398 C.3       4 UNK        -0.1875 
     32 C          22.2817  -25.4292  -40.8646 C.2       4 UNK         0.4949 
     33 O          23.3065  -25.3154  -40.1904 O.2       4 UNK        -0.5039 
     34 N          21.5226  -26.5344  -40.9170 N.am      5 UNK        -0.4663 
     35 CA         21.8372  -27.8602  -40.3760 C.3       5 UNK         0.0242 
     36 CB         22.0252  -27.8457  -38.8415 C.3       5 UNK        -0.1982 
     37 C          23.0029  -28.4784  -41.1630 C.2       5 UNK         0.5017 
     38 O          22.7715  -28.9439  -42.2784 O.2       5 UNK        -0.5012 
     39 N          24.2124  -28.4830  -40.5852 N.am      6 UNK        -0.4439 
     40 CA         25.4965  -28.9488  -41.1369 C.3       6 UNK         0.0297 
     41 CB         25.8768  -28.1657  -42.4092 C.3       6 UNK        -0.2006 
     42 C          25.5949  -30.4681  -41.3761 C.2       6 UNK         0.4892 
     43 O          26.6085  -31.0669  -41.0159 O.2       6 UNK        -0.5089 
     44 N          24.5474  -31.0683  -41.9539 N.am      7 UNK        -0.4243 
     45 CA         24.4248  -32.5053  -42.2181 C.3       7 UNK         0.0196 
     46 CB         23.3400  -32.7247  -43.2851 C.3       7 UNK        -0.2007 
     47 C          24.1080  -33.3391  -40.9620 C.2       7 UNK         0.5020 
     48 O          24.2043  -34.5648  -41.0264 O.2       7 UNK        -0.5147 
     49 N          23.7265  -32.6713  -39.8607 N.am      8 UNK        -0.4734 
     50 CA         23.3308  -33.2388  -38.5643 C.3       8 UNK         0.0238 
     51 CB         24.5238  -33.9438  -37.8822 C.3       8 UNK        -0.1912 
     52 C          22.0783  -34.1304  -38.6736 C.2       8 UNK         0.5038 
     53 O          22.0809  -35.2661  -38.1935 O.2       8 UNK        -0.5046 
     54 N          21.0381  -33.5894  -39.3230 N.am      9 UNK        -0.4200 
     55 CA         19.7175  -34.2116  -39.5032 C.3       9 UNK         0.0839 
     56 C          19.0313  -34.5848  -38.1591 C.2       9 UNK         0.5513 
     57 N          18.3465  -35.7187  -38.1051 N.am      9 UNK        -0.7519 
     58 O          19.0748  -33.8322  -37.1878 O.2       9 UNK        -0.4960 
     59 C59        18.7745  -33.3077  -40.3391 C.3       10 UNK        -0.0876 
     60 S60        19.3943  -32.9707  -42.0234 S.3       10 UNK        -0.2414 
     61 C61        19.2845  -31.1560  -42.0905 C.3       10 UNK         0.0169 
     62 H62        17.2339  -28.5297  -40.8236 H         1 UNK         0.0903 
     63 H63        18.8002  -28.3779  -41.6297 H         1 UNK         0.0903 
     64 H64        18.3780  -27.2834  -40.3147 H         1 UNK         0.0903 
     65 H65        18.1910  -27.8395  -43.7432 H         1 UNK         0.3096 
     66 H66        16.2497  -25.6851  -44.2518 H         1 UNK         0.1121 
     67 H67        17.7551  -27.3652  -46.3147 H         1 UNK         0.0849 
     68 H68        16.3588  -26.3555  -46.5873 H         1 UNK         0.0849 
     69 H69        16.0350  -30.7147  -46.0811 H         1 UNK         0.0865 
     70 H70        16.7787  -29.6791  -47.2697 H         1 UNK         0.0865 
     71 H71        17.0976  -30.6451  -43.6375 H         1 UNK         0.1346 
     72 H72        21.3834  -30.5675  -43.7316 H         1 UNK         0.1412 
     73 H73        19.1513  -29.4841  -47.2213 H         1 UNK         0.1426 
     74 H74        21.6769  -30.4429  -47.2222 H         1 UNK         0.0716 
     75 H75        22.5621  -30.1448  -45.7478 H         1 UNK         0.0716 
     76 H76        23.3207  -27.6859  -44.9146 H         1 UNK         0.0695 
     77 H77        21.6207  -27.6353  -44.5172 H         1 UNK         0.0695 
     78 H78        23.1700  -25.4529  -46.0190 H         1 UNK         0.0983 
     79 H79        20.3718  -25.9073  -45.9444 H         1 UNK         0.3095 
     80 H80        19.1284  -22.6932  -45.9794 H         1 UNK         0.0454 
     81 H81        19.4099  -24.3010  -48.5766 H         1 UNK         0.0851 
     82 H82        19.8968  -22.6265  -48.3600 H         1 UNK         0.0851 
     83 H83        18.2004  -23.0576  -48.2515 H         1 UNK         0.0851 
     84 H84        17.8204  -25.0375  -46.7831 H         1 UNK         0.2976 
     85 H85        20.7948  -24.7403  -43.5613 H         1 UNK         0.3116 
     86 H86        20.7972  -24.0288  -41.4716 H         1 UNK         0.0646 
     87 H87        22.3012  -22.2083  -42.2900 H         1 UNK         0.0847 
     88 H88        23.7160  -23.1793  -41.8874 H         1 UNK         0.0847 
     89 H89        22.6400  -22.6242  -40.6171 H         1 UNK         0.0847 
     90 H90        20.7265  -26.5051  -41.5375 H         1 UNK         0.3040 
     91 H91        20.9729  -28.4920  -40.5823 H         1 UNK         0.1015 
     92 H92        22.8566  -27.2207  -38.5166 H         1 UNK         0.0786 
     93 H93        22.2058  -28.8524  -38.4620 H         1 UNK         0.0786 
     94 H94        21.1277  -27.4757  -38.3456 H         1 UNK         0.0786 
     95 H95        24.2725  -28.0653  -39.6665 H         1 UNK         0.3172 
     96 H96        26.2402  -28.7067  -40.3760 H         1 UNK         0.0595 
     97 H97        25.1975  -28.3718  -43.2368 H         1 UNK         0.0839 
     98 H98        26.8813  -28.4289  -42.7428 H         1 UNK         0.0839 
     99 H99        25.8643  -27.0901  -42.2312 H         1 UNK         0.0839 
    100 H100       23.7701  -30.4706  -42.2277 H         1 UNK         0.2998 
    101 H101       25.3768  -32.8618  -42.6173 H         1 UNK         0.0822 
    102 H102       23.5258  -32.1265  -44.1774 H         1 UNK         0.0787 
    103 H103       23.3074  -33.7694  -43.5971 H         1 UNK         0.0787 
    104 H104       22.3498  -32.4734  -42.9050 H         1 UNK         0.0787 
    105 H105       23.6905  -31.6645  -39.9299 H         1 UNK         0.3055 
    106 H106       23.0466  -32.3986  -37.9282 H         1 UNK         0.1106 
    107 H107       24.8408  -34.8320  -38.4295 H         1 UNK         0.0828 
    108 H108       24.2620  -34.2632  -36.8727 H         1 UNK         0.0828 
    109 H109       25.3827  -33.2781  -37.7980 H         1 UNK         0.0828 
    110 H110       21.1391  -32.6607  -39.7010 H         1 UNK         0.2931 
    111 H111       19.8845  -35.1347  -40.0622 H         1 UNK         0.0412 
    112 H112       17.8797  -35.9700  -37.2472 H         1 UNK         0.3472 
    113 H113       18.2969  -36.3363  -38.9010 H         1 UNK         0.3472 
    114 H114       18.5924  -32.3692  -39.8120 H         1 UNK         0.0970 
    115 H115       17.7966  -33.7810  -40.4492 H         1 UNK         0.0970 
    116 H116       18.3843  -30.8269  -41.5697 H         1 UNK         0.0612 
    117 H117       20.1326  -30.7222  -41.5590 H         1 UNK         0.0612 
@<TRIPOS>BOND
     1    1    2 1    
     2    1   62 1    
     3    1   63 1    
     4    1   64 1    
     5    2    3 2    
     6    2    4 am   BACKBONE|DICT|INTERRES
     7    4    5 1    
     8    4   65 1    
     9    5    6 1    
    10    5   25 1    
    11    5   66 1    
    12    6    7 1    
    13    6   67 1    
    14    6   68 1    
    15    7    8 1    
    16    8    9 1    
    17    8   69 1    
    18    8   70 1    
    19    9   10 ar   
    20    9   14 ar   
    21   10   11 ar   
    22   10   71 1    
    23   11   12 ar   
    24   11   61 1    
    25   12   13 ar   
    26   12   72 1    
    27   13   14 ar   
    28   13   15 1    
    29   14   73 1    
    30   15   16 1    
    31   15   74 1    
    32   15   75 1    
    33   16   17 1    
    34   17   18 1    
    35   17   76 1    
    36   17   77 1    
    37   18   19 1    
    38   18   27 1    
    39   18   78 1    
    40   19   20 am   BACKBONE|DICT|INTERRES
    41   19   79 1    
    42   20   21 2    
    43   20   22 1    
    44   22   23 1    
    45   22   24 1    
    46   22   80 1    
    47   23   81 1    
    48   23   82 1    
    49   23   83 1    
    50   24   25 am   BACKBONE|DICT|INTERRES
    51   24   84 1    
    52   25   26 2    
    53   27   28 2    
    54   27   29 am   BACKBONE|DICT|INTERRES
    55   29   30 1    
    56   29   85 1    
    57   30   31 1    
    58   30   32 1    
    59   30   86 1    
    60   31   87 1    
    61   31   88 1    
    62   31   89 1    
    63   32   33 2    
    64   32   34 am   BACKBONE|DICT|INTERRES
    65   34   35 1    
    66   34   90 1    
    67   35   36 1    
    68   35   37 1    
    69   35   91 1    
    70   36   92 1    
    71   36   93 1    
    72   36   94 1    
    73   37   38 2    
    74   37   39 am   BACKBONE|DICT|INTERRES
    75   39   40 1    
    76   39   95 1    
    77   40   41 1    
    78   40   42 1    
    79   40   96 1    
    80   41   97 1    
    81   41   98 1    
    82   41   99 1    
    83   42   43 2    
    84   42   44 am   BACKBONE|DICT|INTERRES
    85   44   45 1    
    86   44  100 1    
    87   45   46 1    
    88   45   47 1    
    89   45  101 1    
    90   46  102 1    
    91   46  103 1    
    92   46  104 1    
    93   47   48 2    
    94   47   49 am   BACKBONE|DICT|INTERRES
    95   49   50 1    
    96   49  105 1    
    97   50   51 1    
    98   50   52 1    
    99   50  106 1    
   100   51  107 1    
   101   51  108 1    
   102   51  109 1    
   103   52   53 2    
   104   52   54 am   BACKBONE|DICT|INTERRES
   105   54   55 1    
   106   54  110 1    
   107   55   56 1    
   108   55   59 1    
   109   55  111 1    
   110   56   57 am   BACKBONE|DICT|INTERRES
   111   56   58 2    
   112   57  112 1    
   113   57  113 1    
   114   59   60 1    
   115   59  114 1    
   116   59  115 1    
   117   60   61 1    
   118   61  116 1    
   119   61  117 1    
@<TRIPOS>SUBSTRUCTURE
     1 UNK         1 GROUP             0       ****    0 ROOT    
