@<TRIPOS>MOLECULE
3R8
117   119    1
SMALL
USER_CHARGES


@<TRIPOS>ATOM
      1 CA         21.5663  -30.6214  -43.9122 C.3       0 UNK        -0.2013 
      2 C          21.2935  -29.5970  -42.8263 C.2       0 UNK         0.4866 
      3 O          22.1032  -29.4702  -41.9101 O.2       0 UNK        -0.5176 
      4 N          20.1696  -28.8735  -42.9198 N.am      1 UNK        -0.4884 
      5 CA         19.8337  -27.7279  -42.0636 C.3       1 UNK         0.0853 
      6 C6         18.3046  -27.5479  -41.8738 C.3       10 UNK        -0.0849 
      7 S7         17.5287  -28.9757  -41.0521 S.3       10 UNK        -0.2776 
      8 C8         16.4367  -29.5904  -42.3741 C.3       10 UNK         0.0316 
      9 C9         17.2246  -30.2596  -43.4900 C.ar      10 UNK        -0.0863 
     10 C10        17.8239  -31.4966  -43.2543 C.ar      10 UNK        -0.1009 
     11 C11        18.5150  -32.1646  -44.2679 C.ar      10 UNK        -0.0712 
     12 C12        18.6247  -31.5628  -45.5277 C.ar      10 UNK        -0.0894 
     13 C13        18.0534  -30.3070  -45.7746 C.ar      10 UNK        -0.0745 
     14 C14        17.3420  -29.6673  -44.7516 C.ar      10 UNK        -0.0972 
     15 C15        18.1459  -29.6839  -47.1672 C.3       10 UNK         0.0209 
     16 S16        18.6622  -27.9306  -47.1683 S.3       10 UNK        -0.2568 
     17 C17        20.4761  -28.0603  -47.0160 C.3       10 UNK        -0.0983 
     18 CA         21.1743  -26.6897  -46.8033 C.3       3 UNK         0.0876 
     19 N          20.5783  -25.9632  -45.6813 N.am      3 UNK        -0.4424 
     20 C          20.9077  -24.7504  -45.2157 C.2       2 UNK         0.4918 
     21 O          21.7270  -24.0032  -45.7476 O.2       2 UNK        -0.4875 
     22 CA         20.2499  -24.3344  -43.8824 C.3       2 UNK         0.0481 
     23 CB         19.0901  -23.3598  -44.1375 C.3       2 UNK        -0.1831 
     24 N          19.7626  -25.4760  -43.0926 N.am      2 UNK        -0.4498 
     25 C          20.5325  -26.4798  -42.6402 C.2       1 UNK         0.5027 
     26 O          21.7593  -26.4750  -42.7569 O.2       1 UNK        -0.4969 
     27 C          22.7009  -26.8940  -46.6527 C.2       3 UNK         0.5005 
     28 O          23.3991  -26.9160  -47.6676 O.2       3 UNK        -0.5279 
     29 N          23.1891  -27.0412  -45.4094 N.am      4 UNK        -0.4463 
     30 CA         24.6073  -27.2390  -45.0807 C.3       4 UNK         0.0283 
     31 CB         24.8019  -28.6784  -44.5729 C.3       4 UNK        -0.1875 
     32 C          25.1318  -26.2296  -44.0423 C.2       4 UNK         0.4949 
     33 O          26.3048  -26.3139  -43.6777 O.2       4 UNK        -0.5039 
     34 N          24.2670  -25.3187  -43.5695 N.am      5 UNK        -0.4663 
     35 CA         24.4640  -24.3970  -42.4423 C.3       5 UNK         0.0242 
     36 CB         25.5364  -23.3365  -42.7718 C.3       5 UNK        -0.1982 
     37 C          24.7279  -25.1474  -41.1192 C.2       5 UNK         0.5017 
     38 O          25.6436  -24.7889  -40.3756 O.2       5 UNK        -0.5012 
     39 N          23.9277  -26.1900  -40.8652 N.am      6 UNK        -0.4439 
     40 CA         24.0304  -27.0828  -39.7123 C.3       6 UNK         0.0297 
     41 CB         24.9919  -28.2443  -40.0501 C.3       6 UNK        -0.2006 
     42 C          22.6211  -27.5314  -39.2847 C.2       6 UNK         0.4892 
     43 O          21.6891  -26.7262  -39.3380 O.2       6 UNK        -0.5089 
     44 N          22.4889  -28.7948  -38.8644 N.am      7 UNK        -0.4243 
     45 CA         21.2373  -29.4746  -38.5271 C.3       7 UNK         0.0196 
     46 CB         20.7515  -29.0529  -37.1252 C.3       7 UNK        -0.2007 
     47 C          21.4594  -30.9892  -38.6650 C.2       7 UNK         0.5020 
     48 O          21.2166  -31.7399  -37.7198 O.2       7 UNK        -0.5147 
     49 N          21.9880  -31.4077  -39.8237 N.am      8 UNK        -0.4734 
     50 CA         22.5110  -32.7603  -40.0555 C.3       8 UNK         0.0238 
     51 CB         23.4171  -32.7568  -41.2971 C.3       8 UNK        -0.1912 
     52 C          21.4524  -33.8753  -40.1521 C.2       8 UNK         0.5038 
     53 O          21.8047  -35.0332  -39.9209 O.2       8 UNK        -0.5046 
     54 N          20.1972  -33.5366  -40.4771 N.am      9 UNK        -0.4200 
     55 CA         19.0670  -34.4848  -40.4968 C.3       9 UNK         0.0839 
     56 C          17.7183  -33.8806  -40.0091 C.2       9 UNK         0.5513 
     57 N          17.6892  -32.6621  -39.4806 N.am      9 UNK        -0.7519 
     58 O          16.6837  -34.5389  -40.0747 O.2       9 UNK        -0.4960 
     59 C59        19.0034  -35.3343  -41.8080 C.3       10 UNK        -0.0876 
     60 S60        17.9981  -34.6759  -43.1888 S.3       10 UNK        -0.2414 
     61 C61        19.1558  -33.5220  -43.9903 C.3       10 UNK         0.0169 
     62 H62        21.3217  -31.6147  -43.5520 H         1 UNK         0.0903 
     63 H63        22.6192  -30.6147  -44.1874 H         1 UNK         0.0903 
     64 H64        20.9851  -30.4321  -44.8095 H         1 UNK         0.0903 
     65 H65        19.5009  -29.0904  -43.6464 H         1 UNK         0.3096 
     66 H66        20.2650  -27.8892  -41.0783 H         1 UNK         0.1121 
     67 H67        17.8085  -27.3636  -42.8281 H         1 UNK         0.0849 
     68 H68        18.0998  -26.6793  -41.2445 H         1 UNK         0.0849 
     69 H69        15.7424  -30.3149  -41.9456 H         1 UNK         0.0865 
     70 H70        15.8222  -28.7746  -42.7582 H         1 UNK         0.0865 
     71 H71        17.7358  -31.9465  -42.2758 H         1 UNK         0.1346 
     72 H72        19.1574  -32.0740  -46.3181 H         1 UNK         0.1412 
     73 H73        16.8694  -28.7136  -44.9446 H         1 UNK         0.1426 
     74 H74        18.8230  -30.2525  -47.8066 H         1 UNK         0.0716 
     75 H75        17.1617  -29.7503  -47.6326 H         1 UNK         0.0716 
     76 H76        20.8587  -28.5473  -47.9152 H         1 UNK         0.0695 
     77 H77        20.6964  -28.7288  -46.1857 H         1 UNK         0.0695 
     78 H78        21.0184  -26.0801  -47.6958 H         1 UNK         0.0983 
     79 H79        19.8504  -26.4628  -45.1947 H         1 UNK         0.3095 
     80 H80        21.0080  -23.8189  -43.2892 H         1 UNK         0.0454 
     81 H81        18.6644  -22.9943  -43.2029 H         1 UNK         0.0851 
     82 H82        18.2892  -23.8243  -44.7142 H         1 UNK         0.0851 
     83 H83        19.4300  -22.4875  -44.6977 H         1 UNK         0.0851 
     84 H84        18.7633  -25.5309  -42.9588 H         1 UNK         0.2976 
     85 H85        22.5498  -27.0126  -44.6223 H         1 UNK         0.3116 
     86 H86        25.2250  -27.1057  -45.9709 H         1 UNK         0.0646 
     87 H87        24.4593  -29.4079  -45.3065 H         1 UNK         0.0847 
     88 H88        25.8548  -28.8883  -44.3800 H         1 UNK         0.0847 
     89 H89        24.2625  -28.8500  -43.6407 H         1 UNK         0.0847 
     90 H90        23.3216  -25.3564  -43.9227 H         1 UNK         0.3040 
     91 H91        23.5166  -23.8730  -42.3051 H         1 UNK         0.1015 
     92 H92        26.5291  -23.7769  -42.8690 H         1 UNK         0.0786 
     93 H93        25.5926  -22.5826  -41.9857 H         1 UNK         0.0786 
     94 H94        25.3069  -22.8172  -43.7022 H         1 UNK         0.0786 
     95 H95        23.1596  -26.3849  -41.5058 H         1 UNK         0.3172 
     96 H96        24.4411  -26.5293  -38.8656 H         1 UNK         0.0595 
     97 H97        25.9570  -27.8681  -40.3902 H         1 UNK         0.0839 
     98 H98        24.5926  -28.8802  -40.8419 H         1 UNK         0.0839 
     99 H99        25.1903  -28.8707  -39.1800 H         1 UNK         0.0839 
    100 H100       23.3087  -29.3860  -38.8712 H         1 UNK         0.2998 
    101 H101       20.4707  -29.2030  -39.2536 H         1 UNK         0.0822 
    102 H102       19.8230  -29.5621  -36.8636 H         1 UNK         0.0787 
    103 H103       21.4868  -29.2933  -36.3566 H         1 UNK         0.0787 
    104 H104       20.5544  -27.9819  -37.0769 H         1 UNK         0.0787 
    105 H105       22.1313  -30.7209  -40.5647 H         1 UNK         0.3055 
    106 H106       23.1382  -33.0110  -39.1966 H         1 UNK         0.1106 
    107 H107       24.1941  -31.9956  -41.2236 H         1 UNK         0.0828 
    108 H108       23.9179  -33.7189  -41.4145 H         1 UNK         0.0828 
    109 H109       22.8545  -32.5756  -42.2100 H         1 UNK         0.0828 
    110 H110       19.9815  -32.5701  -40.6686 H         1 UNK         0.2931 
    111 H111       19.2773  -35.2023  -39.7008 H         1 UNK         0.0412 
    112 H112       18.5312  -32.1366  -39.3195 H         1 UNK         0.3472 
    113 H113       16.8059  -32.2954  -39.1622 H         1 UNK         0.3472 
    114 H114       20.0066  -35.5637  -42.1704 H         1 UNK         0.0970 
    115 H115       18.5706  -36.3054  -41.5625 H         1 UNK         0.0970 
    116 H116       20.0240  -33.3828  -43.3489 H         1 UNK         0.0612 
    117 H117       19.5194  -33.9779  -44.9123 H         1 UNK         0.0612 
@<TRIPOS>BOND
     1    1    2 1    
     2    1   62 1    
     3    1   63 1    
     4    1   64 1    
     5    2    3 2    
     6    2    4 am   BACKBONE|DICT|INTERRES
     7    4    5 1    
     8    4   65 1    
     9    5    6 1    
    10    5   25 1    
    11    5   66 1    
    12    6    7 1    
    13    6   67 1    
    14    6   68 1    
    15    7    8 1    
    16    8    9 1    
    17    8   69 1    
    18    8   70 1    
    19    9   10 ar   
    20    9   14 ar   
    21   10   11 ar   
    22   10   71 1    
    23   11   12 ar   
    24   11   61 1    
    25   12   13 ar   
    26   12   72 1    
    27   13   14 ar   
    28   13   15 1    
    29   14   73 1    
    30   15   16 1    
    31   15   74 1    
    32   15   75 1    
    33   16   17 1    
    34   17   18 1    
    35   17   76 1    
    36   17   77 1    
    37   18   19 1    
    38   18   27 1    
    39   18   78 1    
    40   19   20 am   BACKBONE|DICT|INTERRES
    41   19   79 1    
    42   20   21 2    
    43   20   22 1    
    44   22   23 1    
    45   22   24 1    
    46   22   80 1    
    47   23   81 1    
    48   23   82 1    
    49   23   83 1    
    50   24   25 am   BACKBONE|DICT|INTERRES
    51   24   84 1    
    52   25   26 2    
    53   27   28 2    
    54   27   29 am   BACKBONE|DICT|INTERRES
    55   29   30 1    
    56   29   85 1    
    57   30   31 1    
    58   30   32 1    
    59   30   86 1    
    60   31   87 1    
    61   31   88 1    
    62   31   89 1    
    63   32   33 2    
    64   32   34 am   BACKBONE|DICT|INTERRES
    65   34   35 1    
    66   34   90 1    
    67   35   36 1    
    68   35   37 1    
    69   35   91 1    
    70   36   92 1    
    71   36   93 1    
    72   36   94 1    
    73   37   38 2    
    74   37   39 am   BACKBONE|DICT|INTERRES
    75   39   40 1    
    76   39   95 1    
    77   40   41 1    
    78   40   42 1    
    79   40   96 1    
    80   41   97 1    
    81   41   98 1    
    82   41   99 1    
    83   42   43 2    
    84   42   44 am   BACKBONE|DICT|INTERRES
    85   44   45 1    
    86   44  100 1    
    87   45   46 1    
    88   45   47 1    
    89   45  101 1    
    90   46  102 1    
    91   46  103 1    
    92   46  104 1    
    93   47   48 2    
    94   47   49 am   BACKBONE|DICT|INTERRES
    95   49   50 1    
    96   49  105 1    
    97   50   51 1    
    98   50   52 1    
    99   50  106 1    
   100   51  107 1    
   101   51  108 1    
   102   51  109 1    
   103   52   53 2    
   104   52   54 am   BACKBONE|DICT|INTERRES
   105   54   55 1    
   106   54  110 1    
   107   55   56 1    
   108   55   59 1    
   109   55  111 1    
   110   56   57 am   BACKBONE|DICT|INTERRES
   111   56   58 2    
   112   57  112 1    
   113   57  113 1    
   114   59   60 1    
   115   59  114 1    
   116   59  115 1    
   117   60   61 1    
   118   61  116 1    
   119   61  117 1    
@<TRIPOS>SUBSTRUCTURE
     1 UNK         1 GROUP             0       ****    0 ROOT    
