@<TRIPOS>MOLECULE
3R8
117   119    1
SMALL
USER_CHARGES


@<TRIPOS>ATOM
      1 CA         22.0747  -23.6760  -40.6817 C.3       0 UNK        -0.2013 
      2 C          20.6256  -23.6948  -41.1459 C.2       0 UNK         0.4866 
      3 O          19.9008  -22.7303  -40.8992 O.2       0 UNK        -0.5176 
      4 N          20.2010  -24.7747  -41.8138 N.am      1 UNK        -0.4884 
      5 CA         18.8829  -24.9083  -42.4408 C.3       1 UNK         0.0853 
      6 C6         18.1702  -26.2175  -41.9970 C.3       10 UNK        -0.0849 
      7 S7         18.9585  -27.7473  -42.6060 S.3       10 UNK        -0.2776 
      8 C8         17.5252  -28.7095  -43.1778 C.3       10 UNK         0.0316 
      9 C9         18.0039  -29.9127  -43.9693 C.ar      10 UNK        -0.0863 
     10 C10        18.4169  -31.0710  -43.3062 C.ar      10 UNK        -0.1009 
     11 C11        18.9466  -32.1453  -44.0246 C.ar      10 UNK        -0.0712 
     12 C12        19.0447  -32.0617  -45.4167 C.ar      10 UNK        -0.0894 
     13 C13        18.6284  -30.9109  -46.0943 C.ar      10 UNK        -0.0745 
     14 C14        18.0884  -29.8471  -45.3626 C.ar      10 UNK        -0.0972 
     15 C15        18.8001  -30.8297  -47.6105 C.3       10 UNK         0.0209 
     16 S16        19.3345  -29.1948  -48.2333 S.3       10 UNK        -0.2568 
     17 C17        20.8255  -28.8465  -47.2323 C.3       10 UNK        -0.0983 
     18 CA         21.0374  -27.3302  -46.9629 C.3       3 UNK         0.0876 
     19 N          19.8516  -26.6849  -46.3843 N.am      3 UNK        -0.4424 
     20 C          19.1480  -25.7095  -46.9749 C.2       2 UNK         0.4918 
     21 O          19.4099  -25.2505  -48.0872 O.2       2 UNK        -0.4875 
     22 CA         17.9523  -25.1221  -46.1979 C.3       2 UNK         0.0481 
     23 CB         16.6433  -25.7760  -46.6694 C.3       2 UNK        -0.1831 
     24 N          18.0380  -25.2203  -44.7355 N.am      2 UNK        -0.4498 
     25 C          19.0247  -24.7293  -43.9708 C.2       1 UNK         0.5027 
     26 O          20.0175  -24.1619  -44.4376 O.2       1 UNK        -0.4969 
     27 C          22.2777  -27.0682  -46.0791 C.2       3 UNK         0.5005 
     28 O          23.2048  -27.8806  -46.0877 O.2       3 UNK        -0.5279 
     29 N          22.2785  -25.9543  -45.3243 N.am      4 UNK        -0.4463 
     30 CA         23.2557  -25.5901  -44.2907 C.3       4 UNK         0.0283 
     31 CB         24.6629  -25.3541  -44.8859 C.3       4 UNK        -0.1875 
     32 C          23.2005  -26.6082  -43.1375 C.2       4 UNK         0.4949 
     33 O          22.1099  -26.8202  -42.6082 O.2       4 UNK        -0.5039 
     34 N          24.3422  -27.1914  -42.7419 N.am      5 UNK        -0.4663 
     35 CA         24.5292  -28.3397  -41.8308 C.3       5 UNK         0.0242 
     36 CB         23.9268  -29.6089  -42.4711 C.3       5 UNK        -0.1982 
     37 C          24.0177  -28.2022  -40.3801 C.2       5 UNK         0.5017 
     38 O          24.3593  -29.0469  -39.5531 O.2       5 UNK        -0.5012 
     39 N          23.1672  -27.2048  -40.1050 N.am      6 UNK        -0.4439 
     40 CA         22.3493  -27.0263  -38.8961 C.3       6 UNK         0.0297 
     41 CB         23.2313  -26.7267  -37.6662 C.3       6 UNK        -0.2006 
     42 C          21.3770  -28.2045  -38.6708 C.2       6 UNK         0.4892 
     43 O          21.0593  -28.5305  -37.5265 O.2       6 UNK        -0.5089 
     44 N          20.9610  -28.8378  -39.7800 N.am      7 UNK        -0.4243 
     45 CA         20.1622  -30.0636  -39.8874 C.3       7 UNK         0.0196 
     46 CB         18.7344  -29.8392  -39.3477 C.3       7 UNK        -0.2007 
     47 C          20.8205  -31.3249  -39.2877 C.2       7 UNK         0.5020 
     48 O          20.1518  -32.3542  -39.1815 O.2       7 UNK        -0.5147 
     49 N          22.1136  -31.2667  -38.9351 N.am      8 UNK        -0.4734 
     50 CA         22.8737  -32.3623  -38.3234 C.3       8 UNK         0.0238 
     51 CB         23.9991  -31.7666  -37.4569 C.3       8 UNK        -0.1912 
     52 C          23.3962  -33.3609  -39.3747 C.2       8 UNK         0.5038 
     53 O          24.5940  -33.6498  -39.4148 O.2       8 UNK        -0.5046 
     54 N          22.4865  -33.8517  -40.2219 N.am      9 UNK        -0.4200 
     55 CA         22.7468  -34.8384  -41.2771 C.3       9 UNK         0.0839 
     56 C          23.0798  -36.2423  -40.7045 C.2       9 UNK         0.5513 
     57 N          23.9314  -37.0004  -41.3811 N.am      9 UNK        -0.7519 
     58 O          22.5431  -36.6651  -39.6821 O.2       9 UNK        -0.4960 
     59 C59        21.5661  -34.9180  -42.2773 C.3       10 UNK        -0.0876 
     60 S60        21.2524  -33.3191  -43.0978 S.3       10 UNK        -0.2414 
     61 C61        19.4469  -33.3820  -43.2970 C.3       10 UNK         0.0169 
     62 H62        22.1216  -23.6976  -39.5933 H         1 UNK         0.0903 
     63 H63        22.6418  -24.5205  -41.0657 H         1 UNK         0.0903 
     64 H64        22.5635  -22.7640  -41.0235 H         1 UNK         0.0903 
     65 H65        20.8466  -25.5266  -42.0439 H         1 UNK         0.3096 
     66 H66        18.2431  -24.0832  -42.1206 H         1 UNK         0.1121 
     67 H67        18.1516  -26.2670  -40.9070 H         1 UNK         0.0849 
     68 H68        17.1210  -26.1964  -42.2947 H         1 UNK         0.0849 
     69 H69        16.9322  -29.0299  -42.3197 H         1 UNK         0.0865 
     70 H70        16.8750  -28.0876  -43.7947 H         1 UNK         0.0865 
     71 H71        18.3531  -31.1239  -42.2285 H         1 UNK         0.1346 
     72 H72        19.4708  -32.8885  -45.9686 H         1 UNK         0.1412 
     73 H73        17.7734  -28.9499  -45.8759 H         1 UNK         0.1426 
     74 H74        17.8525  -31.0907  -48.0830 H         1 UNK         0.0716 
     75 H75        19.5275  -31.5696  -47.9480 H         1 UNK         0.0716 
     76 H76        21.6817  -29.2618  -47.7668 H         1 UNK         0.0695 
     77 H77        20.7742  -29.3855  -46.2856 H         1 UNK         0.0695 
     78 H78        21.2762  -26.8691  -47.9234 H         1 UNK         0.0983 
     79 H79        19.5816  -26.9951  -45.4614 H         1 UNK         0.3095 
     80 H80        17.9050  -24.0591  -46.4427 H         1 UNK         0.0454 
     81 H81        16.5348  -25.6965  -47.7521 H         1 UNK         0.0851 
     82 H82        15.7731  -25.2932  -46.2247 H         1 UNK         0.0851 
     83 H83        16.6065  -26.8363  -46.4179 H         1 UNK         0.0851 
     84 H84        17.2625  -25.6741  -44.2766 H         1 UNK         0.2976 
     85 H85        21.4522  -25.3649  -45.3472 H         1 UNK         0.3116 
     86 H86        22.9135  -24.6418  -43.8737 H         1 UNK         0.0646 
     87 H87        24.6245  -24.6263  -45.6964 H         1 UNK         0.0847 
     88 H88        25.1070  -26.2657  -45.2866 H         1 UNK         0.0847 
     89 H89        25.3458  -24.9539  -44.1355 H         1 UNK         0.0847 
     90 H90        25.1856  -26.8918  -43.2117 H         1 UNK         0.3040 
     91 H91        25.6075  -28.4875  -41.7506 H         1 UNK         0.1015 
     92 H92        24.1349  -30.4952  -41.8694 H         1 UNK         0.0786 
     93 H93        24.3434  -29.7882  -43.4624 H         1 UNK         0.0786 
     94 H94        22.8433  -29.5365  -42.5756 H         1 UNK         0.0786 
     95 H95        22.8754  -26.6715  -40.9175 H         1 UNK         0.3172 
     96 H96        21.7215  -26.1530  -39.0749 H         1 UNK         0.0595 
     97 H97        22.6204  -26.4557  -36.8044 H         1 UNK         0.0839 
     98 H98        23.9081  -25.8940  -37.8569 H         1 UNK         0.0839 
     99 H99        23.8324  -27.5894  -37.3775 H         1 UNK         0.0839 
    100 H100       21.2677  -28.4568  -40.6659 H         1 UNK         0.2998 
    101 H101       20.0855  -30.2594  -40.9570 H         1 UNK         0.0822 
    102 H102       18.2712  -28.9643  -39.8036 H         1 UNK         0.0787 
    103 H103       18.0928  -30.6935  -39.5666 H         1 UNK         0.0787 
    104 H104       18.7286  -29.6975  -38.2668 H         1 UNK         0.0787 
    105 H105       22.6237  -30.4054  -39.0908 H         1 UNK         0.3055 
    106 H106       22.2117  -32.9222  -37.6588 H         1 UNK         0.1106 
    107 H107       23.6050  -31.0701  -36.7166 H         1 UNK         0.0828 
    108 H108       24.5302  -32.5495  -36.9141 H         1 UNK         0.0828 
    109 H109       24.7345  -31.2333  -38.0601 H         1 UNK         0.0828 
    110 H110       21.5239  -33.5588  -40.1012 H         1 UNK         0.2931 
    111 H111       23.6246  -34.4906  -41.8264 H         1 UNK         0.0412 
    112 H112       24.3700  -36.6659  -42.2256 H         1 UNK         0.3472 
    113 H113       24.1498  -37.9223  -41.0355 H         1 UNK         0.3472 
    114 H114       21.7703  -35.6558  -43.0557 H         1 UNK         0.0970 
    115 H115       20.6611  -35.2543  -41.7674 H         1 UNK         0.0970 
    116 H116       19.1719  -34.2781  -43.8554 H         1 UNK         0.0612 
    117 H117       18.9763  -33.4651  -42.3158 H         1 UNK         0.0612 
@<TRIPOS>BOND
     1    1    2 1    
     2    1   62 1    
     3    1   63 1    
     4    1   64 1    
     5    2    3 2    
     6    2    4 am   BACKBONE|DICT|INTERRES
     7    4    5 1    
     8    4   65 1    
     9    5    6 1    
    10    5   25 1    
    11    5   66 1    
    12    6    7 1    
    13    6   67 1    
    14    6   68 1    
    15    7    8 1    
    16    8    9 1    
    17    8   69 1    
    18    8   70 1    
    19    9   10 ar   
    20    9   14 ar   
    21   10   11 ar   
    22   10   71 1    
    23   11   12 ar   
    24   11   61 1    
    25   12   13 ar   
    26   12   72 1    
    27   13   14 ar   
    28   13   15 1    
    29   14   73 1    
    30   15   16 1    
    31   15   74 1    
    32   15   75 1    
    33   16   17 1    
    34   17   18 1    
    35   17   76 1    
    36   17   77 1    
    37   18   19 1    
    38   18   27 1    
    39   18   78 1    
    40   19   20 am   BACKBONE|DICT|INTERRES
    41   19   79 1    
    42   20   21 2    
    43   20   22 1    
    44   22   23 1    
    45   22   24 1    
    46   22   80 1    
    47   23   81 1    
    48   23   82 1    
    49   23   83 1    
    50   24   25 am   BACKBONE|DICT|INTERRES
    51   24   84 1    
    52   25   26 2    
    53   27   28 2    
    54   27   29 am   BACKBONE|DICT|INTERRES
    55   29   30 1    
    56   29   85 1    
    57   30   31 1    
    58   30   32 1    
    59   30   86 1    
    60   31   87 1    
    61   31   88 1    
    62   31   89 1    
    63   32   33 2    
    64   32   34 am   BACKBONE|DICT|INTERRES
    65   34   35 1    
    66   34   90 1    
    67   35   36 1    
    68   35   37 1    
    69   35   91 1    
    70   36   92 1    
    71   36   93 1    
    72   36   94 1    
    73   37   38 2    
    74   37   39 am   BACKBONE|DICT|INTERRES
    75   39   40 1    
    76   39   95 1    
    77   40   41 1    
    78   40   42 1    
    79   40   96 1    
    80   41   97 1    
    81   41   98 1    
    82   41   99 1    
    83   42   43 2    
    84   42   44 am   BACKBONE|DICT|INTERRES
    85   44   45 1    
    86   44  100 1    
    87   45   46 1    
    88   45   47 1    
    89   45  101 1    
    90   46  102 1    
    91   46  103 1    
    92   46  104 1    
    93   47   48 2    
    94   47   49 am   BACKBONE|DICT|INTERRES
    95   49   50 1    
    96   49  105 1    
    97   50   51 1    
    98   50   52 1    
    99   50  106 1    
   100   51  107 1    
   101   51  108 1    
   102   51  109 1    
   103   52   53 2    
   104   52   54 am   BACKBONE|DICT|INTERRES
   105   54   55 1    
   106   54  110 1    
   107   55   56 1    
   108   55   59 1    
   109   55  111 1    
   110   56   57 am   BACKBONE|DICT|INTERRES
   111   56   58 2    
   112   57  112 1    
   113   57  113 1    
   114   59   60 1    
   115   59  114 1    
   116   59  115 1    
   117   60   61 1    
   118   61  116 1    
   119   61  117 1    
@<TRIPOS>SUBSTRUCTURE
     1 UNK         1 GROUP             0       ****    0 ROOT    
