@<TRIPOS>MOLECULE
3R8
117   119    1
SMALL
USER_CHARGES


@<TRIPOS>ATOM
      1 CA         15.6265  -23.4337  -48.5560 C.3       0 UNK        -0.2013 
      2 C          16.6534  -24.5526  -48.4672 C.2       0 UNK         0.4866 
      3 O          17.6211  -24.5569  -49.2282 O.2       0 UNK        -0.5176 
      4 N          16.4515  -25.5025  -47.5434 N.am      1 UNK        -0.4884 
      5 CA         17.3425  -26.6502  -47.3182 C.3       1 UNK         0.0853 
      6 C6         16.6086  -27.7839  -46.5530 C.3       10 UNK        -0.0849 
      7 S7         17.2973  -29.4307  -46.9261 S.3       10 UNK        -0.2776 
      8 C8         16.3827  -30.4807  -45.7555 C.3       10 UNK         0.0316 
      9 C9         16.9196  -30.3765  -44.3337 C.ar      10 UNK        -0.0863 
     10 C10        18.1114  -31.0222  -43.9865 C.ar      10 UNK        -0.1009 
     11 C11        18.5707  -30.9993  -42.6664 C.ar      10 UNK        -0.0712 
     12 C12        17.8283  -30.3292  -41.6917 C.ar      10 UNK        -0.0894 
     13 C13        16.6510  -29.6554  -42.0291 C.ar      10 UNK        -0.0745 
     14 C14        16.2014  -29.6825  -43.3536 C.ar      10 UNK        -0.0972 
     15 C15        15.8458  -28.9335  -40.9555 C.3       10 UNK         0.0209 
     16 S16        16.8531  -27.7658  -39.9830 S.3       10 UNK        -0.2568 
     17 C17        17.2572  -26.4937  -41.2258 C.3       10 UNK        -0.0983 
     18 CA         18.6847  -26.6174  -41.8194 C.3       3 UNK         0.0876 
     19 N          18.8131  -25.7376  -42.9827 N.am      3 UNK        -0.4424 
     20 C          19.8683  -25.6419  -43.8017 C.2       2 UNK         0.4918 
     21 O          20.8933  -26.3184  -43.7080 O.2       2 UNK        -0.4875 
     22 CA         19.6888  -24.6502  -44.9651 C.3       2 UNK         0.0481 
     23 CB         21.0033  -24.3260  -45.7066 C.3       2 UNK        -0.1831 
     24 N          18.6468  -25.1269  -45.8832 N.am      2 UNK        -0.4498 
     25 C          18.6587  -26.2601  -46.6071 C.2       1 UNK         0.5027 
     26 O          19.6401  -26.9944  -46.7188 O.2       1 UNK        -0.4969 
     27 C          19.7780  -26.3326  -40.7649 C.2       3 UNK         0.5005 
     28 O          20.0797  -25.1668  -40.4930 O.2       3 UNK        -0.5279 
     29 N          20.3282  -27.4017  -40.1825 N.am      4 UNK        -0.4463 
     30 CA         21.3730  -27.4032  -39.1630 C.3       4 UNK         0.0283 
     31 CB         22.7346  -27.0474  -39.8023 C.3       4 UNK        -0.1875 
     32 C          21.3783  -28.7931  -38.5032 C.2       4 UNK         0.4949 
     33 O          20.3953  -29.5302  -38.6222 O.2       4 UNK        -0.5039 
     34 N          22.4921  -29.1503  -37.8495 N.am      5 UNK        -0.4663 
     35 CA         22.8198  -30.5371  -37.5027 C.3       5 UNK         0.0242 
     36 CB         24.0260  -30.5486  -36.5503 C.3       5 UNK        -0.1982 
     37 C          23.1392  -31.3273  -38.7838 C.2       5 UNK         0.5017 
     38 O          23.7011  -30.7438  -39.7111 O.2       5 UNK        -0.5012 
     39 N          22.7966  -32.6232  -38.8091 N.am      6 UNK        -0.4439 
     40 CA         22.7739  -33.4951  -39.9962 C.3       6 UNK         0.0297 
     41 CB         22.4499  -34.9334  -39.5607 C.3       6 UNK        -0.2006 
     42 C          24.0270  -33.4825  -40.8943 C.2       6 UNK         0.4892 
     43 O          23.8939  -33.6003  -42.1127 O.2       6 UNK        -0.5089 
     44 N          25.2109  -33.3324  -40.2876 N.am      7 UNK        -0.4243 
     45 CA         26.4958  -33.2516  -40.9872 C.3       7 UNK         0.0196 
     46 CB         27.6143  -33.6391  -40.0052 C.3       7 UNK        -0.2007 
     47 C          26.7861  -31.8696  -41.6065 C.2       7 UNK         0.5020 
     48 O          27.6877  -31.7733  -42.4397 O.2       7 UNK        -0.5147 
     49 N          26.0631  -30.8268  -41.1786 N.am      8 UNK        -0.4734 
     50 CA         26.3047  -29.4266  -41.5360 C.3       8 UNK         0.0238 
     51 CB         26.4317  -28.6138  -40.2344 C.3       8 UNK        -0.1912 
     52 C          25.2100  -28.8258  -42.4352 C.2       8 UNK         0.5038 
     53 O          25.3778  -27.6844  -42.8676 O.2       8 UNK        -0.5046 
     54 N          24.1171  -29.5625  -42.6857 N.am      9 UNK        -0.4200 
     55 CA         22.9750  -29.1283  -43.5106 C.3       9 UNK         0.0839 
     56 C          23.3702  -28.7432  -44.9617 C.2       9 UNK         0.5513 
     57 N          22.7542  -27.7069  -45.5091 N.am      9 UNK        -0.7519 
     58 O          24.1850  -29.4036  -45.6037 O.2       9 UNK        -0.4960 
     59 C59        21.8381  -30.1815  -43.5418 C.3       10 UNK        -0.0876 
     60 S60        21.1802  -30.5390  -41.8863 S.3       10 UNK        -0.2414 
     61 C61        19.8513  -31.7165  -42.2716 C.3       10 UNK         0.0169 
     62 H62        15.1810  -23.4120  -49.5502 H         1 UNK         0.0903 
     63 H63        14.8244  -23.5558  -47.8283 H         1 UNK         0.0903 
     64 H64        16.1041  -22.4709  -48.3759 H         1 UNK         0.0903 
     65 H65        15.6325  -25.4533  -46.9530 H         1 UNK         0.3096 
     66 H66        17.6235  -27.0298  -48.3039 H         1 UNK         0.1121 
     67 H67        16.6188  -27.6110  -45.4748 H         1 UNK         0.0849 
     68 H68        15.5567  -27.8138  -46.8425 H         1 UNK         0.0849 
     69 H69        15.3209  -30.2314  -45.7922 H         1 UNK         0.0865 
     70 H70        16.4573  -31.5175  -46.0870 H         1 UNK         0.0865 
     71 H71        18.6714  -31.5553  -44.7428 H         1 UNK         0.1346 
     72 H72        18.1767  -30.3243  -40.6672 H         1 UNK         0.1412 
     73 H73        15.2787  -29.1837  -43.6177 H         1 UNK         0.1426 
     74 H74        14.9998  -28.3987  -41.3903 H         1 UNK         0.0716 
     75 H75        15.4236  -29.6774  -40.2788 H         1 UNK         0.0716 
     76 H76        17.1180  -25.5130  -40.7666 H         1 UNK         0.0695 
     77 H77        16.5159  -26.5526  -42.0246 H         1 UNK         0.0695 
     78 H78        18.8236  -27.6353  -42.1909 H         1 UNK         0.0983 
     79 H79        18.0311  -25.1230  -43.1495 H         1 UNK         0.3095 
     80 H80        19.3235  -23.7166  -44.5345 H         1 UNK         0.0454 
     81 H81        20.8422  -23.5849  -46.4891 H         1 UNK         0.0851 
     82 H82        21.4485  -25.2060  -46.1693 H         1 UNK         0.0851 
     83 H83        21.7436  -23.9166  -45.0184 H         1 UNK         0.0851 
     84 H84        17.7894  -24.5926  -45.8893 H         1 UNK         0.2976 
     85 H85        19.9752  -28.3283  -40.3945 H         1 UNK         0.3116 
     86 H86        21.1214  -26.6670  -38.3974 H         1 UNK         0.0646 
     87 H87        22.6868  -26.1158  -40.3659 H         1 UNK         0.0847 
     88 H88        23.5114  -26.9165  -39.0490 H         1 UNK         0.0847 
     89 H89        23.0653  -27.8292  -40.4872 H         1 UNK         0.0847 
     90 H90        23.2571  -28.4932  -37.8184 H         1 UNK         0.3040 
     91 H91        21.9597  -30.9888  -37.0031 H         1 UNK         0.1015 
     92 H92        24.9134  -30.1173  -37.0162 H         1 UNK         0.0786 
     93 H93        24.2779  -31.5667  -36.2504 H         1 UNK         0.0786 
     94 H94        23.8179  -29.9862  -35.6398 H         1 UNK         0.0786 
     95 H95        22.3782  -33.0124  -37.9763 H         1 UNK         0.3172 
     96 H96        21.9469  -33.1463  -40.6156 H         1 UNK         0.0595 
     97 H97        23.2063  -35.3295  -38.8820 H         1 UNK         0.0839 
     98 H98        22.4031  -35.6022  -40.4217 H         1 UNK         0.0839 
     99 H99        21.4835  -34.9908  -39.0595 H         1 UNK         0.0839 
    100 H100       25.2255  -33.2263  -39.2836 H         1 UNK         0.2998 
    101 H101       26.4948  -33.9778  -41.8032 H         1 UNK         0.0822 
    102 H102       27.4648  -34.6436  -39.6088 H         1 UNK         0.0787 
    103 H103       28.5880  -33.6293  -40.4974 H         1 UNK         0.0787 
    104 H104       27.6687  -32.9484  -39.1626 H         1 UNK         0.0787 
    105 H105       25.2889  -30.9849  -40.5345 H         1 UNK         0.3055 
    106 H106       27.2440  -29.3323  -42.0854 H         1 UNK         0.1106 
    107 H107       27.2471  -28.9855  -39.6140 H         1 UNK         0.0828 
    108 H108       26.6388  -27.5634  -40.4433 H         1 UNK         0.0828 
    109 H109       25.5162  -28.6547  -39.6434 H         1 UNK         0.0828 
    110 H110       24.0401  -30.4741  -42.2591 H         1 UNK         0.2931 
    111 H111       22.5831  -28.2332  -43.0243 H         1 UNK         0.0412 
    112 H112       22.0610  -27.1874  -44.9773 H         1 UNK         0.3472 
    113 H113       22.9608  -27.4481  -46.4601 H         1 UNK         0.3472 
    114 H114       21.0092  -29.8284  -44.1594 H         1 UNK         0.0970 
    115 H115       22.1886  -31.1126  -43.9913 H         1 UNK         0.0970 
    116 H116       20.1792  -32.4048  -43.0521 H         1 UNK         0.0612 
    117 H117       19.6590  -32.3252  -41.3869 H         1 UNK         0.0612 
@<TRIPOS>BOND
     1    1    2 1    
     2    1   62 1    
     3    1   63 1    
     4    1   64 1    
     5    2    3 2    
     6    2    4 am   BACKBONE|DICT|INTERRES
     7    4    5 1    
     8    4   65 1    
     9    5    6 1    
    10    5   25 1    
    11    5   66 1    
    12    6    7 1    
    13    6   67 1    
    14    6   68 1    
    15    7    8 1    
    16    8    9 1    
    17    8   69 1    
    18    8   70 1    
    19    9   10 ar   
    20    9   14 ar   
    21   10   11 ar   
    22   10   71 1    
    23   11   12 ar   
    24   11   61 1    
    25   12   13 ar   
    26   12   72 1    
    27   13   14 ar   
    28   13   15 1    
    29   14   73 1    
    30   15   16 1    
    31   15   74 1    
    32   15   75 1    
    33   16   17 1    
    34   17   18 1    
    35   17   76 1    
    36   17   77 1    
    37   18   19 1    
    38   18   27 1    
    39   18   78 1    
    40   19   20 am   BACKBONE|DICT|INTERRES
    41   19   79 1    
    42   20   21 2    
    43   20   22 1    
    44   22   23 1    
    45   22   24 1    
    46   22   80 1    
    47   23   81 1    
    48   23   82 1    
    49   23   83 1    
    50   24   25 am   BACKBONE|DICT|INTERRES
    51   24   84 1    
    52   25   26 2    
    53   27   28 2    
    54   27   29 am   BACKBONE|DICT|INTERRES
    55   29   30 1    
    56   29   85 1    
    57   30   31 1    
    58   30   32 1    
    59   30   86 1    
    60   31   87 1    
    61   31   88 1    
    62   31   89 1    
    63   32   33 2    
    64   32   34 am   BACKBONE|DICT|INTERRES
    65   34   35 1    
    66   34   90 1    
    67   35   36 1    
    68   35   37 1    
    69   35   91 1    
    70   36   92 1    
    71   36   93 1    
    72   36   94 1    
    73   37   38 2    
    74   37   39 am   BACKBONE|DICT|INTERRES
    75   39   40 1    
    76   39   95 1    
    77   40   41 1    
    78   40   42 1    
    79   40   96 1    
    80   41   97 1    
    81   41   98 1    
    82   41   99 1    
    83   42   43 2    
    84   42   44 am   BACKBONE|DICT|INTERRES
    85   44   45 1    
    86   44  100 1    
    87   45   46 1    
    88   45   47 1    
    89   45  101 1    
    90   46  102 1    
    91   46  103 1    
    92   46  104 1    
    93   47   48 2    
    94   47   49 am   BACKBONE|DICT|INTERRES
    95   49   50 1    
    96   49  105 1    
    97   50   51 1    
    98   50   52 1    
    99   50  106 1    
   100   51  107 1    
   101   51  108 1    
   102   51  109 1    
   103   52   53 2    
   104   52   54 am   BACKBONE|DICT|INTERRES
   105   54   55 1    
   106   54  110 1    
   107   55   56 1    
   108   55   59 1    
   109   55  111 1    
   110   56   57 am   BACKBONE|DICT|INTERRES
   111   56   58 2    
   112   57  112 1    
   113   57  113 1    
   114   59   60 1    
   115   59  114 1    
   116   59  115 1    
   117   60   61 1    
   118   61  116 1    
   119   61  117 1    
@<TRIPOS>SUBSTRUCTURE
     1 UNK         1 GROUP             0       ****    0 ROOT    
