@<TRIPOS>MOLECULE
3R8
117   119    1
SMALL
USER_CHARGES


@<TRIPOS>ATOM
      1 CA         21.6535  -23.5325  -46.4481 C.3       0 UNK        -0.2013 
      2 C          20.2331  -23.8760  -46.8937 C.2       0 UNK         0.4866 
      3 O          19.5488  -23.0104  -47.4357 O.2       0 UNK        -0.5176 
      4 N          19.7411  -25.1101  -46.7040 N.am      1 UNK        -0.4884 
      5 CA         20.4002  -26.2435  -46.0407 C.3       1 UNK         0.0853 
      6 C6         19.5838  -27.5487  -46.1951 C.3       10 UNK        -0.0849 
      7 S7         19.6802  -28.2673  -47.8674 S.3       10 UNK        -0.2776 
      8 C8         18.3807  -29.5553  -47.8147 C.3       10 UNK         0.0316 
      9 C9         18.2972  -30.2617  -46.4657 C.ar      10 UNK        -0.0863 
     10 C10        19.3192  -31.1207  -46.0473 C.ar      10 UNK        -0.1009 
     11 C11        19.2808  -31.6992  -44.7743 C.ar      10 UNK        -0.0712 
     12 C12        18.1944  -31.4372  -43.9323 C.ar      10 UNK        -0.0894 
     13 C13        17.1683  -30.5810  -44.3390 C.ar      10 UNK        -0.0745 
     14 C14        17.2204  -30.0051  -45.6108 C.ar      10 UNK        -0.0972 
     15 C15        16.0173  -30.2503  -43.3995 C.3       10 UNK         0.0209 
     16 S16        16.2352  -28.6160  -42.6189 S.3       10 UNK        -0.2568 
     17 C17        17.4043  -28.9805  -41.2645 C.3       10 UNK        -0.0983 
     18 CA         18.8863  -28.8057  -41.6858 C.3       3 UNK         0.0876 
     19 N          19.2053  -27.4704  -42.1941 N.am      3 UNK        -0.4424 
     20 C          19.4611  -26.3311  -41.5393 C.2       2 UNK         0.4918 
     21 O          19.4973  -26.2308  -40.3117 O.2       2 UNK        -0.4875 
     22 CA         19.6657  -25.0671  -42.4096 C.3       2 UNK         0.0481 
     23 CB         20.8706  -24.2295  -41.9374 C.3       2 UNK        -0.1831 
     24 N          19.7219  -25.3154  -43.8630 N.am      2 UNK        -0.4498 
     25 C          20.6567  -26.0016  -44.5417 C.2       1 UNK         0.5027 
     26 O          21.6663  -26.4816  -44.0354 O.2       1 UNK        -0.4969 
     27 C          19.8754  -29.3310  -40.6295 C.2       3 UNK         0.5005 
     28 O          20.8106  -30.0435  -40.9916 O.2       3 UNK        -0.5279 
     29 N          19.6433  -29.0032  -39.3504 N.am      4 UNK        -0.4463 
     30 CA         20.4745  -29.4186  -38.2171 C.3       4 UNK         0.0283 
     31 CB         19.7093  -29.1666  -36.9085 C.3       4 UNK        -0.1875 
     32 C          21.8470  -28.7233  -38.1799 C.2       4 UNK         0.4949 
     33 O          22.7885  -29.2873  -37.6220 O.2       4 UNK        -0.5039 
     34 N          21.9403  -27.5316  -38.7796 N.am      5 UNK        -0.4663 
     35 CA         23.1871  -26.8087  -39.0273 C.3       5 UNK         0.0242 
     36 CB         22.9783  -25.3353  -38.6387 C.3       5 UNK        -0.1982 
     37 C          23.5516  -26.9287  -40.5146 C.2       5 UNK         0.5017 
     38 O          22.7028  -27.3301  -41.3105 O.2       5 UNK        -0.5012 
     39 N          24.7936  -26.5553  -40.8584 N.am      6 UNK        -0.4439 
     40 CA         25.3860  -26.4882  -42.2042 C.3       6 UNK         0.0297 
     41 CB         24.7983  -25.3200  -43.0195 C.3       6 UNK        -0.2006 
     42 C          25.3625  -27.8232  -42.9737 C.2       6 UNK         0.4892 
     43 O          26.3992  -28.4850  -43.0408 O.2       6 UNK        -0.5089 
     44 N          24.1985  -28.2045  -43.5226 N.am      7 UNK        -0.4243 
     45 CA         23.9513  -29.5188  -44.1273 C.3       7 UNK         0.0196 
     46 CB         22.5699  -29.5275  -44.7994 C.3       7 UNK        -0.2007 
     47 C          24.0643  -30.6682  -43.1082 C.2       7 UNK         0.5020 
     48 O          24.5518  -31.7403  -43.4668 O.2       7 UNK        -0.5147 
     49 N          23.6536  -30.3955  -41.8604 N.am      8 UNK        -0.4734 
     50 CA         23.8024  -31.2222  -40.6579 C.3       8 UNK         0.0238 
     51 CB         25.2808  -31.2431  -40.2163 C.3       8 UNK        -0.1912 
     52 C          23.1963  -32.6317  -40.7964 C.2       8 UNK         0.5038 
     53 O          23.9211  -33.6258  -40.7058 O.2       8 UNK        -0.5046 
     54 N          21.8771  -32.6938  -41.0063 N.am      9 UNK        -0.4200 
     55 CA         21.1039  -33.9403  -41.0930 C.3       9 UNK         0.0839 
     56 C          19.6662  -33.7716  -40.5290 C.2       9 UNK         0.5513 
     57 N          18.9789  -34.8725  -40.2557 N.am      9 UNK        -0.7519 
     58 O          19.1637  -32.6659  -40.3418 O.2       9 UNK        -0.4960 
     59 C59        21.2035  -34.6031  -42.5056 C.3       10 UNK        -0.0876 
     60 S60        19.8951  -34.1850  -43.7127 S.3       10 UNK        -0.2414 
     61 C61        20.4428  -32.5454  -44.2739 C.3       10 UNK         0.0169 
     62 H62        21.6863  -23.3513  -45.3739 H         1 UNK         0.0903 
     63 H63        22.3612  -24.3232  -46.6942 H         1 UNK         0.0903 
     64 H64        21.9961  -22.6260  -46.9471 H         1 UNK         0.0903 
     65 H65        18.8130  -25.3046  -47.0532 H         1 UNK         0.3096 
     66 H66        21.3752  -26.3984  -46.5078 H         1 UNK         0.1121 
     67 H67        19.9504  -28.3164  -45.5100 H         1 UNK         0.0849 
     68 H68        18.5368  -27.3829  -45.9326 H         1 UNK         0.0849 
     69 H69        17.4236  -29.0938  -48.0630 H         1 UNK         0.0865 
     70 H70        18.5741  -30.2890  -48.5985 H         1 UNK         0.0865 
     71 H71        20.1643  -31.2999  -46.6980 H         1 UNK         0.1346 
     72 H72        18.1705  -31.8720  -42.9416 H         1 UNK         0.1412 
     73 H73        16.4347  -29.3286  -45.9194 H         1 UNK         0.1426 
     74 H74        15.0839  -30.2454  -43.9644 H         1 UNK         0.0716 
     75 H75        15.9029  -31.0195  -42.6341 H         1 UNK         0.0716 
     76 H76        17.1619  -28.3154  -40.4343 H         1 UNK         0.0695 
     77 H77        17.2221  -29.9958  -40.9062 H         1 UNK         0.0695 
     78 H78        19.0548  -29.4463  -42.5470 H         1 UNK         0.0983 
     79 H79        19.2263  -27.4081  -43.1988 H         1 UNK         0.3095 
     80 H80        18.7726  -24.4598  -42.2563 H         1 UNK         0.0454 
     81 H81        20.7192  -23.8732  -40.9182 H         1 UNK         0.0851 
     82 H82        21.7918  -24.8099  -41.9420 H         1 UNK         0.0851 
     83 H83        21.0202  -23.3525  -42.5667 H         1 UNK         0.0851 
     84 H84        18.9328  -24.9653  -44.3901 H         1 UNK         0.2976 
     85 H85        18.8892  -28.3599  -39.1534 H         1 UNK         0.3116 
     86 H86        20.6530  -30.4926  -38.3071 H         1 UNK         0.0646 
     87 H87        20.2940  -29.4922  -36.0469 H         1 UNK         0.0847 
     88 H88        18.7685  -29.7170  -36.8856 H         1 UNK         0.0847 
     89 H89        19.4854  -28.1082  -36.7684 H         1 UNK         0.0847 
     90 H90        21.1306  -27.1891  -39.2863 H         1 UNK         0.3040 
     91 H91        24.0029  -27.2268  -38.4334 H         1 UNK         0.1015 
     92 H92        22.7196  -25.2397  -37.5840 H         1 UNK         0.0786 
     93 H93        22.1782  -24.8758  -39.2197 H         1 UNK         0.0786 
     94 H94        23.8821  -24.7474  -38.8034 H         1 UNK         0.0786 
     95 H95        25.4156  -26.2730  -40.1131 H         1 UNK         0.3172 
     96 H96        26.4402  -26.2542  -42.0455 H         1 UNK         0.0595 
     97 H97        23.7183  -25.3896  -43.1182 H         1 UNK         0.0839 
     98 H98        25.2168  -25.2928  -44.0265 H         1 UNK         0.0839 
     99 H99        25.0224  -24.3624  -42.5501 H         1 UNK         0.0839 
    100 H100       23.3842  -27.6154  -43.3618 H         1 UNK         0.2998 
    101 H101       24.7096  -29.6793  -44.8964 H         1 UNK         0.0822 
    102 H102       22.4937  -28.7479  -45.5570 H         1 UNK         0.0787 
    103 H103       22.3858  -30.4794  -45.2975 H         1 UNK         0.0787 
    104 H104       21.7693  -29.3741  -44.0738 H         1 UNK         0.0787 
    105 H105       23.1882  -29.5053  -41.7147 H         1 UNK         0.3055 
    106 H106       23.2353  -30.7254  -39.8710 H         1 UNK         0.1106 
    107 H107       25.4010  -31.7885  -39.2794 H         1 UNK         0.0828 
    108 H108       25.9185  -31.7239  -40.9591 H         1 UNK         0.0828 
    109 H109       25.6586  -30.2334  -40.0540 H         1 UNK         0.0828 
    110 H110       21.3366  -31.8289  -41.0347 H         1 UNK         0.2931 
    111 H111       21.5783  -34.6298  -40.3909 H         1 UNK         0.0412 
    112 H112       18.0421  -34.7859  -39.8934 H         1 UNK         0.3472 
    113 H113       19.3722  -35.7872  -40.4145 H         1 UNK         0.3472 
    114 H114       21.1638  -35.6861  -42.3805 H         1 UNK         0.0970 
    115 H115       22.1784  -34.4115  -42.9574 H         1 UNK         0.0970 
    116 H116       21.2022  -32.6747  -45.0463 H         1 UNK         0.0612 
    117 H117       20.9201  -32.0090  -43.4538 H         1 UNK         0.0612 
@<TRIPOS>BOND
     1    1    2 1    
     2    1   62 1    
     3    1   63 1    
     4    1   64 1    
     5    2    3 2    
     6    2    4 am   BACKBONE|DICT|INTERRES
     7    4    5 1    
     8    4   65 1    
     9    5    6 1    
    10    5   25 1    
    11    5   66 1    
    12    6    7 1    
    13    6   67 1    
    14    6   68 1    
    15    7    8 1    
    16    8    9 1    
    17    8   69 1    
    18    8   70 1    
    19    9   10 ar   
    20    9   14 ar   
    21   10   11 ar   
    22   10   71 1    
    23   11   12 ar   
    24   11   61 1    
    25   12   13 ar   
    26   12   72 1    
    27   13   14 ar   
    28   13   15 1    
    29   14   73 1    
    30   15   16 1    
    31   15   74 1    
    32   15   75 1    
    33   16   17 1    
    34   17   18 1    
    35   17   76 1    
    36   17   77 1    
    37   18   19 1    
    38   18   27 1    
    39   18   78 1    
    40   19   20 am   BACKBONE|DICT|INTERRES
    41   19   79 1    
    42   20   21 2    
    43   20   22 1    
    44   22   23 1    
    45   22   24 1    
    46   22   80 1    
    47   23   81 1    
    48   23   82 1    
    49   23   83 1    
    50   24   25 am   BACKBONE|DICT|INTERRES
    51   24   84 1    
    52   25   26 2    
    53   27   28 2    
    54   27   29 am   BACKBONE|DICT|INTERRES
    55   29   30 1    
    56   29   85 1    
    57   30   31 1    
    58   30   32 1    
    59   30   86 1    
    60   31   87 1    
    61   31   88 1    
    62   31   89 1    
    63   32   33 2    
    64   32   34 am   BACKBONE|DICT|INTERRES
    65   34   35 1    
    66   34   90 1    
    67   35   36 1    
    68   35   37 1    
    69   35   91 1    
    70   36   92 1    
    71   36   93 1    
    72   36   94 1    
    73   37   38 2    
    74   37   39 am   BACKBONE|DICT|INTERRES
    75   39   40 1    
    76   39   95 1    
    77   40   41 1    
    78   40   42 1    
    79   40   96 1    
    80   41   97 1    
    81   41   98 1    
    82   41   99 1    
    83   42   43 2    
    84   42   44 am   BACKBONE|DICT|INTERRES
    85   44   45 1    
    86   44  100 1    
    87   45   46 1    
    88   45   47 1    
    89   45  101 1    
    90   46  102 1    
    91   46  103 1    
    92   46  104 1    
    93   47   48 2    
    94   47   49 am   BACKBONE|DICT|INTERRES
    95   49   50 1    
    96   49  105 1    
    97   50   51 1    
    98   50   52 1    
    99   50  106 1    
   100   51  107 1    
   101   51  108 1    
   102   51  109 1    
   103   52   53 2    
   104   52   54 am   BACKBONE|DICT|INTERRES
   105   54   55 1    
   106   54  110 1    
   107   55   56 1    
   108   55   59 1    
   109   55  111 1    
   110   56   57 am   BACKBONE|DICT|INTERRES
   111   56   58 2    
   112   57  112 1    
   113   57  113 1    
   114   59   60 1    
   115   59  114 1    
   116   59  115 1    
   117   60   61 1    
   118   61  116 1    
   119   61  117 1    
@<TRIPOS>SUBSTRUCTURE
     1 UNK         1 GROUP             0       ****    0 ROOT    
