@<TRIPOS>MOLECULE
3R8
117   119    1
SMALL
USER_CHARGES


@<TRIPOS>ATOM
      1 CA         15.7063  -24.0942  -39.6906 C.3       0 UNK        -0.2013 
      2 C          15.9033  -24.8947  -40.9695 C.2       0 UNK         0.4866 
      3 O          15.0409  -24.8657  -41.8485 O.2       0 UNK        -0.5176 
      4 N          17.0265  -25.6156  -41.0764 N.am      1 UNK        -0.4884 
      5 CA         17.4085  -26.3949  -42.2590 C.3       1 UNK         0.0853 
      6 C6         18.4741  -27.4729  -41.9136 C.3       10 UNK        -0.0849 
      7 S7         17.6985  -29.0847  -41.5482 S.3       10 UNK        -0.2776 
      8 C8         17.4826  -29.7935  -43.2154 C.3       10 UNK         0.0316 
      9 C9         18.7936  -30.2594  -43.8366 C.ar      10 UNK        -0.0863 
     10 C10        19.2477  -31.5633  -43.6217 C.ar      10 UNK        -0.1009 
     11 C11        20.4225  -32.0174  -44.2295 C.ar      10 UNK        -0.0712 
     12 C12        21.1623  -31.1487  -45.0391 C.ar      10 UNK        -0.0894 
     13 C13        20.7200  -29.8403  -45.2592 C.ar      10 UNK        -0.0745 
     14 C14        19.5304  -29.4091  -44.6668 C.ar      10 UNK        -0.0972 
     15 C15        21.5068  -28.8887  -46.1480 C.3       10 UNK         0.0209 
     16 S16        22.7239  -27.9480  -45.1768 S.3       10 UNK        -0.2568 
     17 C17        22.7335  -26.3346  -46.0399 C.3       10 UNK        -0.0983 
     18 CA         21.9269  -25.2070  -45.3338 C.3       3 UNK         0.0876 
     19 N          20.4952  -25.4895  -45.2819 N.am      3 UNK        -0.4424 
     20 C          19.5933  -25.0518  -46.1656 C.2       2 UNK         0.4918 
     21 O          19.8951  -24.4155  -47.1764 O.2       2 UNK        -0.4875 
     22 CA         18.1036  -25.3667  -45.9123 C.3       2 UNK         0.0481 
     23 CB         17.5399  -26.2279  -47.0561 C.3       2 UNK        -0.1831 
     24 N          17.7962  -26.0304  -44.6406 N.am      2 UNK        -0.4498 
     25 C          17.8714  -25.4849  -43.4183 C.2       1 UNK         0.5027 
     26 O          18.2913  -24.3464  -43.1982 O.2       1 UNK        -0.4969 
     27 C          22.4144  -24.9178  -43.9031 C.2       3 UNK         0.5005 
     28 O          21.7463  -25.2974  -42.9375 O.2       3 UNK        -0.5279 
     29 N          23.5757  -24.2599  -43.7972 N.am      4 UNK        -0.4463 
     30 CA         24.2748  -24.0127  -42.5316 C.3       4 UNK         0.0283 
     31 CB         24.9360  -22.6250  -42.5921 C.3       4 UNK        -0.1875 
     32 C          25.3292  -25.0932  -42.2244 C.2       4 UNK         0.4949 
     33 O          25.8502  -25.1217  -41.1095 O.2       4 UNK        -0.5039 
     34 N          25.6515  -25.9397  -43.2138 N.am      5 UNK        -0.4663 
     35 CA         26.6908  -26.9695  -43.1346 C.3       5 UNK         0.0242 
     36 CB         27.0289  -27.4449  -44.5574 C.3       5 UNK        -0.1982 
     37 C          26.3136  -28.1688  -42.2492 C.2       5 UNK         0.5017 
     38 O          27.2091  -28.8141  -41.7024 O.2       5 UNK        -0.5012 
     39 N          25.0130  -28.4523  -42.1309 N.am      6 UNK        -0.4439 
     40 CA         24.4407  -29.5501  -41.3600 C.3       6 UNK         0.0297 
     41 CB         24.6192  -30.8782  -42.1226 C.3       6 UNK        -0.2006 
     42 C          22.9576  -29.2502  -41.1163 C.2       6 UNK         0.4892 
     43 O          22.4145  -28.3174  -41.7108 O.2       6 UNK        -0.5089 
     44 N          22.3271  -30.0558  -40.2592 N.am      7 UNK        -0.4243 
     45 CA         20.8888  -30.0546  -40.0275 C.3       7 UNK         0.0196 
     46 CB         20.5161  -29.0238  -38.9476 C.3       7 UNK        -0.2007 
     47 C          20.4813  -31.4686  -39.6144 C.2       7 UNK         0.5020 
     48 O          21.2380  -32.1218  -38.8906 O.2       7 UNK        -0.5147 
     49 N          19.3072  -31.9133  -40.0829 N.am      8 UNK        -0.4734 
     50 CA         18.6817  -33.2372  -39.9094 C.3       8 UNK         0.0238 
     51 CB         18.3530  -33.5132  -38.4291 C.3       8 UNK        -0.1912 
     52 C          19.4646  -34.4114  -40.5329 C.2       8 UNK         0.5038 
     53 O          18.8774  -35.1968  -41.2771 O.2       8 UNK        -0.5046 
     54 N          20.7648  -34.4932  -40.2316 N.am      9 UNK        -0.4200 
     55 CA         21.7565  -35.4501  -40.7507 C.3       9 UNK         0.0839 
     56 C          21.5581  -36.9217  -40.2777 C.2       9 UNK         0.5513 
     57 N          20.7727  -37.1815  -39.2394 N.am      9 UNK        -0.7519 
     58 O          22.1475  -37.8423  -40.8386 O.2       9 UNK        -0.4960 
     59 C59        21.9832  -35.3395  -42.2872 C.3       10 UNK        -0.0876 
     60 S60        22.2242  -33.6179  -42.8579 S.3       10 UNK        -0.2414 
     61 C61        20.8573  -33.4622  -44.0459 C.3       10 UNK         0.0169 
     62 H62        16.5368  -24.2222  -38.9966 H         1 UNK         0.0903 
     63 H63        15.6191  -23.0330  -39.9225 H         1 UNK         0.0903 
     64 H64        14.7926  -24.4095  -39.1874 H         1 UNK         0.0903 
     65 H65        17.7103  -25.5793  -40.3342 H         1 UNK         0.3096 
     66 H66        16.5034  -26.8917  -42.6172 H         1 UNK         0.1121 
     67 H67        19.2143  -27.6101  -42.7011 H         1 UNK         0.0849 
     68 H68        19.0656  -27.1719  -41.0473 H         1 UNK         0.0849 
     69 H69        16.7957  -30.6384  -43.1432 H         1 UNK         0.0865 
     70 H70        16.9884  -29.0709  -43.8652 H         1 UNK         0.0865 
     71 H71        18.6720  -32.2360  -43.0011 H         1 UNK         0.1346 
     72 H72        22.0754  -31.4946  -45.5041 H         1 UNK         0.1412 
     73 H73        19.1843  -28.4056  -44.8592 H         1 UNK         0.1426 
     74 H74        20.8182  -28.2060  -46.6483 H         1 UNK         0.0716 
     75 H75        22.0222  -29.4383  -46.9369 H         1 UNK         0.0716 
     76 H76        23.7750  -26.0300  -46.1525 H         1 UNK         0.0695 
     77 H77        22.3669  -26.4658  -47.0590 H         1 UNK         0.0695 
     78 H78        22.0774  -24.2824  -45.8962 H         1 UNK         0.0983 
     79 H79        20.1926  -25.9209  -44.4195 H         1 UNK         0.3095 
     80 H80        17.5758  -24.4110  -45.9193 H         1 UNK         0.0454 
     81 H81        17.6894  -25.7452  -48.0231 H         1 UNK         0.0851 
     82 H82        18.0240  -27.2041  -47.1038 H         1 UNK         0.0851 
     83 H83        16.4674  -26.3877  -46.9445 H         1 UNK         0.0851 
     84 H84        17.4198  -26.9627  -44.7226 H         1 UNK         0.2976 
     85 H85        24.0431  -23.9479  -44.6375 H         1 UNK         0.3116 
     86 H86        23.5609  -24.0096  -41.7050 H         1 UNK         0.0646 
     87 H87        25.4385  -22.3904  -41.6525 H         1 UNK         0.0847 
     88 H88        24.1984  -21.8413  -42.7657 H         1 UNK         0.0847 
     89 H89        25.6837  -22.5652  -43.3839 H         1 UNK         0.0847 
     90 H90        25.1585  -25.8619  -44.0900 H         1 UNK         0.3040 
     91 H91        27.5861  -26.5166  -42.7022 H         1 UNK         0.1015 
     92 H92        27.3822  -26.6218  -45.1788 H         1 UNK         0.0786 
     93 H93        26.1641  -27.8924  -45.0497 H         1 UNK         0.0786 
     94 H94        27.8189  -28.1973  -44.5401 H         1 UNK         0.0786 
     95 H95        24.3208  -27.8531  -42.5676 H         1 UNK         0.3172 
     96 H96        24.9433  -29.6067  -40.3923 H         1 UNK         0.0595 
     97 H97        25.6684  -31.0882  -42.3294 H         1 UNK         0.0839 
     98 H98        24.0860  -30.8668  -43.0747 H         1 UNK         0.0839 
     99 H99        24.2357  -31.7192  -41.5443 H         1 UNK         0.0839 
    100 H100       22.8219  -30.8200  -39.8162 H         1 UNK         0.2998 
    101 H101       20.3886  -29.8067  -40.9653 H         1 UNK         0.0822 
    102 H102       20.8003  -28.0152  -39.2482 H         1 UNK         0.0787 
    103 H103       19.4399  -29.0181  -38.7702 H         1 UNK         0.0787 
    104 H104       21.0056  -29.2419  -37.9976 H         1 UNK         0.0787 
    105 H105       18.7809  -31.2726  -40.6640 H         1 UNK         0.3055 
    106 H106       17.7325  -33.1854  -40.4460 H         1 UNK         0.1106 
    107 H107       19.2501  -33.5785  -37.8129 H         1 UNK         0.0828 
    108 H108       17.7190  -32.7304  -38.0130 H         1 UNK         0.0828 
    109 H109       17.8158  -34.4562  -38.3193 H         1 UNK         0.0828 
    110 H110       21.1314  -33.7680  -39.6191 H         1 UNK         0.2931 
    111 H111       22.6915  -35.1437  -40.2805 H         1 UNK         0.0412 
    112 H112       20.6568  -38.1346  -38.9319 H         1 UNK         0.3472 
    113 H113       20.2939  -36.4337  -38.7637 H         1 UNK         0.3472 
    114 H114       21.1533  -35.8033  -42.8224 H         1 UNK         0.0970 
    115 H115       22.8703  -35.9062  -42.5755 H         1 UNK         0.0970 
    116 H116       20.0059  -34.0566  -43.7113 H         1 UNK         0.0612 
    117 H117       21.1665  -33.8826  -45.0038 H         1 UNK         0.0612 
@<TRIPOS>BOND
     1    1    2 1    
     2    1   62 1    
     3    1   63 1    
     4    1   64 1    
     5    2    3 2    
     6    2    4 am   BACKBONE|DICT|INTERRES
     7    4    5 1    
     8    4   65 1    
     9    5    6 1    
    10    5   25 1    
    11    5   66 1    
    12    6    7 1    
    13    6   67 1    
    14    6   68 1    
    15    7    8 1    
    16    8    9 1    
    17    8   69 1    
    18    8   70 1    
    19    9   10 ar   
    20    9   14 ar   
    21   10   11 ar   
    22   10   71 1    
    23   11   12 ar   
    24   11   61 1    
    25   12   13 ar   
    26   12   72 1    
    27   13   14 ar   
    28   13   15 1    
    29   14   73 1    
    30   15   16 1    
    31   15   74 1    
    32   15   75 1    
    33   16   17 1    
    34   17   18 1    
    35   17   76 1    
    36   17   77 1    
    37   18   19 1    
    38   18   27 1    
    39   18   78 1    
    40   19   20 am   BACKBONE|DICT|INTERRES
    41   19   79 1    
    42   20   21 2    
    43   20   22 1    
    44   22   23 1    
    45   22   24 1    
    46   22   80 1    
    47   23   81 1    
    48   23   82 1    
    49   23   83 1    
    50   24   25 am   BACKBONE|DICT|INTERRES
    51   24   84 1    
    52   25   26 2    
    53   27   28 2    
    54   27   29 am   BACKBONE|DICT|INTERRES
    55   29   30 1    
    56   29   85 1    
    57   30   31 1    
    58   30   32 1    
    59   30   86 1    
    60   31   87 1    
    61   31   88 1    
    62   31   89 1    
    63   32   33 2    
    64   32   34 am   BACKBONE|DICT|INTERRES
    65   34   35 1    
    66   34   90 1    
    67   35   36 1    
    68   35   37 1    
    69   35   91 1    
    70   36   92 1    
    71   36   93 1    
    72   36   94 1    
    73   37   38 2    
    74   37   39 am   BACKBONE|DICT|INTERRES
    75   39   40 1    
    76   39   95 1    
    77   40   41 1    
    78   40   42 1    
    79   40   96 1    
    80   41   97 1    
    81   41   98 1    
    82   41   99 1    
    83   42   43 2    
    84   42   44 am   BACKBONE|DICT|INTERRES
    85   44   45 1    
    86   44  100 1    
    87   45   46 1    
    88   45   47 1    
    89   45  101 1    
    90   46  102 1    
    91   46  103 1    
    92   46  104 1    
    93   47   48 2    
    94   47   49 am   BACKBONE|DICT|INTERRES
    95   49   50 1    
    96   49  105 1    
    97   50   51 1    
    98   50   52 1    
    99   50  106 1    
   100   51  107 1    
   101   51  108 1    
   102   51  109 1    
   103   52   53 2    
   104   52   54 am   BACKBONE|DICT|INTERRES
   105   54   55 1    
   106   54  110 1    
   107   55   56 1    
   108   55   59 1    
   109   55  111 1    
   110   56   57 am   BACKBONE|DICT|INTERRES
   111   56   58 2    
   112   57  112 1    
   113   57  113 1    
   114   59   60 1    
   115   59  114 1    
   116   59  115 1    
   117   60   61 1    
   118   61  116 1    
   119   61  117 1    
@<TRIPOS>SUBSTRUCTURE
     1 UNK         1 GROUP             0       ****    0 ROOT    
