@<TRIPOS>MOLECULE
3R8
117   119    1
SMALL
USER_CHARGES


@<TRIPOS>ATOM
      1 CA         14.3741  -23.7017  -46.2084 C.3       0 UNK        -0.2013 
      2 C          15.5081  -24.6699  -45.9092 C.2       0 UNK         0.4866 
      3 O          16.0688  -25.2633  -46.8308 O.2       0 UNK        -0.5176 
      4 N          15.8698  -24.8224  -44.6293 N.am      1 UNK        -0.4884 
      5 CA         16.8985  -25.7423  -44.1179 C.3       1 UNK         0.0853 
      6 C6         16.6394  -26.1027  -42.6306 C.3       10 UNK        -0.0849 
      7 S7         15.0881  -27.0515  -42.4475 S.3       10 UNK        -0.2776 
      8 C8         15.6264  -28.5555  -41.5585 C.3       10 UNK         0.0316 
      9 C9         16.8029  -29.2836  -42.2049 C.ar      10 UNK        -0.0863 
     10 C10        17.8749  -29.7010  -41.4107 C.ar      10 UNK        -0.1009 
     11 C11        18.9644  -30.3691  -41.9755 C.ar      10 UNK        -0.0712 
     12 C12        18.9887  -30.6091  -43.3521 C.ar      10 UNK        -0.0894 
     13 C13        17.9196  -30.2068  -44.1566 C.ar      10 UNK        -0.0745 
     14 C14        16.8253  -29.5560  -43.5768 C.ar      10 UNK        -0.0972 
     15 C15        17.9289  -30.4871  -45.6500 C.3       10 UNK         0.0209 
     16 S16        18.3087  -28.9861  -46.6049 S.3       10 UNK        -0.2568 
     17 C17        20.1026  -29.1382  -46.9519 C.3       10 UNK        -0.0983 
     18 CA         21.0008  -28.0317  -46.3253 C.3       3 UNK         0.0876 
     19 N          20.3317  -26.7322  -46.3261 N.am      3 UNK        -0.4424 
     20 C          20.8983  -25.5243  -46.2338 C.2       2 UNK         0.4918 
     21 O          22.1128  -25.3299  -46.2526 O.2       2 UNK        -0.4875 
     22 CA         19.9322  -24.3331  -46.0728 C.3       2 UNK         0.0481 
     23 CB         19.7750  -23.5823  -47.4041 C.3       2 UNK        -0.1831 
     24 N          18.6045  -24.7324  -45.5864 N.am      2 UNK        -0.4498 
     25 C          18.3381  -25.2326  -44.3712 C.2       1 UNK         0.5027 
     26 O          19.1961  -25.3343  -43.4940 O.2       1 UNK        -0.4969 
     27 C          21.5726  -28.4386  -44.9468 C.2       3 UNK         0.5005 
     28 O          22.3365  -29.4043  -44.8945 O.2       3 UNK        -0.5279 
     29 N          21.2340  -27.7179  -43.8654 N.am      4 UNK        -0.4463 
     30 CA         21.8379  -27.9028  -42.5442 C.3       4 UNK         0.0283 
     31 CB         20.9516  -27.2434  -41.4757 C.3       4 UNK        -0.1875 
     32 C          23.2574  -27.3165  -42.4984 C.2       4 UNK         0.4949 
     33 O          23.4980  -26.2507  -43.0692 O.2       4 UNK        -0.5039 
     34 N          24.1589  -28.0004  -41.7890 N.am      5 UNK        -0.4663 
     35 CA         25.5543  -27.6057  -41.6057 C.3       5 UNK         0.0242 
     36 CB         26.4194  -28.2461  -42.7094 C.3       5 UNK        -0.1982 
     37 C          25.9832  -28.0034  -40.1885 C.2       5 UNK         0.5017 
     38 O          26.8291  -28.8847  -40.0293 O.2       5 UNK        -0.5012 
     39 N          25.3413  -27.3718  -39.1905 N.am      6 UNK        -0.4439 
     40 CA         25.3886  -27.6977  -37.7564 C.3       6 UNK         0.0297 
     41 CB         26.7970  -27.4636  -37.1682 C.3       6 UNK        -0.2006 
     42 C          24.8575  -29.1239  -37.5232 C.2       6 UNK         0.4892 
     43 O          25.6115  -30.0135  -37.1249 O.2       6 UNK        -0.5089 
     44 N          23.5720  -29.3038  -37.8639 N.am      7 UNK        -0.4243 
     45 CA         22.9013  -30.5764  -38.1461 C.3       7 UNK         0.0196 
     46 CB         22.9106  -31.5381  -36.9344 C.3       7 UNK        -0.2007 
     47 C          23.4649  -31.1588  -39.4551 C.2       7 UNK         0.5020 
     48 O          23.4440  -30.4460  -40.4613 O.2       7 UNK        -0.5147 
     49 N          23.9452  -32.4118  -39.4278 N.am      8 UNK        -0.4734 
     50 CA         24.5188  -33.1604  -40.5586 C.3       8 UNK         0.0238 
     51 CB         25.8385  -32.5099  -41.0299 C.3       8 UNK        -0.1912 
     52 C          23.5086  -33.3680  -41.7059 C.2       8 UNK         0.5038 
     53 O          23.8607  -33.2303  -42.8787 O.2       8 UNK        -0.5046 
     54 N          22.2603  -33.6736  -41.3302 N.am      9 UNK        -0.4200 
     55 CA         21.0962  -33.7547  -42.2263 C.3       9 UNK         0.0839 
     56 C          21.0618  -34.9926  -43.1683 C.2       9 UNK         0.5513 
     57 N          21.9169  -35.9919  -42.9883 N.am      9 UNK        -0.7519 
     58 O          20.2420  -35.0442  -44.0811 O.2       9 UNK        -0.4960 
     59 C59        19.7552  -33.6115  -41.4500 C.3       10 UNK        -0.0876 
     60 S60        19.7345  -32.3183  -40.1549 S.3       10 UNK        -0.2414 
     61 C61        20.1205  -30.8091  -41.0931 C.3       10 UNK         0.0169 
     62 H62        13.5600  -24.2232  -46.7111 H         1 UNK         0.0903 
     63 H63        13.9762  -23.2464  -45.3018 H         1 UNK         0.0903 
     64 H64        14.7243  -22.9045  -46.8635 H         1 UNK         0.0903 
     65 H65        15.3825  -24.2933  -43.9197 H         1 UNK         0.3096 
     66 H66        16.8274  -26.6713  -44.6892 H         1 UNK         0.1121 
     67 H67        16.5803  -25.2011  -42.0187 H         1 UNK         0.0849 
     68 H68        17.4626  -26.6881  -42.2181 H         1 UNK         0.0849 
     69 H69        15.8689  -28.2729  -40.5328 H         1 UNK         0.0865 
     70 H70        14.7834  -29.2445  -41.4930 H         1 UNK         0.0865 
     71 H71        17.8655  -29.5101  -40.3461 H         1 UNK         0.1346 
     72 H72        19.8373  -31.1093  -43.7976 H         1 UNK         0.1412 
     73 H73        15.9958  -29.2479  -44.1989 H         1 UNK         0.1426 
     74 H74        16.9432  -30.8464  -45.9495 H         1 UNK         0.0716 
     75 H75        18.6259  -31.2890  -45.8970 H         1 UNK         0.0716 
     76 H76        20.4568  -30.1378  -46.6940 H         1 UNK         0.0695 
     77 H77        20.2014  -29.0826  -48.0370 H         1 UNK         0.0695 
     78 H78        21.8785  -27.9326  -46.9683 H         1 UNK         0.0983 
     79 H79        19.3230  -26.7832  -46.3393 H         1 UNK         0.3095 
     80 H80        20.3695  -23.6503  -45.3416 H         1 UNK         0.0454 
     81 H81        20.7428  -23.2490  -47.7814 H         1 UNK         0.0851 
     82 H82        19.3246  -24.2121  -48.1725 H         1 UNK         0.0851 
     83 H83        19.1515  -22.6956  -47.2886 H         1 UNK         0.0851 
     84 H84        17.8390  -24.7202  -46.2553 H         1 UNK         0.2976 
     85 H85        20.6306  -26.9120  -43.9738 H         1 UNK         0.3116 
     86 H86        21.8956  -28.9717  -42.3394 H         1 UNK         0.0646 
     87 H87        21.3167  -27.4700  -40.4735 H         1 UNK         0.0847 
     88 H88        19.9225  -27.5962  -41.5359 H         1 UNK         0.0847 
     89 H89        20.9358  -26.1578  -41.5795 H         1 UNK         0.0847 
     90 H90        23.8821  -28.8707  -41.3315 H         1 UNK         0.3040 
     91 H91        25.6539  -26.5200  -41.6772 H         1 UNK         0.1015 
     92 H92        26.1173  -27.9010  -43.6984 H         1 UNK         0.0786 
     93 H93        26.3448  -29.3342  -42.6986 H         1 UNK         0.0786 
     94 H94        27.4712  -27.9867  -42.5822 H         1 UNK         0.0786 
     95 H95        24.6634  -26.6690  -39.4528 H         1 UNK         0.3172 
     96 H96        24.7046  -27.0136  -37.2514 H         1 UNK         0.0595 
     97 H97        26.7979  -27.6313  -36.0906 H         1 UNK         0.0839 
     98 H98        27.1326  -26.4407  -37.3380 H         1 UNK         0.0839 
     99 H99        27.5406  -28.1354  -37.5980 H         1 UNK         0.0839 
    100 H100       23.0678  -28.4885  -38.1819 H         1 UNK         0.2998 
    101 H101       21.8586  -30.3308  -38.3527 H         1 UNK         0.0822 
    102 H102       22.5134  -31.0471  -36.0460 H         1 UNK         0.0787 
    103 H103       22.2807  -32.4084  -37.1233 H         1 UNK         0.0787 
    104 H104       23.9091  -31.9005  -36.6894 H         1 UNK         0.0787 
    105 H105       23.9219  -32.9008  -38.5433 H         1 UNK         0.3055 
    106 H106       24.7602  -34.1569  -40.1850 H         1 UNK         0.1106 
    107 H107       25.6709  -31.5307  -41.4798 H         1 UNK         0.0828 
    108 H108       26.5350  -32.3791  -40.2018 H         1 UNK         0.0828 
    109 H109       26.3355  -33.1291  -41.7775 H         1 UNK         0.0828 
    110 H110       22.0610  -33.7610  -40.3451 H         1 UNK         0.2931 
    111 H111       21.1706  -32.8992  -42.8988 H         1 UNK         0.0412 
    112 H112       22.5963  -35.9551  -42.2455 H         1 UNK         0.3472 
    113 H113       21.8864  -36.7873  -43.6070 H         1 UNK         0.3472 
    114 H114       18.9369  -33.4132  -42.1450 H         1 UNK         0.0970 
    115 H115       19.5053  -34.5542  -40.9597 H         1 UNK         0.0970 
    116 H116       21.0238  -30.9647  -41.6815 H         1 UNK         0.0612 
    117 H117       20.3561  -30.0130  -40.3862 H         1 UNK         0.0612 
@<TRIPOS>BOND
     1    1    2 1    
     2    1   62 1    
     3    1   63 1    
     4    1   64 1    
     5    2    3 2    
     6    2    4 am   BACKBONE|DICT|INTERRES
     7    4    5 1    
     8    4   65 1    
     9    5    6 1    
    10    5   25 1    
    11    5   66 1    
    12    6    7 1    
    13    6   67 1    
    14    6   68 1    
    15    7    8 1    
    16    8    9 1    
    17    8   69 1    
    18    8   70 1    
    19    9   10 ar   
    20    9   14 ar   
    21   10   11 ar   
    22   10   71 1    
    23   11   12 ar   
    24   11   61 1    
    25   12   13 ar   
    26   12   72 1    
    27   13   14 ar   
    28   13   15 1    
    29   14   73 1    
    30   15   16 1    
    31   15   74 1    
    32   15   75 1    
    33   16   17 1    
    34   17   18 1    
    35   17   76 1    
    36   17   77 1    
    37   18   19 1    
    38   18   27 1    
    39   18   78 1    
    40   19   20 am   BACKBONE|DICT|INTERRES
    41   19   79 1    
    42   20   21 2    
    43   20   22 1    
    44   22   23 1    
    45   22   24 1    
    46   22   80 1    
    47   23   81 1    
    48   23   82 1    
    49   23   83 1    
    50   24   25 am   BACKBONE|DICT|INTERRES
    51   24   84 1    
    52   25   26 2    
    53   27   28 2    
    54   27   29 am   BACKBONE|DICT|INTERRES
    55   29   30 1    
    56   29   85 1    
    57   30   31 1    
    58   30   32 1    
    59   30   86 1    
    60   31   87 1    
    61   31   88 1    
    62   31   89 1    
    63   32   33 2    
    64   32   34 am   BACKBONE|DICT|INTERRES
    65   34   35 1    
    66   34   90 1    
    67   35   36 1    
    68   35   37 1    
    69   35   91 1    
    70   36   92 1    
    71   36   93 1    
    72   36   94 1    
    73   37   38 2    
    74   37   39 am   BACKBONE|DICT|INTERRES
    75   39   40 1    
    76   39   95 1    
    77   40   41 1    
    78   40   42 1    
    79   40   96 1    
    80   41   97 1    
    81   41   98 1    
    82   41   99 1    
    83   42   43 2    
    84   42   44 am   BACKBONE|DICT|INTERRES
    85   44   45 1    
    86   44  100 1    
    87   45   46 1    
    88   45   47 1    
    89   45  101 1    
    90   46  102 1    
    91   46  103 1    
    92   46  104 1    
    93   47   48 2    
    94   47   49 am   BACKBONE|DICT|INTERRES
    95   49   50 1    
    96   49  105 1    
    97   50   51 1    
    98   50   52 1    
    99   50  106 1    
   100   51  107 1    
   101   51  108 1    
   102   51  109 1    
   103   52   53 2    
   104   52   54 am   BACKBONE|DICT|INTERRES
   105   54   55 1    
   106   54  110 1    
   107   55   56 1    
   108   55   59 1    
   109   55  111 1    
   110   56   57 am   BACKBONE|DICT|INTERRES
   111   56   58 2    
   112   57  112 1    
   113   57  113 1    
   114   59   60 1    
   115   59  114 1    
   116   59  115 1    
   117   60   61 1    
   118   61  116 1    
   119   61  117 1    
@<TRIPOS>SUBSTRUCTURE
     1 UNK         1 GROUP             0       ****    0 ROOT    
