@<TRIPOS>MOLECULE
3R8
117   119    1
SMALL
USER_CHARGES


@<TRIPOS>ATOM
      1 CA         16.8273  -23.3764  -41.2689 C.3       0 UNK        -0.2013 
      2 C          17.4546  -24.5224  -42.0478 C.2       0 UNK         0.4866 
      3 O          18.5826  -24.9154  -41.7487 O.2       0 UNK        -0.5176 
      4 N          16.7362  -25.0485  -43.0506 N.am      1 UNK        -0.4884 
      5 CA         17.0918  -26.1669  -43.9415 C.3       1 UNK         0.0853 
      6 C6         17.3527  -27.5047  -43.2034 C.3       10 UNK        -0.0849 
      7 S7         15.8328  -28.1903  -42.4525 S.3       10 UNK        -0.2776 
      8 C8         15.1207  -29.1981  -43.8048 C.3       10 UNK         0.0316 
      9 C9         16.1514  -30.1121  -44.4529 C.ar      10 UNK        -0.0863 
     10 C10        16.8178  -31.0705  -43.6857 C.ar      10 UNK        -0.1009 
     11 C11        17.8719  -31.8077  -44.2307 C.ar      10 UNK        -0.0712 
     12 C12        18.2093  -31.6342  -45.5762 C.ar      10 UNK        -0.0894 
     13 C13        17.5324  -30.6950  -46.3618 C.ar      10 UNK        -0.0745 
     14 C14        16.5018  -29.9394  -45.7957 C.ar      10 UNK        -0.0972 
     15 C15        17.9378  -30.4647  -47.8114 C.3       10 UNK         0.0209 
     16 S16        18.9276  -28.9458  -48.0098 S.3       10 UNK        -0.2568 
     17 C17        20.4589  -29.4117  -47.1406 C.3       10 UNK        -0.0983 
     18 CA         21.4342  -28.2286  -46.9214 C.3       3 UNK         0.0876 
     19 N          20.8157  -27.1217  -46.1741 N.am      3 UNK        -0.4424 
     20 C          21.4025  -25.9570  -45.8597 C.2       2 UNK         0.4918 
     21 O          22.5687  -25.6885  -46.1485 O.2       2 UNK        -0.4875 
     22 CA         20.5901  -24.8981  -45.0829 C.3       2 UNK         0.0481 
     23 CB         20.2770  -23.6847  -45.9804 C.3       2 UNK        -0.1831 
     24 N          19.3758  -25.3660  -44.3978 N.am      2 UNK        -0.4498 
     25 C          18.2379  -25.8399  -44.9209 C.2       1 UNK         0.5027 
     26 O          18.0710  -26.0328  -46.1240 O.2       1 UNK        -0.4969 
     27 C          22.7208  -28.7533  -46.2519 C.2       3 UNK         0.5005 
     28 O          23.7444  -28.9089  -46.9203 O.2       3 UNK        -0.5279 
     29 N          22.6312  -29.0070  -44.9417 N.am      4 UNK        -0.4463 
     30 CA         23.7055  -29.4960  -44.0823 C.3       4 UNK         0.0283 
     31 CB         23.9898  -30.9883  -44.3531 C.3       4 UNK        -0.1875 
     32 C          23.3071  -29.2219  -42.6284 C.2       4 UNK         0.4949 
     33 O          23.2798  -30.1372  -41.8072 O.2       4 UNK        -0.5039 
     34 N          22.9465  -27.9644  -42.3362 N.am      5 UNK        -0.4663 
     35 CA         22.4154  -27.5310  -41.0379 C.3       5 UNK         0.0242 
     36 CB         22.0373  -26.0436  -41.1082 C.3       5 UNK        -0.1982 
     37 C          23.3608  -27.8039  -39.8548 C.2       5 UNK         0.5017 
     38 O          22.9009  -28.2330  -38.7962 O.2       5 UNK        -0.5012 
     39 N          24.6628  -27.5873  -40.0796 N.am      6 UNK        -0.4439 
     40 CA         25.7269  -27.7770  -39.0932 C.3       6 UNK         0.0297 
     41 CB         26.9713  -26.9966  -39.5490 C.3       6 UNK        -0.2006 
     42 C          26.0920  -29.2488  -38.8236 C.2       6 UNK         0.4892 
     43 O          26.7180  -29.5164  -37.7970 O.2       6 UNK        -0.5089 
     44 N          25.7288  -30.1706  -39.7267 N.am      7 UNK        -0.4243 
     45 CA         26.0653  -31.5912  -39.6276 C.3       7 UNK         0.0196 
     46 CB         27.5045  -31.8194  -40.1376 C.3       7 UNK        -0.2007 
     47 C          25.0266  -32.4334  -40.3903 C.2       7 UNK         0.5020 
     48 O          25.3399  -32.9354  -41.4686 O.2       7 UNK        -0.5147 
     49 N          23.7957  -32.5928  -39.8867 N.am      8 UNK        -0.4734 
     50 CA         23.2432  -32.0653  -38.6361 C.3       8 UNK         0.0238 
     51 CB         23.5529  -33.0325  -37.4735 C.3       8 UNK        -0.1912 
     52 C          21.7376  -31.8085  -38.8108 C.2       8 UNK         0.5038 
     53 O          20.9486  -32.1831  -37.9411 O.2       8 UNK        -0.5046 
     54 N          21.3577  -31.2089  -39.9472 N.am      9 UNK        -0.4200 
     55 CA         19.9590  -30.9121  -40.3006 C.3       9 UNK         0.0839 
     56 C          19.2813  -29.8049  -39.4400 C.2       9 UNK         0.5513 
     57 N          20.0118  -28.9914  -38.6864 N.am      9 UNK        -0.7519 
     58 O          18.0591  -29.6918  -39.4493 O.2       9 UNK        -0.4960 
     59 C59        19.7906  -30.6175  -41.8134 C.3       10 UNK        -0.0876 
     60 S60        20.2853  -32.0202  -42.8763 S.3       10 UNK        -0.2414 
     61 C61        18.6803  -32.7488  -43.3494 C.3       10 UNK         0.0169 
     62 H62        17.4502  -22.4857  -41.3464 H         1 UNK         0.0903 
     63 H63        15.8318  -23.1279  -41.6362 H         1 UNK         0.0903 
     64 H64        16.7432  -23.6428  -40.2157 H         1 UNK         0.0903 
     65 H65        15.8280  -24.6469  -43.2408 H         1 UNK         0.3096 
     66 H66        16.2159  -26.3163  -44.5758 H         1 UNK         0.1121 
     67 H67        18.0885  -27.3751  -42.4089 H         1 UNK         0.0849 
     68 H68        17.7999  -28.2405  -43.8717 H         1 UNK         0.0849 
     69 H69        14.3038  -29.8020  -43.4074 H         1 UNK         0.0865 
     70 H70        14.6758  -28.5303  -44.5440 H         1 UNK         0.0865 
     71 H71        16.5604  -31.1887  -42.6417 H         1 UNK         0.1346 
     72 H72        19.0278  -32.2015  -45.9982 H         1 UNK         0.1412 
     73 H73        16.0033  -29.1887  -46.3942 H         1 UNK         0.1426 
     74 H74        17.0421  -30.3850  -48.4291 H         1 UNK         0.0716 
     75 H75        18.4997  -31.3167  -48.1972 H         1 UNK         0.0716 
     76 H76        20.9395  -30.2036  -47.7190 H         1 UNK         0.0695 
     77 H77        20.1923  -29.8515  -46.1789 H         1 UNK         0.0695 
     78 H78        21.7176  -27.8334  -47.8993 H         1 UNK         0.0983 
     79 H79        19.8211  -27.2021  -46.0044 H         1 UNK         0.3095 
     80 H80        21.2465  -24.5486  -44.2846 H         1 UNK         0.0454 
     81 H81        21.1918  -23.2566  -46.3923 H         1 UNK         0.0851 
     82 H82        19.7762  -22.8952  -45.4202 H         1 UNK         0.0851 
     83 H83        19.6403  -23.9546  -46.8234 H         1 UNK         0.0851 
     84 H84        19.3679  -25.2411  -43.3864 H         1 UNK         0.2976 
     85 H85        21.7466  -28.8413  -44.4814 H         1 UNK         0.3116 
     86 H86        24.6125  -28.9227  -44.2845 H         1 UNK         0.0646 
     87 H87        23.1085  -31.6043  -44.1711 H         1 UNK         0.0847 
     88 H88        24.3115  -31.1583  -45.3802 H         1 UNK         0.0847 
     89 H89        24.7841  -31.3578  -43.7035 H         1 UNK         0.0847 
     90 H90        23.0153  -27.2621  -43.0595 H         1 UNK         0.3040 
     91 H91        21.5015  -28.0957  -40.8544 H         1 UNK         0.1015 
     92 H92        21.2829  -25.8621  -41.8738 H         1 UNK         0.0786 
     93 H93        21.6170  -25.7032  -40.1606 H         1 UNK         0.0786 
     94 H94        22.8998  -25.4136  -41.3287 H         1 UNK         0.0786 
     95 H95        24.9377  -27.2532  -40.9922 H         1 UNK         0.3172 
     96 H96        25.3898  -27.3502  -38.1459 H         1 UNK         0.0595 
     97 H97        27.3572  -27.3690  -40.4989 H         1 UNK         0.0839 
     98 H98        27.7757  -27.0813  -38.8167 H         1 UNK         0.0839 
     99 H99        26.7551  -25.9344  -39.6654 H         1 UNK         0.0839 
    100 H100       25.1516  -29.9044  -40.5156 H         1 UNK         0.2998 
    101 H101       26.0369  -31.9016  -38.5827 H         1 UNK         0.0822 
    102 H102       27.7659  -32.8780  -40.1090 H         1 UNK         0.0787 
    103 H103       27.6261  -31.4785  -41.1665 H         1 UNK         0.0787 
    104 H104       28.2338  -31.2917  -39.5230 H         1 UNK         0.0787 
    105 H105       23.1329  -33.1116  -40.4466 H         1 UNK         0.3055 
    106 H106       23.6747  -31.0921  -38.4023 H         1 UNK         0.1106 
    107 H107       24.6217  -33.1972  -37.3463 H         1 UNK         0.0828 
    108 H108       23.1775  -32.6388  -36.5279 H         1 UNK         0.0828 
    109 H109       23.0856  -34.0055  -37.6293 H         1 UNK         0.0828 
    110 H110       22.0657  -30.9257  -40.6212 H         1 UNK         0.2931 
    111 H111       19.3893  -31.8209  -40.0953 H         1 UNK         0.0412 
    112 H112       19.5434  -28.2932  -38.1315 H         1 UNK         0.3472 
    113 H113       21.0227  -29.0474  -38.6682 H         1 UNK         0.3472 
    114 H114       20.3857  -29.7517  -42.1010 H         1 UNK         0.0970 
    115 H115       18.7606  -30.3405  -42.0328 H         1 UNK         0.0970 
    116 H116       18.1249  -33.0123  -42.4479 H         1 UNK         0.0612 
    117 H117       18.8602  -33.6823  -43.8844 H         1 UNK         0.0612 
@<TRIPOS>BOND
     1    1    2 1    
     2    1   62 1    
     3    1   63 1    
     4    1   64 1    
     5    2    3 2    
     6    2    4 am   BACKBONE|DICT|INTERRES
     7    4    5 1    
     8    4   65 1    
     9    5    6 1    
    10    5   25 1    
    11    5   66 1    
    12    6    7 1    
    13    6   67 1    
    14    6   68 1    
    15    7    8 1    
    16    8    9 1    
    17    8   69 1    
    18    8   70 1    
    19    9   10 ar   
    20    9   14 ar   
    21   10   11 ar   
    22   10   71 1    
    23   11   12 ar   
    24   11   61 1    
    25   12   13 ar   
    26   12   72 1    
    27   13   14 ar   
    28   13   15 1    
    29   14   73 1    
    30   15   16 1    
    31   15   74 1    
    32   15   75 1    
    33   16   17 1    
    34   17   18 1    
    35   17   76 1    
    36   17   77 1    
    37   18   19 1    
    38   18   27 1    
    39   18   78 1    
    40   19   20 am   BACKBONE|DICT|INTERRES
    41   19   79 1    
    42   20   21 2    
    43   20   22 1    
    44   22   23 1    
    45   22   24 1    
    46   22   80 1    
    47   23   81 1    
    48   23   82 1    
    49   23   83 1    
    50   24   25 am   BACKBONE|DICT|INTERRES
    51   24   84 1    
    52   25   26 2    
    53   27   28 2    
    54   27   29 am   BACKBONE|DICT|INTERRES
    55   29   30 1    
    56   29   85 1    
    57   30   31 1    
    58   30   32 1    
    59   30   86 1    
    60   31   87 1    
    61   31   88 1    
    62   31   89 1    
    63   32   33 2    
    64   32   34 am   BACKBONE|DICT|INTERRES
    65   34   35 1    
    66   34   90 1    
    67   35   36 1    
    68   35   37 1    
    69   35   91 1    
    70   36   92 1    
    71   36   93 1    
    72   36   94 1    
    73   37   38 2    
    74   37   39 am   BACKBONE|DICT|INTERRES
    75   39   40 1    
    76   39   95 1    
    77   40   41 1    
    78   40   42 1    
    79   40   96 1    
    80   41   97 1    
    81   41   98 1    
    82   41   99 1    
    83   42   43 2    
    84   42   44 am   BACKBONE|DICT|INTERRES
    85   44   45 1    
    86   44  100 1    
    87   45   46 1    
    88   45   47 1    
    89   45  101 1    
    90   46  102 1    
    91   46  103 1    
    92   46  104 1    
    93   47   48 2    
    94   47   49 am   BACKBONE|DICT|INTERRES
    95   49   50 1    
    96   49  105 1    
    97   50   51 1    
    98   50   52 1    
    99   50  106 1    
   100   51  107 1    
   101   51  108 1    
   102   51  109 1    
   103   52   53 2    
   104   52   54 am   BACKBONE|DICT|INTERRES
   105   54   55 1    
   106   54  110 1    
   107   55   56 1    
   108   55   59 1    
   109   55  111 1    
   110   56   57 am   BACKBONE|DICT|INTERRES
   111   56   58 2    
   112   57  112 1    
   113   57  113 1    
   114   59   60 1    
   115   59  114 1    
   116   59  115 1    
   117   60   61 1    
   118   61  116 1    
   119   61  117 1    
@<TRIPOS>SUBSTRUCTURE
     1 UNK         1 GROUP             0       ****    0 ROOT    
