@<TRIPOS>MOLECULE
3R8
117   119    1
SMALL
USER_CHARGES


@<TRIPOS>ATOM
      1 CA         22.3810  -22.4408  -46.0909 C.3       0 UNK        -0.2013 
      2 C          22.0188  -23.4123  -44.9779 C.2       0 UNK         0.4866 
      3 O          21.9441  -23.0120  -43.8163 O.2       0 UNK        -0.5176 
      4 N          21.7980  -24.6872  -45.3232 N.am      1 UNK        -0.4884 
      5 CA         21.4013  -25.7524  -44.3951 C.3       1 UNK         0.0853 
      6 C6         21.5896  -27.1654  -45.0091 C.3       10 UNK        -0.0849 
      7 S7         20.8166  -27.3693  -46.6551 S.3       10 UNK        -0.2776 
      8 C8         21.0785  -29.1437  -46.9715 C.3       10 UNK         0.0316 
      9 C9         20.1101  -30.0022  -46.1727 C.ar      10 UNK        -0.0863 
     10 C10        20.5406  -30.6812  -45.0306 C.ar      10 UNK        -0.1009 
     11 C11        19.6417  -31.4412  -44.2759 C.ar      10 UNK        -0.0712 
     12 C12        18.3081  -31.5414  -44.6824 C.ar      10 UNK        -0.0894 
     13 C13        17.8626  -30.8457  -45.8112 C.ar      10 UNK        -0.0745 
     14 C14        18.7721  -30.0966  -46.5640 C.ar      10 UNK        -0.0972 
     15 C15        16.3866  -30.8345  -46.1771 C.3       10 UNK         0.0209 
     16 S16        15.6391  -29.2036  -45.8424 S.3       10 UNK        -0.2568 
     17 C17        15.6748  -29.1212  -44.0163 C.3       10 UNK        -0.0983 
     18 CA         16.9950  -28.5399  -43.4306 C.3       3 UNK         0.0876 
     19 N          17.3986  -27.2615  -44.0187 N.am      3 UNK        -0.4424 
     20 C          16.8481  -26.0568  -43.8244 C.2       2 UNK         0.4918 
     21 O          15.8058  -25.8712  -43.1947 O.2       2 UNK        -0.4875 
     22 CA         17.6178  -24.8496  -44.4131 C.3       2 UNK         0.0481 
     23 CB         17.4844  -23.5977  -43.5215 C.3       2 UNK        -0.1831 
     24 N          19.0406  -25.1086  -44.7027 N.am      2 UNK        -0.4498 
     25 C          19.9737  -25.5569  -43.8450 C.2       1 UNK         0.5027 
     26 O          19.7338  -25.8380  -42.6709 O.2       1 UNK        -0.4969 
     27 C          17.0264  -28.5390  -41.8834 C.2       3 UNK         0.5005 
     28 O          16.1667  -29.1639  -41.2572 O.2       3 UNK        -0.5279 
     29 N          18.0098  -27.8477  -41.2862 N.am      4 UNK        -0.4463 
     30 CA         18.1854  -27.7641  -39.8332 C.3       4 UNK         0.0283 
     31 CB         17.3096  -26.6340  -39.2620 C.3       4 UNK        -0.1875 
     32 C          19.6508  -27.5795  -39.4126 C.2       4 UNK         0.4949 
     33 O          20.0585  -28.1575  -38.4045 O.2       4 UNK        -0.5039 
     34 N          20.4078  -26.7676  -40.1582 N.am      5 UNK        -0.4663 
     35 CA         21.8134  -26.4556  -39.9059 C.3       5 UNK         0.0242 
     36 CB         22.0208  -24.9496  -40.1532 C.3       5 UNK        -0.1982 
     37 C          22.7345  -27.2873  -40.8132 C.2       5 UNK         0.5017 
     38 O          22.2634  -27.9214  -41.7590 O.2       5 UNK        -0.5012 
     39 N          24.0399  -27.2130  -40.5161 N.am      6 UNK        -0.4439 
     40 CA         25.1697  -27.9201  -41.1340 C.3       6 UNK         0.0297 
     41 CB         25.1512  -27.8363  -42.6764 C.3       6 UNK        -0.2006 
     42 C          25.2984  -29.3728  -40.6452 C.2       6 UNK         0.4892 
     43 O          24.3261  -29.9810  -40.1913 O.2       6 UNK        -0.5089 
     44 N          26.5241  -29.9046  -40.7577 N.am      7 UNK        -0.4243 
     45 CA         26.9191  -31.2439  -40.3029 C.3       7 UNK         0.0196 
     46 CB         28.4412  -31.3988  -40.4536 C.3       7 UNK        -0.2007 
     47 C          26.1909  -32.3992  -41.0116 C.2       7 UNK         0.5020 
     48 O          26.1019  -33.4890  -40.4459 O.2       7 UNK        -0.5147 
     49 N          25.6562  -32.1397  -42.2135 N.am      8 UNK        -0.4734 
     50 CA         24.8422  -33.0696  -43.0022 C.3       8 UNK         0.0238 
     51 CB         24.4756  -32.4062  -44.3403 C.3       8 UNK        -0.1912 
     52 C          23.5692  -33.5513  -42.2822 C.2       8 UNK         0.5038 
     53 O          23.1237  -34.6690  -42.5445 O.2       8 UNK        -0.5046 
     54 N          23.0157  -32.7130  -41.3950 N.am      9 UNK        -0.4200 
     55 CA         21.8597  -33.0422  -40.5478 C.3       9 UNK         0.0839 
     56 C          22.2398  -33.8034  -39.2428 C.2       9 UNK         0.5513 
     57 N          23.5084  -34.0848  -38.9653 N.am      9 UNK        -0.7519 
     58 O          21.3581  -34.1625  -38.4666 O.2       9 UNK        -0.4960 
     59 C59        20.9969  -31.7869  -40.2420 C.3       10 UNK        -0.0876 
     60 S60        20.3310  -30.8686  -41.6797 S.3       10 UNK        -0.2414 
     61 C61        20.1119  -32.1100  -42.9969 C.3       10 UNK         0.0169 
     62 H62        23.3568  -21.9961  -45.8977 H         1 UNK         0.0903 
     63 H63        22.4181  -22.9300  -47.0641 H         1 UNK         0.0903 
     64 H64        21.6451  -21.6387  -46.1424 H         1 UNK         0.0903 
     65 H65        21.8755  -24.9679  -46.2916 H         1 UNK         0.3096 
     66 H66        22.0660  -25.6895  -43.5302 H         1 UNK         0.1121 
     67 H67        22.6561  -27.3712  -45.1122 H         1 UNK         0.0849 
     68 H68        21.2106  -27.9322  -44.3298 H         1 UNK         0.0849 
     69 H69        22.1136  -29.4092  -46.7500 H         1 UNK         0.0865 
     70 H70        20.9364  -29.3373  -48.0357 H         1 UNK         0.0865 
     71 H71        21.5685  -30.5942  -44.7058 H         1 UNK         0.1346 
     72 H72        17.6062  -32.1098  -44.0874 H         1 UNK         0.1412 
     73 H73        18.4270  -29.5486  -47.4306 H         1 UNK         0.1426 
     74 H74        15.8386  -31.6072  -45.6355 H         1 UNK         0.0716 
     75 H75        16.2769  -31.0644  -47.2378 H         1 UNK         0.0716 
     76 H76        15.4912  -30.1239  -43.6263 H         1 UNK         0.0695 
     77 H77        14.8270  -28.5133  -43.6960 H         1 UNK         0.0695 
     78 H78        17.8050  -29.2129  -43.6924 H         1 UNK         0.0983 
     79 H79        18.2368  -27.2959  -44.5802 H         1 UNK         0.3095 
     80 H80        17.1473  -24.6287  -45.3720 H         1 UNK         0.0454 
     81 H81        18.0156  -22.7473  -43.9486 H         1 UNK         0.0851 
     82 H82        17.8814  -23.7720  -42.5208 H         1 UNK         0.0851 
     83 H83        16.4406  -23.3019  -43.4102 H         1 UNK         0.0851 
     84 H84        19.3344  -24.9357  -45.6545 H         1 UNK         0.2976 
     85 H85        18.6814  -27.3479  -41.8601 H         1 UNK         0.3116 
     86 H86        17.8603  -28.7068  -39.3872 H         1 UNK         0.0646 
     87 H87        17.4417  -26.5427  -38.1830 H         1 UNK         0.0847 
     88 H88        16.2512  -26.8210  -39.4432 H         1 UNK         0.0847 
     89 H89        17.5596  -25.6699  -39.7065 H         1 UNK         0.0847 
     90 H90        20.0352  -26.3729  -41.0192 H         1 UNK         0.3040 
     91 H91        22.0654  -26.6792  -38.8667 H         1 UNK         0.1015 
     92 H92        21.3598  -24.3523  -39.5248 H         1 UNK         0.0786 
     93 H93        21.8252  -24.6782  -41.1915 H         1 UNK         0.0786 
     94 H94        23.0420  -24.6431  -39.9244 H         1 UNK         0.0786 
     95 H95        24.2916  -26.6619  -39.7073 H         1 UNK         0.3172 
     96 H96        26.0571  -27.3872  -40.7885 H         1 UNK         0.0595 
     97 H97        24.3760  -28.4677  -43.1121 H         1 UNK         0.0839 
     98 H98        26.1019  -28.1647  -43.0977 H         1 UNK         0.0839 
     99 H99        24.9835  -26.8151  -43.0185 H         1 UNK         0.0839 
    100 H100       27.2602  -29.3334  -41.1482 H         1 UNK         0.2998 
    101 H101       26.6709  -31.3152  -39.2416 H         1 UNK         0.0822 
    102 H102       28.7551  -31.3098  -41.4945 H         1 UNK         0.0787 
    103 H103       28.9773  -30.6471  -39.8739 H         1 UNK         0.0787 
    104 H104       28.7718  -32.3754  -40.0963 H         1 UNK         0.0787 
    105 H105       25.7859  -31.2139  -42.5941 H         1 UNK         0.3055 
    106 H106       25.4518  -33.9528  -43.2058 H         1 UNK         0.1106 
    107 H107       23.8743  -33.0759  -44.9572 H         1 UNK         0.0828 
    108 H108       23.8972  -31.4933  -44.1927 H         1 UNK         0.0828 
    109 H109       25.3658  -32.1519  -44.9159 H         1 UNK         0.0828 
    110 H110       23.4561  -31.8186  -41.2163 H         1 UNK         0.2931 
    111 H111       21.2241  -33.7417  -41.0926 H         1 UNK         0.0412 
    112 H112       24.2577  -33.8213  -39.5944 H         1 UNK         0.3472 
    113 H113       23.7236  -34.5840  -38.1168 H         1 UNK         0.3472 
    114 H114       20.1398  -32.0632  -39.6251 H         1 UNK         0.0970 
    115 H115       21.5738  -31.0783  -39.6440 H         1 UNK         0.0970 
    116 H116       19.4012  -32.8691  -42.6669 H         1 UNK         0.0612 
    117 H117       21.0474  -32.6221  -43.2097 H         1 UNK         0.0612 
@<TRIPOS>BOND
     1    1    2 1    
     2    1   62 1    
     3    1   63 1    
     4    1   64 1    
     5    2    3 2    
     6    2    4 am   BACKBONE|DICT|INTERRES
     7    4    5 1    
     8    4   65 1    
     9    5    6 1    
    10    5   25 1    
    11    5   66 1    
    12    6    7 1    
    13    6   67 1    
    14    6   68 1    
    15    7    8 1    
    16    8    9 1    
    17    8   69 1    
    18    8   70 1    
    19    9   10 ar   
    20    9   14 ar   
    21   10   11 ar   
    22   10   71 1    
    23   11   12 ar   
    24   11   61 1    
    25   12   13 ar   
    26   12   72 1    
    27   13   14 ar   
    28   13   15 1    
    29   14   73 1    
    30   15   16 1    
    31   15   74 1    
    32   15   75 1    
    33   16   17 1    
    34   17   18 1    
    35   17   76 1    
    36   17   77 1    
    37   18   19 1    
    38   18   27 1    
    39   18   78 1    
    40   19   20 am   BACKBONE|DICT|INTERRES
    41   19   79 1    
    42   20   21 2    
    43   20   22 1    
    44   22   23 1    
    45   22   24 1    
    46   22   80 1    
    47   23   81 1    
    48   23   82 1    
    49   23   83 1    
    50   24   25 am   BACKBONE|DICT|INTERRES
    51   24   84 1    
    52   25   26 2    
    53   27   28 2    
    54   27   29 am   BACKBONE|DICT|INTERRES
    55   29   30 1    
    56   29   85 1    
    57   30   31 1    
    58   30   32 1    
    59   30   86 1    
    60   31   87 1    
    61   31   88 1    
    62   31   89 1    
    63   32   33 2    
    64   32   34 am   BACKBONE|DICT|INTERRES
    65   34   35 1    
    66   34   90 1    
    67   35   36 1    
    68   35   37 1    
    69   35   91 1    
    70   36   92 1    
    71   36   93 1    
    72   36   94 1    
    73   37   38 2    
    74   37   39 am   BACKBONE|DICT|INTERRES
    75   39   40 1    
    76   39   95 1    
    77   40   41 1    
    78   40   42 1    
    79   40   96 1    
    80   41   97 1    
    81   41   98 1    
    82   41   99 1    
    83   42   43 2    
    84   42   44 am   BACKBONE|DICT|INTERRES
    85   44   45 1    
    86   44  100 1    
    87   45   46 1    
    88   45   47 1    
    89   45  101 1    
    90   46  102 1    
    91   46  103 1    
    92   46  104 1    
    93   47   48 2    
    94   47   49 am   BACKBONE|DICT|INTERRES
    95   49   50 1    
    96   49  105 1    
    97   50   51 1    
    98   50   52 1    
    99   50  106 1    
   100   51  107 1    
   101   51  108 1    
   102   51  109 1    
   103   52   53 2    
   104   52   54 am   BACKBONE|DICT|INTERRES
   105   54   55 1    
   106   54  110 1    
   107   55   56 1    
   108   55   59 1    
   109   55  111 1    
   110   56   57 am   BACKBONE|DICT|INTERRES
   111   56   58 2    
   112   57  112 1    
   113   57  113 1    
   114   59   60 1    
   115   59  114 1    
   116   59  115 1    
   117   60   61 1    
   118   61  116 1    
   119   61  117 1    
@<TRIPOS>SUBSTRUCTURE
     1 UNK         1 GROUP             0       ****    0 ROOT    
