@<TRIPOS>MOLECULE
3R8
117   119    1
SMALL
USER_CHARGES


@<TRIPOS>ATOM
      1 CA         16.4235  -22.1190  -41.9596 C.3       0 UNK        -0.2013 
      2 C          17.0994  -22.7347  -43.1755 C.2       0 UNK         0.4866 
      3 O          17.7592  -22.0249  -43.9355 O.2       0 UNK        -0.5176 
      4 N          16.9321  -24.0480  -43.3708 N.am      1 UNK        -0.4884 
      5 CA         17.5685  -24.8359  -44.4301 C.3       1 UNK         0.0853 
      6 C6         16.8786  -26.2132  -44.6446 C.3       10 UNK        -0.0849 
      7 S7         16.3368  -27.0592  -43.1139 S.3       10 UNK        -0.2776 
      8 C8         15.6556  -28.6225  -43.7580 C.3       10 UNK         0.0316 
      9 C9         16.7572  -29.6375  -44.0207 C.ar      10 UNK        -0.0863 
     10 C10        17.1705  -30.5114  -43.0097 C.ar      10 UNK        -0.1009 
     11 C11        18.2304  -31.3982  -43.2261 C.ar      10 UNK        -0.0712 
     12 C12        18.8665  -31.4168  -44.4705 C.ar      10 UNK        -0.0894 
     13 C13        18.4423  -30.5669  -45.4945 C.ar      10 UNK        -0.0745 
     14 C14        17.3806  -29.6887  -45.2686 C.ar      10 UNK        -0.0972 
     15 C15        19.1371  -30.5754  -46.8434 C.3       10 UNK         0.0209 
     16 S16        20.1752  -29.0979  -47.0484 S.3       10 UNK        -0.2568 
     17 C17        21.6052  -29.4801  -45.9723 C.3       10 UNK        -0.0983 
     18 CA         21.9973  -28.3830  -44.9371 C.3       3 UNK         0.0876 
     19 N          21.4963  -27.0440  -45.2566 N.am      3 UNK        -0.4424 
     20 C          22.0372  -25.9111  -44.7948 C.2       2 UNK         0.4918 
     21 O          23.0280  -25.8799  -44.0673 O.2       2 UNK        -0.4875 
     22 CA         21.3456  -24.5958  -45.1827 C.3       2 UNK         0.0481 
     23 CB         21.8839  -24.0859  -46.5285 C.3       2 UNK        -0.1831 
     24 N          19.8820  -24.6805  -45.2374 N.am      2 UNK        -0.4498 
     25 C          19.0899  -24.9566  -44.1902 C.2       1 UNK         0.5027 
     26 O          19.5174  -25.2852  -43.0804 O.2       1 UNK        -0.4969 
     27 C          21.7445  -28.7789  -43.4649 C.2       3 UNK         0.5005 
     28 O          22.5730  -29.4915  -42.8975 O.2       3 UNK        -0.5279 
     29 N          20.6794  -28.2602  -42.8315 N.am      4 UNK        -0.4463 
     30 CA         20.4697  -28.3957  -41.3846 C.3       4 UNK         0.0283 
     31 CB         19.0416  -27.9951  -40.9927 C.3       4 UNK        -0.1875 
     32 C          21.4886  -27.5735  -40.5819 C.2       4 UNK         0.4949 
     33 O          22.0214  -28.0759  -39.5935 O.2       4 UNK        -0.5039 
     34 N          21.7818  -26.3477  -41.0430 N.am      5 UNK        -0.4663 
     35 CA         22.8154  -25.4760  -40.4694 C.3       5 UNK         0.0242 
     36 CB         22.7192  -24.0745  -41.0929 C.3       5 UNK        -0.1982 
     37 C          24.2367  -26.0546  -40.6134 C.2       5 UNK         0.5017 
     38 O          25.0567  -25.8769  -39.7128 O.2       5 UNK        -0.5012 
     39 N          24.4816  -26.7803  -41.7136 N.am      6 UNK        -0.4439 
     40 CA         25.6954  -27.5624  -41.9723 C.3       6 UNK         0.0297 
     41 CB         25.8091  -27.8277  -43.4826 C.3       6 UNK        -0.2006 
     42 C          25.7702  -28.8890  -41.1841 C.2       6 UNK         0.4892 
     43 O          26.7789  -29.5860  -41.3027 O.2       6 UNK        -0.5089 
     44 N          24.7290  -29.2127  -40.4021 N.am      7 UNK        -0.4243 
     45 CA         24.5879  -30.3862  -39.5354 C.3       7 UNK         0.0196 
     46 CB         25.6709  -30.4059  -38.4340 C.3       7 UNK        -0.2007 
     47 C          24.4701  -31.7158  -40.3039 C.2       7 UNK         0.5020 
     48 O          25.0382  -32.7241  -39.8781 O.2       7 UNK        -0.5147 
     49 N          23.6979  -31.7159  -41.3998 N.am      8 UNK        -0.4734 
     50 CA         23.2210  -32.9332  -42.0663 C.3       8 UNK         0.0238 
     51 CB         22.7385  -32.5727  -43.4836 C.3       8 UNK        -0.1912 
     52 C          22.0989  -33.6201  -41.2571 C.2       8 UNK         0.5038 
     53 O          21.6772  -33.1085  -40.2163 O.2       8 UNK        -0.5046 
     54 N          21.6177  -34.7602  -41.7701 N.am      9 UNK        -0.4200 
     55 CA         20.5473  -35.5939  -41.1868 C.3       9 UNK         0.0839 
     56 C          20.9661  -36.3801  -39.9063 C.2       9 UNK         0.5513 
     57 N          22.2478  -36.4741  -39.5729 N.am      9 UNK        -0.7519 
     58 O          20.1198  -36.9458  -39.2183 O.2       9 UNK        -0.4960 
     59 C59        19.1895  -34.8484  -41.0014 C.3       10 UNK        -0.0876 
     60 S60        18.5616  -34.0663  -42.5275 S.3       10 UNK        -0.2414 
     61 C61        18.7205  -32.3014  -42.1048 C.3       10 UNK         0.0169 
     62 H62        15.7289  -21.3391  -42.2707 H         1 UNK         0.0903 
     63 H63        15.8674  -22.8590  -41.3842 H         1 UNK         0.0903 
     64 H64        17.1691  -21.6702  -41.3037 H         1 UNK         0.0903 
     65 H65        16.4066  -24.5953  -42.7024 H         1 UNK         0.3096 
     66 H66        17.4366  -24.2716  -45.3564 H         1 UNK         0.1121 
     67 H67        17.5213  -26.8791  -45.2217 H         1 UNK         0.0849 
     68 H68        15.9878  -26.0665  -45.2575 H         1 UNK         0.0849 
     69 H69        14.9505  -29.0252  -43.0292 H         1 UNK         0.0865 
     70 H70        15.0785  -28.4343  -44.6647 H         1 UNK         0.0865 
     71 H71        16.6872  -30.4762  -42.0428 H         1 UNK         0.1346 
     72 H72        19.6908  -32.0957  -44.6387 H         1 UNK         0.1412 
     73 H73        17.0602  -29.0259  -46.0607 H         1 UNK         0.1426 
     74 H74        18.3870  -30.5934  -47.6354 H         1 UNK         0.0716 
     75 H75        19.7418  -31.4744  -46.9734 H         1 UNK         0.0716 
     76 H76        22.4484  -29.6393  -46.6463 H         1 UNK         0.0695 
     77 H77        21.4578  -30.4476  -45.4901 H         1 UNK         0.0695 
     78 H78        23.0843  -28.3085  -45.0055 H         1 UNK         0.0983 
     79 H79        20.6934  -27.0047  -45.8682 H         1 UNK         0.3095 
     80 H80        21.5994  -23.8585  -44.4182 H         1 UNK         0.0454 
     81 H81        21.6324  -24.7601  -47.3483 H         1 UNK         0.0851 
     82 H82        22.9709  -23.9949  -46.5041 H         1 UNK         0.0851 
     83 H83        21.4854  -23.1001  -46.7686 H         1 UNK         0.0851 
     84 H84        19.4540  -24.4214  -46.1150 H         1 UNK         0.2976 
     85 H85        20.0526  -27.6459  -43.3325 H         1 UNK         0.3116 
     86 H86        20.6037  -29.4474  -41.1206 H         1 UNK         0.0646 
     87 H87        18.3051  -28.6031  -41.5105 H         1 UNK         0.0847 
     88 H88        18.8305  -26.9497  -41.2154 H         1 UNK         0.0847 
     89 H89        18.8785  -28.1366  -39.9237 H         1 UNK         0.0847 
     90 H90        21.2726  -25.9978  -41.8464 H         1 UNK         0.3040 
     91 H91        22.6110  -25.3845  -39.4002 H         1 UNK         0.1015 
     92 H92        23.4325  -23.3934  -40.6270 H         1 UNK         0.0786 
     93 H93        21.7257  -23.6465  -40.9567 H         1 UNK         0.0786 
     94 H94        22.9343  -24.0866  -42.1610 H         1 UNK         0.0786 
     95 H95        23.7734  -26.7845  -42.4407 H         1 UNK         0.3172 
     96 H96        26.5541  -26.9592  -41.6711 H         1 UNK         0.0595 
     97 H97        25.0471  -28.5281  -43.8226 H         1 UNK         0.0839 
     98 H98        26.7779  -28.2643  -43.7284 H         1 UNK         0.0839 
     99 H99        25.7119  -26.9094  -44.0622 H         1 UNK         0.0839 
    100 H100       23.9324  -28.5864  -40.3944 H         1 UNK         0.2998 
    101 H101       23.6278  -30.2615  -39.0323 H         1 UNK         0.0822 
    102 H102       25.7058  -29.4589  -37.8953 H         1 UNK         0.0787 
    103 H103       25.4662  -31.1869  -37.7007 H         1 UNK         0.0787 
    104 H104       26.6635  -30.5984  -38.8418 H         1 UNK         0.0787 
    105 H105       23.2849  -30.8420  -41.7184 H         1 UNK         0.3055 
    106 H106       24.0558  -33.6328  -42.1485 H         1 UNK         0.1106 
    107 H107       21.8252  -31.9786  -43.4536 H         1 UNK         0.0828 
    108 H108       22.5263  -33.4641  -44.0744 H         1 UNK         0.0828 
    109 H109       23.4910  -32.0009  -44.0272 H         1 UNK         0.0828 
    110 H110       22.0193  -35.1166  -42.6250 H         1 UNK         0.2931 
    111 H111       20.3732  -36.3724  -41.9305 H         1 UNK         0.0412 
    112 H112       22.9569  -36.0220  -40.1273 H         1 UNK         0.3472 
    113 H113       22.5065  -36.9950  -38.7494 H         1 UNK         0.3472 
    114 H114       18.4210  -35.5503  -40.6727 H         1 UNK         0.0970 
    115 H115       19.2627  -34.1068  -40.2047 H         1 UNK         0.0970 
    116 H116       19.7629  -32.0622  -41.8976 H         1 UNK         0.0612 
    117 H117       18.1683  -32.1059  -41.1843 H         1 UNK         0.0612 
@<TRIPOS>BOND
     1    1    2 1    
     2    1   62 1    
     3    1   63 1    
     4    1   64 1    
     5    2    3 2    
     6    2    4 am   BACKBONE|DICT|INTERRES
     7    4    5 1    
     8    4   65 1    
     9    5    6 1    
    10    5   25 1    
    11    5   66 1    
    12    6    7 1    
    13    6   67 1    
    14    6   68 1    
    15    7    8 1    
    16    8    9 1    
    17    8   69 1    
    18    8   70 1    
    19    9   10 ar   
    20    9   14 ar   
    21   10   11 ar   
    22   10   71 1    
    23   11   12 ar   
    24   11   61 1    
    25   12   13 ar   
    26   12   72 1    
    27   13   14 ar   
    28   13   15 1    
    29   14   73 1    
    30   15   16 1    
    31   15   74 1    
    32   15   75 1    
    33   16   17 1    
    34   17   18 1    
    35   17   76 1    
    36   17   77 1    
    37   18   19 1    
    38   18   27 1    
    39   18   78 1    
    40   19   20 am   BACKBONE|DICT|INTERRES
    41   19   79 1    
    42   20   21 2    
    43   20   22 1    
    44   22   23 1    
    45   22   24 1    
    46   22   80 1    
    47   23   81 1    
    48   23   82 1    
    49   23   83 1    
    50   24   25 am   BACKBONE|DICT|INTERRES
    51   24   84 1    
    52   25   26 2    
    53   27   28 2    
    54   27   29 am   BACKBONE|DICT|INTERRES
    55   29   30 1    
    56   29   85 1    
    57   30   31 1    
    58   30   32 1    
    59   30   86 1    
    60   31   87 1    
    61   31   88 1    
    62   31   89 1    
    63   32   33 2    
    64   32   34 am   BACKBONE|DICT|INTERRES
    65   34   35 1    
    66   34   90 1    
    67   35   36 1    
    68   35   37 1    
    69   35   91 1    
    70   36   92 1    
    71   36   93 1    
    72   36   94 1    
    73   37   38 2    
    74   37   39 am   BACKBONE|DICT|INTERRES
    75   39   40 1    
    76   39   95 1    
    77   40   41 1    
    78   40   42 1    
    79   40   96 1    
    80   41   97 1    
    81   41   98 1    
    82   41   99 1    
    83   42   43 2    
    84   42   44 am   BACKBONE|DICT|INTERRES
    85   44   45 1    
    86   44  100 1    
    87   45   46 1    
    88   45   47 1    
    89   45  101 1    
    90   46  102 1    
    91   46  103 1    
    92   46  104 1    
    93   47   48 2    
    94   47   49 am   BACKBONE|DICT|INTERRES
    95   49   50 1    
    96   49  105 1    
    97   50   51 1    
    98   50   52 1    
    99   50  106 1    
   100   51  107 1    
   101   51  108 1    
   102   51  109 1    
   103   52   53 2    
   104   52   54 am   BACKBONE|DICT|INTERRES
   105   54   55 1    
   106   54  110 1    
   107   55   56 1    
   108   55   59 1    
   109   55  111 1    
   110   56   57 am   BACKBONE|DICT|INTERRES
   111   56   58 2    
   112   57  112 1    
   113   57  113 1    
   114   59   60 1    
   115   59  114 1    
   116   59  115 1    
   117   60   61 1    
   118   61  116 1    
   119   61  117 1    
@<TRIPOS>SUBSTRUCTURE
     1 UNK         1 GROUP             0       ****    0 ROOT    
