@<TRIPOS>MOLECULE
3R8
117   119    1
SMALL
USER_CHARGES


@<TRIPOS>ATOM
      1 CA         14.8963  -26.2753  -45.2209 C.3       0 UNK        -0.2013 
      2 C          16.0422  -25.8462  -46.1250 C.2       0 UNK         0.4866 
      3 O          16.0453  -24.7092  -46.5968 O.2       0 UNK        -0.5176 
      4 N          17.0017  -26.7459  -46.3891 N.am      1 UNK        -0.4884 
      5 CA         18.1525  -26.4995  -47.2663 C.3       1 UNK         0.0853 
      6 C6         18.8380  -27.8164  -47.7287 C.3       10 UNK        -0.0849 
      7 S7         19.6928  -28.7752  -46.4226 S.3       10 UNK        -0.2776 
      8 C8         18.4609  -30.0216  -45.9293 C.3       10 UNK         0.0316 
      9 C9         18.3245  -30.0472  -44.4145 C.ar      10 UNK        -0.0863 
     10 C10        19.2457  -30.7525  -43.6362 C.ar      10 UNK        -0.1009 
     11 C11        19.1500  -30.7516  -42.2403 C.ar      10 UNK        -0.0712 
     12 C12        18.1261  -30.0264  -41.6232 C.ar      10 UNK        -0.0894 
     13 C13        17.2093  -29.3037  -42.3916 C.ar      10 UNK        -0.0745 
     14 C14        17.3007  -29.3374  -43.7849 C.ar      10 UNK        -0.0972 
     15 C15        16.1377  -28.4544  -41.7284 C.3       10 UNK         0.0209 
     16 S16        16.5107  -26.6799  -41.9043 S.3       10 UNK        -0.2568 
     17 C17        17.8444  -26.4404  -40.6818 C.3       10 UNK        -0.0983 
     18 CA         19.2787  -26.5403  -41.2662 C.3       3 UNK         0.0876 
     19 N          19.4506  -25.7242  -42.4792 N.am      3 UNK        -0.4424 
     20 C          20.5594  -25.6615  -43.2299 C.2       2 UNK         0.4918 
     21 O          21.6267  -26.1945  -42.9196 O.2       2 UNK        -0.4875 
     22 CA         20.4286  -24.9188  -44.5666 C.3       2 UNK         0.0481 
     23 CB         21.8042  -24.7183  -45.2436 C.3       2 UNK        -0.1831 
     24 N          19.5151  -25.7032  -45.3960 N.am      2 UNK        -0.4498 
     25 C          19.1369  -25.4742  -46.6605 C.2       1 UNK         0.5027 
     26 O          19.4955  -24.5054  -47.3319 O.2       1 UNK        -0.4969 
     27 C          20.3079  -26.2527  -40.1501 C.2       3 UNK         0.5005 
     28 O          20.6160  -27.1504  -39.3663 O.2       3 UNK        -0.5279 
     29 N          20.8097  -25.0111  -40.0883 N.am      4 UNK        -0.4463 
     30 CA         21.8311  -24.5766  -39.1334 C.3       4 UNK         0.0283 
     31 CB         21.7489  -23.0495  -38.9730 C.3       4 UNK        -0.1875 
     32 C          23.2593  -24.9920  -39.5326 C.2       4 UNK         0.4949 
     33 O          24.1223  -25.0569  -38.6567 O.2       4 UNK        -0.5039 
     34 N          23.4982  -25.2328  -40.8294 N.am      5 UNK        -0.4663 
     35 CA         24.8142  -25.5712  -41.3768 C.3       5 UNK         0.0242 
     36 CB         25.0227  -24.8249  -42.7046 C.3       5 UNK        -0.1982 
     37 C          24.9715  -27.0825  -41.5860 C.2       5 UNK         0.5017 
     38 O          26.0355  -27.6236  -41.2825 O.2       5 UNK        -0.5012 
     39 N          23.9251  -27.7343  -42.1110 N.am      6 UNK        -0.4439 
     40 CA         23.8829  -29.1733  -42.3628 C.3       6 UNK         0.0297 
     41 CB         22.7059  -29.4798  -43.3043 C.3       6 UNK        -0.2006 
     42 C          23.7708  -29.9479  -41.0388 C.2       6 UNK         0.4892 
     43 O          22.7749  -29.7924  -40.3325 O.2       6 UNK        -0.5089 
     44 N          24.7970  -30.7460  -40.7179 N.am      7 UNK        -0.4243 
     45 CA         24.8759  -31.5148  -39.4733 C.3       7 UNK         0.0196 
     46 CB         26.3480  -31.6676  -39.0520 C.3       7 UNK        -0.2007 
     47 C          24.1926  -32.8842  -39.5992 C.2       7 UNK         0.5020 
     48 O          23.3146  -33.2031  -38.7982 O.2       7 UNK        -0.5147 
     49 N          24.6199  -33.6755  -40.5931 N.am      8 UNK        -0.4734 
     50 CA         24.1448  -35.0475  -40.8187 C.3       8 UNK         0.0238 
     51 CB         25.2754  -35.8614  -41.4712 C.3       8 UNK        -0.1912 
     52 C          22.8690  -35.1241  -41.6756 C.2       8 UNK         0.5038 
     53 O          22.2369  -36.1803  -41.7154 O.2       8 UNK        -0.5046 
     54 N          22.5361  -34.0219  -42.3587 N.am      9 UNK        -0.4200 
     55 CA         21.4076  -33.8700  -43.2934 C.3       9 UNK         0.0839 
     56 C          21.5480  -34.6695  -44.6247 C.2       9 UNK         0.5513 
     57 N          22.7269  -35.1680  -44.9773 N.am      9 UNK        -0.7519 
     58 O          20.5820  -34.8130  -45.3697 O.2       9 UNK        -0.4960 
     59 C59        20.0036  -34.0589  -42.6373 C.3       10 UNK        -0.0876 
     60 S60        19.7278  -33.2048  -41.0428 S.3       10 UNK        -0.2414 
     61 C61        20.1824  -31.4783  -41.3905 C.3       10 UNK         0.0169 
     62 H62        14.9124  -25.6986  -44.2967 H         1 UNK         0.0903 
     63 H63        13.9428  -26.0919  -45.7155 H         1 UNK         0.0903 
     64 H64        14.9401  -27.3324  -44.9661 H         1 UNK         0.0903 
     65 H65        16.9550  -27.6652  -45.9795 H         1 UNK         0.3096 
     66 H66        17.7553  -26.0296  -48.1697 H         1 UNK         0.1121 
     67 H67        19.5804  -27.5834  -48.4945 H         1 UNK         0.0849 
     68 H68        18.1109  -28.4570  -48.2299 H         1 UNK         0.0849 
     69 H69        17.4948  -29.8226  -46.3948 H         1 UNK         0.0865 
     70 H70        18.7764  -31.0008  -46.2930 H         1 UNK         0.0865 
     71 H71        20.0485  -31.2799  -44.1272 H         1 UNK         0.1346 
     72 H72        18.0620  -30.0021  -40.5438 H         1 UNK         0.1412 
     73 H73        16.5854  -28.7851  -44.3727 H         1 UNK         0.1426 
     74 H74        16.0244  -28.7094  -40.6736 H         1 UNK         0.0716 
     75 H75        15.1748  -28.6602  -42.1982 H         1 UNK         0.0716 
     76 H76        17.7128  -27.1603  -39.8716 H         1 UNK         0.0695 
     77 H77        17.6892  -25.4568  -40.2339 H         1 UNK         0.0695 
     78 H78        19.4495  -27.5734  -41.5737 H         1 UNK         0.0983 
     79 H79        18.6140  -25.2641  -42.8094 H         1 UNK         0.3095 
     80 H80        19.9791  -23.9429  -44.3756 H         1 UNK         0.0454 
     81 H81        22.2696  -25.6701  -45.5030 H         1 UNK         0.0851 
     82 H82        22.4858  -24.1870  -44.5795 H         1 UNK         0.0851 
     83 H83        21.7341  -24.1209  -46.1513 H         1 UNK         0.0851 
     84 H84        19.1694  -26.5497  -44.9624 H         1 UNK         0.2976 
     85 H85        20.4859  -24.3292  -40.7592 H         1 UNK         0.3116 
     86 H86        21.6172  -25.0287  -38.1623 H         1 UNK         0.0646 
     87 H87        21.9531  -22.5316  -39.9109 H         1 UNK         0.0847 
     88 H88        22.4763  -22.6948  -38.2414 H         1 UNK         0.0847 
     89 H89        20.7643  -22.7385  -38.6233 H         1 UNK         0.0847 
     90 H90        22.7204  -25.2380  -41.4786 H         1 UNK         0.3040 
     91 H91        25.5989  -25.2483  -40.6884 H         1 UNK         0.1015 
     92 H92        24.3142  -25.1497  -43.4664 H         1 UNK         0.0786 
     93 H93        26.0245  -25.0048  -43.0971 H         1 UNK         0.0786 
     94 H94        24.9127  -23.7478  -42.5778 H         1 UNK         0.0786 
     95 H95        23.0809  -27.2107  -42.3291 H         1 UNK         0.3172 
     96 H96        24.8049  -29.4616  -42.8724 H         1 UNK         0.0595 
     97 H97        22.6611  -30.5421  -43.5440 H         1 UNK         0.0839 
     98 H98        22.8004  -28.9406  -44.2472 H         1 UNK         0.0839 
     99 H99        21.7502  -29.1970  -42.8602 H         1 UNK         0.0839 
    100 H100       25.5922  -30.7917  -41.3390 H         1 UNK         0.2998 
    101 H101       24.3656  -30.9640  -38.6794 H         1 UNK         0.0822 
    102 H102       26.8066  -30.6958  -38.8678 H         1 UNK         0.0787 
    103 H103       26.4312  -32.2430  -38.1287 H         1 UNK         0.0787 
    104 H104       26.9436  -32.1785  -39.8092 H         1 UNK         0.0787 
    105 H105       25.3566  -33.3419  -41.1981 H         1 UNK         0.3055 
    106 H106       23.9093  -35.5079  -39.8560 H         1 UNK         0.1106 
    107 H107       24.9707  -36.8970  -41.6303 H         1 UNK         0.0828 
    108 H108       25.5625  -35.4543  -42.4413 H         1 UNK         0.0828 
    109 H109       26.1636  -35.8829  -40.8395 H         1 UNK         0.0828 
    110 H110       23.1318  -33.2155  -42.2531 H         1 UNK         0.2931 
    111 H111       21.4798  -32.8361  -43.6206 H         1 UNK         0.0412 
    112 H112       23.5326  -35.0503  -44.3851 H         1 UNK         0.3472 
    113 H113       22.8081  -35.6733  -45.8459 H         1 UNK         0.3472 
    114 H114       19.8159  -35.1207  -42.4695 H         1 UNK         0.0970 
    115 H115       19.2221  -33.7294  -43.3243 H         1 UNK         0.0970 
    116 H116       20.2941  -30.9610  -40.4364 H         1 UNK         0.0612 
    117 H117       21.1639  -31.4397  -41.8572 H         1 UNK         0.0612 
@<TRIPOS>BOND
     1    1    2 1    
     2    1   62 1    
     3    1   63 1    
     4    1   64 1    
     5    2    3 2    
     6    2    4 am   BACKBONE|DICT|INTERRES
     7    4    5 1    
     8    4   65 1    
     9    5    6 1    
    10    5   25 1    
    11    5   66 1    
    12    6    7 1    
    13    6   67 1    
    14    6   68 1    
    15    7    8 1    
    16    8    9 1    
    17    8   69 1    
    18    8   70 1    
    19    9   10 ar   
    20    9   14 ar   
    21   10   11 ar   
    22   10   71 1    
    23   11   12 ar   
    24   11   61 1    
    25   12   13 ar   
    26   12   72 1    
    27   13   14 ar   
    28   13   15 1    
    29   14   73 1    
    30   15   16 1    
    31   15   74 1    
    32   15   75 1    
    33   16   17 1    
    34   17   18 1    
    35   17   76 1    
    36   17   77 1    
    37   18   19 1    
    38   18   27 1    
    39   18   78 1    
    40   19   20 am   BACKBONE|DICT|INTERRES
    41   19   79 1    
    42   20   21 2    
    43   20   22 1    
    44   22   23 1    
    45   22   24 1    
    46   22   80 1    
    47   23   81 1    
    48   23   82 1    
    49   23   83 1    
    50   24   25 am   BACKBONE|DICT|INTERRES
    51   24   84 1    
    52   25   26 2    
    53   27   28 2    
    54   27   29 am   BACKBONE|DICT|INTERRES
    55   29   30 1    
    56   29   85 1    
    57   30   31 1    
    58   30   32 1    
    59   30   86 1    
    60   31   87 1    
    61   31   88 1    
    62   31   89 1    
    63   32   33 2    
    64   32   34 am   BACKBONE|DICT|INTERRES
    65   34   35 1    
    66   34   90 1    
    67   35   36 1    
    68   35   37 1    
    69   35   91 1    
    70   36   92 1    
    71   36   93 1    
    72   36   94 1    
    73   37   38 2    
    74   37   39 am   BACKBONE|DICT|INTERRES
    75   39   40 1    
    76   39   95 1    
    77   40   41 1    
    78   40   42 1    
    79   40   96 1    
    80   41   97 1    
    81   41   98 1    
    82   41   99 1    
    83   42   43 2    
    84   42   44 am   BACKBONE|DICT|INTERRES
    85   44   45 1    
    86   44  100 1    
    87   45   46 1    
    88   45   47 1    
    89   45  101 1    
    90   46  102 1    
    91   46  103 1    
    92   46  104 1    
    93   47   48 2    
    94   47   49 am   BACKBONE|DICT|INTERRES
    95   49   50 1    
    96   49  105 1    
    97   50   51 1    
    98   50   52 1    
    99   50  106 1    
   100   51  107 1    
   101   51  108 1    
   102   51  109 1    
   103   52   53 2    
   104   52   54 am   BACKBONE|DICT|INTERRES
   105   54   55 1    
   106   54  110 1    
   107   55   56 1    
   108   55   59 1    
   109   55  111 1    
   110   56   57 am   BACKBONE|DICT|INTERRES
   111   56   58 2    
   112   57  112 1    
   113   57  113 1    
   114   59   60 1    
   115   59  114 1    
   116   59  115 1    
   117   60   61 1    
   118   61  116 1    
   119   61  117 1    
@<TRIPOS>SUBSTRUCTURE
     1 UNK         1 GROUP             0       ****    0 ROOT    
