@<TRIPOS>MOLECULE
3R8
117   119    1
SMALL
USER_CHARGES


@<TRIPOS>ATOM
      1 CA         16.7950  -22.4168  -41.6017 C.3       0 UNK        -0.2013 
      2 C          17.4283  -22.9082  -42.8946 C.2       0 UNK         0.4866 
      3 O          18.1287  -22.1466  -43.5626 O.2       0 UNK        -0.5176 
      4 N          17.1801  -24.1723  -43.2570 N.am      1 UNK        -0.4884 
      5 CA         17.7752  -24.8546  -44.4100 C.3       1 UNK         0.0853 
      6 C6         17.0006  -26.1453  -44.7998 C.3       10 UNK        -0.0849 
      7 S7         16.4550  -27.1709  -43.3876 S.3       10 UNK        -0.2776 
      8 C8         15.4874  -28.4656  -44.2300 C.3       10 UNK         0.0316 
      9 C9         16.3557  -29.6770  -44.5251 C.ar      10 UNK        -0.0863 
     10 C10        16.5427  -30.6494  -43.5378 C.ar      10 UNK        -0.1009 
     11 C11        17.4071  -31.7243  -43.7577 C.ar      10 UNK        -0.0712 
     12 C12        18.0562  -31.8461  -44.9878 C.ar      10 UNK        -0.0894 
     13 C13        17.9030  -30.8605  -45.9682 C.ar      10 UNK        -0.0745 
     14 C14        17.0276  -29.7926  -45.7463 C.ar      10 UNK        -0.0972 
     15 C15        18.8213  -30.8651  -47.1821 C.3       10 UNK         0.0209 
     16 S16        20.2447  -29.7254  -46.9701 S.3       10 UNK        -0.2568 
     17 C17        20.6676  -29.9126  -45.1964 C.3       10 UNK        -0.0983 
     18 CA         21.6559  -28.8694  -44.6238 C.3       3 UNK         0.0876 
     19 N          21.3522  -27.5071  -45.0680 N.am      3 UNK        -0.4424 
     20 C          22.0796  -26.4206  -44.7797 C.2       2 UNK         0.4918 
     21 O          23.1208  -26.4437  -44.1253 O.2       2 UNK        -0.4875 
     22 CA         21.5311  -25.0720  -45.2718 C.3       2 UNK         0.0481 
     23 CB         22.0654  -24.7612  -46.6785 C.3       2 UNK        -0.1831 
     24 N          20.0662  -24.9802  -45.2708 N.am      2 UNK        -0.4498 
     25 C          19.2811  -25.1135  -44.1903 C.2       1 UNK         0.5027 
     26 O          19.7001  -25.4312  -43.0730 O.2       1 UNK        -0.4969 
     27 C          21.6472  -28.9694  -43.0838 C.2       3 UNK         0.5005 
     28 O          22.5757  -29.5250  -42.4981 O.2       3 UNK        -0.5279 
     29 N          20.5976  -28.4098  -42.4630 N.am      4 UNK        -0.4463 
     30 CA         20.4024  -28.3817  -41.0150 C.3       4 UNK         0.0283 
     31 CB         18.9493  -28.0004  -40.6950 C.3       4 UNK        -0.1875 
     32 C          21.3883  -27.4340  -40.3202 C.2       4 UNK         0.4949 
     33 O          21.8821  -27.7699  -39.2449 O.2       4 UNK        -0.5039 
     34 N          21.7025  -26.2998  -40.9642 N.am      5 UNK        -0.4663 
     35 CA         22.7326  -25.3540  -40.5202 C.3       5 UNK         0.0242 
     36 CB         22.6811  -24.0883  -41.3899 C.3       5 UNK        -0.1982 
     37 C          24.1457  -25.9679  -40.5234 C.2       5 UNK         0.5017 
     38 O          24.9199  -25.7102  -39.6016 O.2       5 UNK        -0.5012 
     39 N          24.4374  -26.7991  -41.5339 N.am      6 UNK        -0.4439 
     40 CA         25.6616  -27.5978  -41.6464 C.3       6 UNK         0.0297 
     41 CB         25.8531  -28.0031  -43.1179 C.3       6 UNK        -0.2006 
     42 C          25.6734  -28.8494  -40.7443 C.2       6 UNK         0.4892 
     43 O          26.7239  -29.4816  -40.6275 O.2       6 UNK        -0.5089 
     44 N          24.5212  -29.1942  -40.1479 N.am      7 UNK        -0.4243 
     45 CA         24.2452  -30.3879  -39.3386 C.3       7 UNK         0.0196 
     46 CB         25.0647  -30.3759  -38.0308 C.3       7 UNK        -0.2007 
     47 C          24.3897  -31.7018  -40.1335 C.2       7 UNK         0.5020 
     48 O          24.8086  -32.7190  -39.5786 O.2       7 UNK        -0.5147 
     49 N          24.0216  -31.6676  -41.4214 N.am      8 UNK        -0.4734 
     50 CA         24.0900  -32.8041  -42.3451 C.3       8 UNK         0.0238 
     51 CB         24.0842  -32.2732  -43.7883 C.3       8 UNK        -0.1912 
     52 C          22.9595  -33.8295  -42.1425 C.2       8 UNK         0.5038 
     53 O          23.0646  -34.9425  -42.6594 O.2       8 UNK        -0.5046 
     54 N          21.9055  -33.4438  -41.4112 N.am      9 UNK        -0.4200 
     55 CA         20.7338  -34.2782  -41.0952 C.3       9 UNK         0.0839 
     56 C          21.0177  -35.4625  -40.1250 C.2       9 UNK         0.5513 
     57 N          22.1533  -35.5057  -39.4376 N.am      9 UNK        -0.7519 
     58 O          20.1885  -36.3593  -39.9957 O.2       9 UNK        -0.4960 
     59 C59        19.5383  -33.4316  -40.5800 C.3       10 UNK        -0.0876 
     60 S60        19.1339  -32.0268  -41.6692 S.3       10 UNK        -0.2414 
     61 C61        17.7369  -32.6862  -42.6301 C.3       10 UNK         0.0169 
     62 H62        16.1524  -21.5594  -41.8002 H         1 UNK         0.0903 
     63 H63        16.1923  -23.1891  -41.1240 H         1 UNK         0.0903 
     64 H64        17.5689  -22.1082  -40.8995 H         1 UNK         0.0903 
     65 H65        16.6238  -24.7687  -42.6597 H         1 UNK         0.3096 
     66 H66        17.6946  -24.1657  -45.2544 H         1 UNK         0.1121 
     67 H67        17.5787  -26.7625  -45.4902 H         1 UNK         0.0849 
     68 H68        16.1044  -25.8558  -45.3509 H         1 UNK         0.0849 
     69 H69        14.6559  -28.7581  -43.5870 H         1 UNK         0.0865 
     70 H70        15.0387  -28.0767  -45.1454 H         1 UNK         0.0865 
     71 H71        16.0620  -30.5375  -42.5754 H         1 UNK         0.1346 
     72 H72        18.7649  -32.6491  -45.1385 H         1 UNK         0.1412 
     73 H73        16.9294  -29.0162  -46.4927 H         1 UNK         0.1426 
     74 H74        18.2614  -30.5792  -48.0737 H         1 UNK         0.0716 
     75 H75        19.1997  -31.8715  -47.3676 H         1 UNK         0.0716 
     76 H76        21.0397  -30.9253  -45.0319 H         1 UNK         0.0695 
     77 H77        19.7431  -29.8305  -44.6273 H         1 UNK         0.0695 
     78 H78        22.6619  -29.1132  -44.9720 H         1 UNK         0.0983 
     79 H79        20.5261  -27.4013  -45.6377 H         1 UNK         0.3095 
     80 H80        21.9020  -24.3014  -44.5938 H         1 UNK         0.0454 
     81 H81        21.7003  -25.4748  -47.4182 H         1 UNK         0.0851 
     82 H82        23.1555  -24.8012  -46.6988 H         1 UNK         0.0851 
     83 H83        21.7758  -23.7616  -47.0028 H         1 UNK         0.0851 
     84 H84        19.6389  -24.7247  -46.1500 H         1 UNK         0.2976 
     85 H85        19.9046  -27.9284  -43.0189 H         1 UNK         0.3116 
     86 H86        20.5809  -29.3886  -40.6313 H         1 UNK         0.0646 
     87 H87        18.2486  -28.7068  -41.1415 H         1 UNK         0.0847 
     88 H88        18.6999  -27.0040  -41.0615 H         1 UNK         0.0847 
     89 H89        18.7732  -28.0061  -39.6187 H         1 UNK         0.0847 
     90 H90        21.2021  -26.0761  -41.8190 H         1 UNK         0.3040 
     91 H91        22.4992  -25.0713  -39.4913 H         1 UNK         0.1015 
     92 H92        23.3788  -23.3354  -41.0210 H         1 UNK         0.0786 
     93 H93        21.6866  -23.6411  -41.3846 H         1 UNK         0.0786 
     94 H94        22.9488  -24.2983  -42.4250 H         1 UNK         0.0786 
     95 H95        23.7672  -26.8907  -42.2921 H         1 UNK         0.3172 
     96 H96        26.5089  -26.9752  -41.3519 H         1 UNK         0.0595 
     97 H97        25.0359  -28.6334  -43.4711 H         1 UNK         0.0839 
     98 H98        26.7790  -28.5634  -43.2543 H         1 UNK         0.0839 
     99 H99        25.9055  -27.1290  -43.7672 H         1 UNK         0.0839 
    100 H100       23.7178  -28.6044  -40.3234 H         1 UNK         0.2998 
    101 H101       23.1916  -30.3222  -39.0631 H         1 UNK         0.0822 
    102 H102       24.9311  -29.4395  -37.4891 H         1 UNK         0.0787 
    103 H103       24.7509  -31.1815  -37.3658 H         1 UNK         0.0787 
    104 H104       26.1308  -30.5073  -38.2180 H         1 UNK         0.0787 
    105 H105       23.6295  -30.8022  -41.7949 H         1 UNK         0.3055 
    106 H106       25.0339  -33.3276  -42.1769 H         1 UNK         0.1106 
    107 H107       23.1481  -31.7685  -44.0271 H         1 UNK         0.0828 
    108 H108       24.2072  -33.0865  -44.5047 H         1 UNK         0.0828 
    109 H109       24.8982  -31.5676  -43.9558 H         1 UNK         0.0828 
    110 H110       21.8965  -32.5033  -41.0471 H         1 UNK         0.2931 
    111 H111       20.4186  -34.7347  -42.0357 H         1 UNK         0.0412 
    112 H112       22.3250  -36.2794  -38.8147 H         1 UNK         0.3472 
    113 H113       22.8427  -34.7764  -39.5392 H         1 UNK         0.3472 
    114 H114       18.6496  -34.0540  -40.4569 H         1 UNK         0.0970 
    115 H115       19.7608  -33.0292  -39.5900 H         1 UNK         0.0970 
    116 H116       16.8730  -32.8253  -41.9784 H         1 UNK         0.0612 
    117 H117       17.9956  -33.6674  -43.0312 H         1 UNK         0.0612 
@<TRIPOS>BOND
     1    1    2 1    
     2    1   62 1    
     3    1   63 1    
     4    1   64 1    
     5    2    3 2    
     6    2    4 am   BACKBONE|DICT|INTERRES
     7    4    5 1    
     8    4   65 1    
     9    5    6 1    
    10    5   25 1    
    11    5   66 1    
    12    6    7 1    
    13    6   67 1    
    14    6   68 1    
    15    7    8 1    
    16    8    9 1    
    17    8   69 1    
    18    8   70 1    
    19    9   10 ar   
    20    9   14 ar   
    21   10   11 ar   
    22   10   71 1    
    23   11   12 ar   
    24   11   61 1    
    25   12   13 ar   
    26   12   72 1    
    27   13   14 ar   
    28   13   15 1    
    29   14   73 1    
    30   15   16 1    
    31   15   74 1    
    32   15   75 1    
    33   16   17 1    
    34   17   18 1    
    35   17   76 1    
    36   17   77 1    
    37   18   19 1    
    38   18   27 1    
    39   18   78 1    
    40   19   20 am   BACKBONE|DICT|INTERRES
    41   19   79 1    
    42   20   21 2    
    43   20   22 1    
    44   22   23 1    
    45   22   24 1    
    46   22   80 1    
    47   23   81 1    
    48   23   82 1    
    49   23   83 1    
    50   24   25 am   BACKBONE|DICT|INTERRES
    51   24   84 1    
    52   25   26 2    
    53   27   28 2    
    54   27   29 am   BACKBONE|DICT|INTERRES
    55   29   30 1    
    56   29   85 1    
    57   30   31 1    
    58   30   32 1    
    59   30   86 1    
    60   31   87 1    
    61   31   88 1    
    62   31   89 1    
    63   32   33 2    
    64   32   34 am   BACKBONE|DICT|INTERRES
    65   34   35 1    
    66   34   90 1    
    67   35   36 1    
    68   35   37 1    
    69   35   91 1    
    70   36   92 1    
    71   36   93 1    
    72   36   94 1    
    73   37   38 2    
    74   37   39 am   BACKBONE|DICT|INTERRES
    75   39   40 1    
    76   39   95 1    
    77   40   41 1    
    78   40   42 1    
    79   40   96 1    
    80   41   97 1    
    81   41   98 1    
    82   41   99 1    
    83   42   43 2    
    84   42   44 am   BACKBONE|DICT|INTERRES
    85   44   45 1    
    86   44  100 1    
    87   45   46 1    
    88   45   47 1    
    89   45  101 1    
    90   46  102 1    
    91   46  103 1    
    92   46  104 1    
    93   47   48 2    
    94   47   49 am   BACKBONE|DICT|INTERRES
    95   49   50 1    
    96   49  105 1    
    97   50   51 1    
    98   50   52 1    
    99   50  106 1    
   100   51  107 1    
   101   51  108 1    
   102   51  109 1    
   103   52   53 2    
   104   52   54 am   BACKBONE|DICT|INTERRES
   105   54   55 1    
   106   54  110 1    
   107   55   56 1    
   108   55   59 1    
   109   55  111 1    
   110   56   57 am   BACKBONE|DICT|INTERRES
   111   56   58 2    
   112   57  112 1    
   113   57  113 1    
   114   59   60 1    
   115   59  114 1    
   116   59  115 1    
   117   60   61 1    
   118   61  116 1    
   119   61  117 1    
@<TRIPOS>SUBSTRUCTURE
     1 UNK         1 GROUP             0       ****    0 ROOT    
