@<TRIPOS>MOLECULE
3R8
117   119    1
SMALL
USER_CHARGES


@<TRIPOS>ATOM
      1 CA         19.9228  -24.2693  -40.1252 C.3       0 UNK        -0.2013 
      2 C          18.8764  -24.4722  -41.2076 C.2       0 UNK         0.4866 
      3 O          17.7593  -23.9695  -41.0801 O.2       0 UNK        -0.5176 
      4 N          19.2325  -25.2107  -42.2624 N.am      1 UNK        -0.4884 
      5 CA         18.3649  -25.5375  -43.3977 C.3       1 UNK         0.0853 
      6 C6         18.0844  -27.0612  -43.4794 C.3       10 UNK        -0.0849 
      7 S7         17.2403  -27.7434  -42.0099 S.3       10 UNK        -0.2776 
      8 C8         18.5585  -28.7381  -41.2336 C.3       10 UNK         0.0316 
      9 C9         19.0285  -29.8730  -42.1355 C.ar      10 UNK        -0.0863 
     10 C10        18.2047  -30.9794  -42.3719 C.ar      10 UNK        -0.1009 
     11 C11        18.6227  -32.0065  -43.2253 C.ar      10 UNK        -0.0712 
     12 C12        19.8693  -31.9102  -43.8517 C.ar      10 UNK        -0.0894 
     13 C13        20.6958  -30.8060  -43.6326 C.ar      10 UNK        -0.0745 
     14 C14        20.2815  -29.8026  -42.7530 C.ar      10 UNK        -0.0972 
     15 C15        22.0221  -30.6843  -44.3713 C.3       10 UNK         0.0209 
     16 S16        21.8001  -30.4533  -46.1702 S.3       10 UNK        -0.2568 
     17 C17        20.8248  -28.9099  -46.2573 C.3       10 UNK        -0.0983 
     18 CA         21.5581  -27.6975  -46.8949 C.3       3 UNK         0.0876 
     19 N          20.7345  -26.4946  -46.8698 N.am      3 UNK        -0.4424 
     20 C          19.6391  -26.2536  -47.5920 C.2       2 UNK         0.4918 
     21 O          19.2277  -26.9930  -48.4870 O.2       2 UNK        -0.4875 
     22 CA         18.8444  -24.9937  -47.1819 C.3       2 UNK         0.0481 
     23 CB         17.6821  -24.6884  -48.1444 C.3       2 UNK        -0.1831 
     24 N          18.3155  -25.1341  -45.8185 N.am      2 UNK        -0.4498 
     25 C          19.0466  -25.0661  -44.6956 C.2       1 UNK         0.5027 
     26 O          20.2354  -24.7305  -44.6886 O.2       1 UNK        -0.4969 
     27 C          22.8733  -27.3342  -46.1893 C.2       3 UNK         0.5005 
     28 O          23.9274  -27.3280  -46.8273 O.2       3 UNK        -0.5279 
     29 N          22.7750  -26.9809  -44.9014 N.am      4 UNK        -0.4463 
     30 CA         23.8641  -26.5182  -44.0506 C.3       4 UNK         0.0283 
     31 CB         24.7905  -27.6899  -43.6650 C.3       4 UNK        -0.1875 
     32 C          23.2575  -25.8709  -42.8006 C.2       4 UNK         0.4949 
     33 O          22.0794  -26.0898  -42.4982 O.2       4 UNK        -0.5039 
     34 N          24.0915  -25.1070  -42.0831 N.am      5 UNK        -0.4663 
     35 CA         23.7606  -24.5063  -40.7867 C.3       5 UNK         0.0242 
     36 CB         24.8002  -23.4266  -40.4461 C.3       5 UNK        -0.1982 
     37 C          23.6688  -25.5445  -39.6527 C.2       5 UNK         0.5017 
     38 O          22.9507  -25.3138  -38.6797 O.2       5 UNK        -0.5012 
     39 N          24.3854  -26.6655  -39.8047 N.am      6 UNK        -0.4439 
     40 CA         24.2727  -27.8488  -38.9578 C.3       6 UNK         0.0297 
     41 CB         25.6196  -28.5898  -38.9421 C.3       6 UNK        -0.2006 
     42 C          23.1727  -28.7611  -39.5142 C.2       6 UNK         0.4892 
     43 O          23.0741  -28.9242  -40.7331 O.2       6 UNK        -0.5089 
     44 N          22.3972  -29.3806  -38.6180 N.am      7 UNK        -0.4243 
     45 CA         21.3252  -30.3199  -38.9527 C.3       7 UNK         0.0196 
     46 CB         20.3048  -30.3543  -37.8001 C.3       7 UNK        -0.2007 
     47 C          21.8749  -31.7146  -39.3058 C.2       7 UNK         0.5020 
     48 O          21.5493  -32.6980  -38.6382 O.2       7 UNK        -0.5147 
     49 N          22.6963  -31.7866  -40.3606 N.am      8 UNK        -0.4734 
     50 CA         23.2965  -33.0084  -40.9129 C.3       8 UNK         0.0238 
     51 CB         24.5489  -32.6215  -41.7216 C.3       8 UNK        -0.1912 
     52 C          22.2825  -33.8377  -41.7315 C.2       8 UNK         0.5038 
     53 O          22.5399  -34.1775  -42.8878 O.2       8 UNK        -0.5046 
     54 N          21.1307  -34.1070  -41.1132 N.am      9 UNK        -0.4200 
     55 CA         19.9655  -34.7905  -41.6776 C.3       9 UNK         0.0839 
     56 C          20.0811  -36.3376  -41.6112 C.2       9 UNK         0.5513 
     57 N          19.1888  -37.0500  -42.2844 N.am      9 UNK        -0.7519 
     58 O          20.9518  -36.9012  -40.9501 O.2       9 UNK        -0.4960 
     59 C59        18.6770  -34.2470  -40.9962 C.3       10 UNK        -0.0876 
     60 S60        17.1936  -34.1535  -42.0575 S.3       10 UNK        -0.2414 
     61 C61        17.7201  -33.1999  -43.5257 C.3       10 UNK         0.0169 
     62 H62        20.4184  -23.3074  -40.2510 H         1 UNK         0.0903 
     63 H63        19.4598  -24.2905  -39.1390 H         1 UNK         0.0903 
     64 H64        20.6738  -25.0577  -40.1557 H         1 UNK         0.0903 
     65 H65        20.1980  -25.5196  -42.3597 H         1 UNK         0.3096 
     66 H66        17.4145  -25.0047  -43.3201 H         1 UNK         0.1121 
     67 H67        17.4484  -27.2921  -44.3358 H         1 UNK         0.0849 
     68 H68        19.0146  -27.5995  -43.6537 H         1 UNK         0.0849 
     69 H69        19.3894  -28.0820  -40.9674 H         1 UNK         0.0865 
     70 H70        18.1855  -29.1536  -40.2964 H         1 UNK         0.0865 
     71 H71        17.2318  -31.0351  -41.9028 H         1 UNK         0.1346 
     72 H72        20.1953  -32.6854  -44.5317 H         1 UNK         0.1412 
     73 H73        20.9219  -28.9481  -42.5747 H         1 UNK         0.1426 
     74 H74        22.6135  -29.8597  -43.9736 H         1 UNK         0.0716 
     75 H75        22.6050  -31.5908  -44.2064 H         1 UNK         0.0716 
     76 H76        19.9287  -29.1378  -46.8359 H         1 UNK         0.0695 
     77 H77        20.4635  -28.6448  -45.2651 H         1 UNK         0.0695 
     78 H78        21.7915  -27.9350  -47.9351 H         1 UNK         0.0983 
     79 H79        20.9764  -25.8094  -46.1591 H         1 UNK         0.3095 
     80 H80        19.5308  -24.1448  -47.2100 H         1 UNK         0.0454 
     81 H81        16.9450  -25.4922  -48.1598 H         1 UNK         0.0851 
     82 H82        17.1688  -23.7676  -47.8672 H         1 UNK         0.0851 
     83 H83        18.0450  -24.5600  -49.1650 H         1 UNK         0.0851 
     84 H84        17.3531  -25.4341  -45.7501 H         1 UNK         0.2976 
     85 H85        21.8744  -26.9601  -44.4382 H         1 UNK         0.3116 
     86 H86        24.4329  -25.7603  -44.5932 H         1 UNK         0.0646 
     87 H87        24.2661  -28.4394  -43.0727 H         1 UNK         0.0847 
     88 H88        25.2010  -28.1875  -44.5433 H         1 UNK         0.0847 
     89 H89        25.6378  -27.3445  -43.0724 H         1 UNK         0.0847 
     90 H90        25.0327  -24.9623  -42.4215 H         1 UNK         0.3040 
     91 H91        22.7854  -24.0241  -40.8743 H         1 UNK         0.1015 
     92 H92        25.8038  -23.8440  -40.3554 H         1 UNK         0.0786 
     93 H93        24.5621  -22.9423  -39.4978 H         1 UNK         0.0786 
     94 H94        24.8270  -22.6468  -41.2076 H         1 UNK         0.0786 
     95 H95        24.8908  -26.7831  -40.6696 H         1 UNK         0.3172 
     96 H96        24.0230  -27.5527  -37.9366 H         1 UNK         0.0595 
     97 H97        25.5725  -29.4715  -38.3016 H         1 UNK         0.0839 
     98 H98        26.4177  -27.9539  -38.5586 H         1 UNK         0.0839 
     99 H99        25.9088  -28.9275  -39.9385 H         1 UNK         0.0839 
    100 H100       22.5718  -29.2289  -37.6347 H         1 UNK         0.2998 
    101 H101       20.8049  -29.9534  -39.8384 H         1 UNK         0.0822 
    102 H102       19.4721  -31.0183  -38.0364 H         1 UNK         0.0787 
    103 H103       20.7539  -30.7103  -36.8720 H         1 UNK         0.0787 
    104 H104       19.8844  -29.3659  -37.6134 H         1 UNK         0.0787 
    105 H105       22.9003  -30.9156  -40.8422 H         1 UNK         0.3055 
    106 H106       23.6205  -33.6411  -40.0833 H         1 UNK         0.1106 
    107 H107       25.2771  -32.1026  -41.0980 H         1 UNK         0.0828 
    108 H108       25.0438  -33.5054  -42.1262 H         1 UNK         0.0828 
    109 H109       24.3046  -31.9700  -42.5603 H         1 UNK         0.0828 
    110 H110       21.0496  -33.8063  -40.1473 H         1 UNK         0.2931 
    111 H111       19.9461  -34.5400  -42.7374 H         1 UNK         0.0412 
    112 H112       18.4526  -36.5949  -42.8025 H         1 UNK         0.3472 
    113 H113       19.2361  -38.0567  -42.2548 H         1 UNK         0.3472 
    114 H114       18.4320  -34.8277  -40.1048 H         1 UNK         0.0970 
    115 H115       18.8413  -33.2323  -40.6288 H         1 UNK         0.0970 
    116 H116       16.8279  -32.8399  -44.0393 H         1 UNK         0.0612 
    117 H117       18.2073  -33.8849  -44.2211 H         1 UNK         0.0612 
@<TRIPOS>BOND
     1    1    2 1    
     2    1   62 1    
     3    1   63 1    
     4    1   64 1    
     5    2    3 2    
     6    2    4 am   BACKBONE|DICT|INTERRES
     7    4    5 1    
     8    4   65 1    
     9    5    6 1    
    10    5   25 1    
    11    5   66 1    
    12    6    7 1    
    13    6   67 1    
    14    6   68 1    
    15    7    8 1    
    16    8    9 1    
    17    8   69 1    
    18    8   70 1    
    19    9   10 ar   
    20    9   14 ar   
    21   10   11 ar   
    22   10   71 1    
    23   11   12 ar   
    24   11   61 1    
    25   12   13 ar   
    26   12   72 1    
    27   13   14 ar   
    28   13   15 1    
    29   14   73 1    
    30   15   16 1    
    31   15   74 1    
    32   15   75 1    
    33   16   17 1    
    34   17   18 1    
    35   17   76 1    
    36   17   77 1    
    37   18   19 1    
    38   18   27 1    
    39   18   78 1    
    40   19   20 am   BACKBONE|DICT|INTERRES
    41   19   79 1    
    42   20   21 2    
    43   20   22 1    
    44   22   23 1    
    45   22   24 1    
    46   22   80 1    
    47   23   81 1    
    48   23   82 1    
    49   23   83 1    
    50   24   25 am   BACKBONE|DICT|INTERRES
    51   24   84 1    
    52   25   26 2    
    53   27   28 2    
    54   27   29 am   BACKBONE|DICT|INTERRES
    55   29   30 1    
    56   29   85 1    
    57   30   31 1    
    58   30   32 1    
    59   30   86 1    
    60   31   87 1    
    61   31   88 1    
    62   31   89 1    
    63   32   33 2    
    64   32   34 am   BACKBONE|DICT|INTERRES
    65   34   35 1    
    66   34   90 1    
    67   35   36 1    
    68   35   37 1    
    69   35   91 1    
    70   36   92 1    
    71   36   93 1    
    72   36   94 1    
    73   37   38 2    
    74   37   39 am   BACKBONE|DICT|INTERRES
    75   39   40 1    
    76   39   95 1    
    77   40   41 1    
    78   40   42 1    
    79   40   96 1    
    80   41   97 1    
    81   41   98 1    
    82   41   99 1    
    83   42   43 2    
    84   42   44 am   BACKBONE|DICT|INTERRES
    85   44   45 1    
    86   44  100 1    
    87   45   46 1    
    88   45   47 1    
    89   45  101 1    
    90   46  102 1    
    91   46  103 1    
    92   46  104 1    
    93   47   48 2    
    94   47   49 am   BACKBONE|DICT|INTERRES
    95   49   50 1    
    96   49  105 1    
    97   50   51 1    
    98   50   52 1    
    99   50  106 1    
   100   51  107 1    
   101   51  108 1    
   102   51  109 1    
   103   52   53 2    
   104   52   54 am   BACKBONE|DICT|INTERRES
   105   54   55 1    
   106   54  110 1    
   107   55   56 1    
   108   55   59 1    
   109   55  111 1    
   110   56   57 am   BACKBONE|DICT|INTERRES
   111   56   58 2    
   112   57  112 1    
   113   57  113 1    
   114   59   60 1    
   115   59  114 1    
   116   59  115 1    
   117   60   61 1    
   118   61  116 1    
   119   61  117 1    
@<TRIPOS>SUBSTRUCTURE
     1 UNK         1 GROUP             0       ****    0 ROOT    
