@<TRIPOS>MOLECULE
3R8
117   119    1
SMALL
USER_CHARGES


@<TRIPOS>ATOM
      1 CA         17.2911  -26.5632  -47.2914 C.3       0 UNK        -0.2013 
      2 C          17.6220  -28.0421  -47.1051 C.2       0 UNK         0.4866 
      3 O          17.8740  -28.7211  -48.0979 O.2       0 UNK        -0.5176 
      4 N          17.6469  -28.6027  -45.8854 N.am      1 UNK        -0.4884 
      5 CA         17.3838  -28.0077  -44.5617 C.3       1 UNK         0.0853 
      6 C6         15.9554  -27.4082  -44.3881 C.3       10 UNK        -0.0849 
      7 S7         14.6221  -28.5932  -44.7849 S.3       10 UNK        -0.2776 
      8 C8         14.1547  -29.2031  -43.1301 C.3       10 UNK         0.0316 
      9 C9         15.3199  -29.9115  -42.4568 C.ar      10 UNK        -0.0863 
     10 C10        15.6769  -31.2030  -42.8535 C.ar      10 UNK        -0.1009 
     11 C11        16.8026  -31.8269  -42.3082 C.ar      10 UNK        -0.0712 
     12 C12        17.5488  -31.1607  -41.3315 C.ar      10 UNK        -0.0894 
     13 C13        17.2034  -29.8666  -40.9252 C.ar      10 UNK        -0.0745 
     14 C14        16.0764  -29.2549  -41.4810 C.ar      10 UNK        -0.0972 
     15 C15        18.0551  -29.1129  -39.9095 C.3       10 UNK         0.0209 
     16 S16        19.8176  -29.1263  -40.3717 S.3       10 UNK        -0.2568 
     17 C17        20.4174  -27.5058  -39.7964 C.3       10 UNK        -0.0983 
     18 CA         21.4796  -26.9573  -40.7787 C.3       3 UNK         0.0876 
     19 N          20.9129  -26.6398  -42.0989 N.am      3 UNK        -0.4424 
     20 C          21.6123  -26.4616  -43.2268 C.2       2 UNK         0.4918 
     21 O          22.8432  -26.4608  -43.2546 O.2       2 UNK        -0.4875 
     22 CA         20.8131  -26.1967  -44.5214 C.3       2 UNK         0.0481 
     23 CB         21.7043  -26.2507  -45.7760 C.3       2 UNK        -0.1831 
     24 N          19.6726  -27.0983  -44.7201 N.am      2 UNK        -0.4498 
     25 C          18.4930  -27.0416  -44.0847 C.2       1 UNK         0.5027 
     26 O          18.2703  -26.2630  -43.1564 O.2       1 UNK        -0.4969 
     27 C          22.3195  -25.8209  -40.1539 C.2       3 UNK         0.5005 
     28 O          22.9618  -26.0480  -39.1283 O.2       3 UNK        -0.5279 
     29 N          22.3973  -24.6550  -40.8136 N.am      4 UNK        -0.4463 
     30 CA         23.4145  -23.6233  -40.5779 C.3       4 UNK         0.0283 
     31 CB         23.1171  -22.4056  -41.4668 C.3       4 UNK        -0.1875 
     32 C          24.8550  -24.1271  -40.8184 C.2       4 UNK         0.4949 
     33 O          25.7852  -23.5997  -40.2100 O.2       4 UNK        -0.5039 
     34 N          25.0102  -25.1668  -41.6540 N.am      5 UNK        -0.4663 
     35 CA         26.2556  -25.9124  -41.8636 C.3       5 UNK         0.0242 
     36 CB         26.2296  -26.5198  -43.2776 C.3       5 UNK        -0.1982 
     37 C          26.5011  -27.0046  -40.7979 C.2       5 UNK         0.5017 
     38 O          27.4273  -27.7979  -40.9648 O.2       5 UNK        -0.5012 
     39 N          25.6693  -27.0460  -39.7443 N.am      6 UNK        -0.4439 
     40 CA         25.6572  -27.9770  -38.6066 C.3       6 UNK         0.0297 
     41 CB         27.0274  -28.0509  -37.8998 C.3       6 UNK        -0.2006 
     42 C          25.0867  -29.3738  -38.9199 C.2       6 UNK         0.4892 
     43 O          24.9902  -30.1912  -38.0032 O.2       6 UNK        -0.5089 
     44 N          24.6849  -29.6253  -40.1708 N.am      7 UNK        -0.4243 
     45 CA         24.0497  -30.8553  -40.6348 C.3       7 UNK         0.0196 
     46 CB         25.0936  -31.9824  -40.7652 C.3       7 UNK        -0.2007 
     47 C          23.3765  -30.5825  -41.9835 C.2       7 UNK         0.5020 
     48 O          23.7442  -29.6241  -42.6661 O.2       7 UNK        -0.5147 
     49 N          22.4316  -31.4495  -42.3543 N.am      8 UNK        -0.4734 
     50 CA         21.7390  -31.4666  -43.6400 C.3       8 UNK         0.0238 
     51 CB         20.6363  -30.3904  -43.6749 C.3       8 UNK        -0.1912 
     52 C          21.1500  -32.8674  -43.8542 C.2       8 UNK         0.5038 
     53 O          21.1199  -33.6685  -42.9149 O.2       8 UNK        -0.5046 
     54 N          20.6755  -33.1201  -45.0799 N.am      9 UNK        -0.4200 
     55 CA         19.9939  -34.3546  -45.5151 C.3       9 UNK         0.0839 
     56 C          20.9203  -35.6017  -45.6469 C.2       9 UNK         0.5513 
     57 N          22.2391  -35.4488  -45.6566 N.am      9 UNK        -0.7519 
     58 O          20.4390  -36.7250  -45.7742 O.2       9 UNK        -0.4960 
     59 C59        18.6885  -34.6672  -44.7220 C.3       10 UNK        -0.0876 
     60 S60        17.5716  -33.2271  -44.5785 S.3       10 UNK        -0.2414 
     61 C61        17.2317  -33.2071  -42.7867 C.3       10 UNK         0.0169 
     62 H62        17.6698  -25.9359  -46.4880 H         1 UNK         0.0903 
     63 H63        17.7323  -26.1960  -48.2178 H         1 UNK         0.0903 
     64 H64        16.2124  -26.4281  -47.3637 H         1 UNK         0.0903 
     65 H65        17.8427  -29.5936  -45.8488 H         1 UNK         0.3096 
     66 H66        17.4624  -28.8477  -43.8712 H         1 UNK         0.1121 
     67 H67        15.8202  -26.5233  -45.0089 H         1 UNK         0.0849 
     68 H68        15.8067  -27.0575  -43.3657 H         1 UNK         0.0849 
     69 H69        13.7976  -28.3717  -42.5203 H         1 UNK         0.0865 
     70 H70        13.3146  -29.8924  -43.2278 H         1 UNK         0.0865 
     71 H71        15.1037  -31.7067  -43.6202 H         1 UNK         0.1346 
     72 H72        18.4233  -31.6357  -40.9077 H         1 UNK         0.1412 
     73 H73        15.8077  -28.2512  -41.1804 H         1 UNK         0.1426 
     74 H74        17.9382  -29.5703  -38.9264 H         1 UNK         0.0716 
     75 H75        17.7068  -28.0834  -39.8182 H         1 UNK         0.0716 
     76 H76        19.5925  -26.7995  -39.6925 H         1 UNK         0.0695 
     77 H77        20.8335  -27.6506  -38.7975 H         1 UNK         0.0695 
     78 H78        22.2037  -27.7586  -40.9456 H         1 UNK         0.0983 
     79 H79        19.9006  -26.5863  -42.1615 H         1 UNK         0.3095 
     80 H80        20.4253  -25.1792  -44.4418 H         1 UNK         0.0454 
     81 H81        22.5199  -25.5290  -45.7110 H         1 UNK         0.0851 
     82 H82        22.1526  -27.2363  -45.9083 H         1 UNK         0.0851 
     83 H83        21.1397  -26.0128  -46.6776 H         1 UNK         0.0851 
     84 H84        19.7753  -27.7923  -45.4467 H         1 UNK         0.2976 
     85 H85        21.8307  -24.5500  -41.6423 H         1 UNK         0.3116 
     86 H86        23.3424  -23.3149  -39.5329 H         1 UNK         0.0646 
     87 H87        23.8427  -21.6098  -41.2921 H         1 UNK         0.0847 
     88 H88        22.1303  -21.9918  -41.2585 H         1 UNK         0.0847 
     89 H89        23.1608  -22.6579  -42.5271 H         1 UNK         0.0847 
     90 H90        24.1943  -25.5326  -42.1382 H         1 UNK         0.3040 
     91 H91        27.0971  -25.2182  -41.8077 H         1 UNK         0.1015 
     92 H92        26.0527  -25.7567  -44.0356 H         1 UNK         0.0786 
     93 H93        25.4498  -27.2766  -43.3760 H         1 UNK         0.0786 
     94 H94        27.1796  -26.9987  -43.5185 H         1 UNK         0.0786 
     95 H95        24.9125  -26.3704  -39.7207 H         1 UNK         0.3172 
     96 H96        24.9591  -27.5361  -37.8936 H         1 UNK         0.0595 
     97 H97        27.4127  -27.0572  -37.6717 H         1 UNK         0.0839 
     98 H98        27.7711  -28.5722  -38.5025 H         1 UNK         0.0839 
     99 H99        26.9481  -28.5905  -36.9553 H         1 UNK         0.0839 
    100 H100       24.7779  -28.9120  -40.8833 H         1 UNK         0.2998 
    101 H101       23.2783  -31.1452  -39.9178 H         1 UNK         0.0822 
    102 H102       25.5515  -32.2189  -39.8047 H         1 UNK         0.0787 
    103 H103       24.6382  -32.9012  -41.1368 H         1 UNK         0.0787 
    104 H104       25.8915  -31.7095  -41.4571 H         1 UNK         0.0787 
    105 H105       22.2101  -32.2460  -41.7673 H         1 UNK         0.3055 
    106 H106       22.4667  -31.2734  -44.4316 H         1 UNK         0.1106 
    107 H107       21.0327  -29.4047  -43.4354 H         1 UNK         0.0828 
    108 H108       20.1789  -30.3245  -44.6620 H         1 UNK         0.0828 
    109 H109       19.8405  -30.6113  -42.9641 H         1 UNK         0.0828 
    110 H110       20.7570  -32.4059  -45.7885 H         1 UNK         0.2931 
    111 H111       19.6862  -34.1442  -46.5401 H         1 UNK         0.0412 
    112 H112       22.8297  -36.2601  -45.7530 H         1 UNK         0.3472 
    113 H113       22.6492  -34.5334  -45.5652 H         1 UNK         0.3472 
    114 H114       18.9354  -35.0516  -43.7314 H         1 UNK         0.0970 
    115 H115       18.1308  -35.4649  -45.2158 H         1 UNK         0.0970 
    116 H116       18.1239  -33.5257  -42.2454 H         1 UNK         0.0612 
    117 H117       16.4503  -33.9333  -42.5592 H         1 UNK         0.0612 
@<TRIPOS>BOND
     1    1    2 1    
     2    1   62 1    
     3    1   63 1    
     4    1   64 1    
     5    2    3 2    
     6    2    4 am   BACKBONE|DICT|INTERRES
     7    4    5 1    
     8    4   65 1    
     9    5    6 1    
    10    5   25 1    
    11    5   66 1    
    12    6    7 1    
    13    6   67 1    
    14    6   68 1    
    15    7    8 1    
    16    8    9 1    
    17    8   69 1    
    18    8   70 1    
    19    9   10 ar   
    20    9   14 ar   
    21   10   11 ar   
    22   10   71 1    
    23   11   12 ar   
    24   11   61 1    
    25   12   13 ar   
    26   12   72 1    
    27   13   14 ar   
    28   13   15 1    
    29   14   73 1    
    30   15   16 1    
    31   15   74 1    
    32   15   75 1    
    33   16   17 1    
    34   17   18 1    
    35   17   76 1    
    36   17   77 1    
    37   18   19 1    
    38   18   27 1    
    39   18   78 1    
    40   19   20 am   BACKBONE|DICT|INTERRES
    41   19   79 1    
    42   20   21 2    
    43   20   22 1    
    44   22   23 1    
    45   22   24 1    
    46   22   80 1    
    47   23   81 1    
    48   23   82 1    
    49   23   83 1    
    50   24   25 am   BACKBONE|DICT|INTERRES
    51   24   84 1    
    52   25   26 2    
    53   27   28 2    
    54   27   29 am   BACKBONE|DICT|INTERRES
    55   29   30 1    
    56   29   85 1    
    57   30   31 1    
    58   30   32 1    
    59   30   86 1    
    60   31   87 1    
    61   31   88 1    
    62   31   89 1    
    63   32   33 2    
    64   32   34 am   BACKBONE|DICT|INTERRES
    65   34   35 1    
    66   34   90 1    
    67   35   36 1    
    68   35   37 1    
    69   35   91 1    
    70   36   92 1    
    71   36   93 1    
    72   36   94 1    
    73   37   38 2    
    74   37   39 am   BACKBONE|DICT|INTERRES
    75   39   40 1    
    76   39   95 1    
    77   40   41 1    
    78   40   42 1    
    79   40   96 1    
    80   41   97 1    
    81   41   98 1    
    82   41   99 1    
    83   42   43 2    
    84   42   44 am   BACKBONE|DICT|INTERRES
    85   44   45 1    
    86   44  100 1    
    87   45   46 1    
    88   45   47 1    
    89   45  101 1    
    90   46  102 1    
    91   46  103 1    
    92   46  104 1    
    93   47   48 2    
    94   47   49 am   BACKBONE|DICT|INTERRES
    95   49   50 1    
    96   49  105 1    
    97   50   51 1    
    98   50   52 1    
    99   50  106 1    
   100   51  107 1    
   101   51  108 1    
   102   51  109 1    
   103   52   53 2    
   104   52   54 am   BACKBONE|DICT|INTERRES
   105   54   55 1    
   106   54  110 1    
   107   55   56 1    
   108   55   59 1    
   109   55  111 1    
   110   56   57 am   BACKBONE|DICT|INTERRES
   111   56   58 2    
   112   57  112 1    
   113   57  113 1    
   114   59   60 1    
   115   59  114 1    
   116   59  115 1    
   117   60   61 1    
   118   61  116 1    
   119   61  117 1    
@<TRIPOS>SUBSTRUCTURE
     1 UNK         1 GROUP             0       ****    0 ROOT    
