@<TRIPOS>MOLECULE
3R8
117   119    1
SMALL
USER_CHARGES


@<TRIPOS>ATOM
      1 CA         14.6617  -25.3654  -40.0851 C.3       0 UNK        -0.2013 
      2 C          15.3561  -25.8202  -41.3602 C.2       0 UNK         0.4866 
      3 O          14.8172  -25.6316  -42.4514 O.2       0 UNK        -0.5176 
      4 N          16.5431  -26.4260  -41.2312 N.am      1 UNK        -0.4884 
      5 CA         17.3766  -26.8834  -42.3476 C.3       1 UNK         0.0853 
      6 C6         18.4897  -27.8449  -41.8659 C.3       10 UNK        -0.0849 
      7 S7         17.8269  -29.5061  -41.4935 S.3       10 UNK        -0.2776 
      8 C8         17.6685  -30.2788  -43.1425 C.3       10 UNK         0.0316 
      9 C9         19.0085  -30.4933  -43.8353 C.ar      10 UNK        -0.0863 
     10 C10        19.6940  -31.7060  -43.7048 C.ar      10 UNK        -0.1009 
     11 C11        20.9185  -31.9032  -44.3552 C.ar      10 UNK        -0.0712 
     12 C12        21.4647  -30.8674  -45.1215 C.ar      10 UNK        -0.0894 
     13 C13        20.7868  -29.6534  -45.2607 C.ar      10 UNK        -0.0745 
     14 C14        19.5497  -29.4846  -44.6373 C.ar      10 UNK        -0.0972 
     15 C15        21.3871  -28.5159  -46.0722 C.3       10 UNK         0.0209 
     16 S16        22.6298  -27.6209  -45.0930 S.3       10 UNK        -0.2568 
     17 C17        22.6715  -25.9966  -45.9283 C.3       10 UNK        -0.0983 
     18 CA         22.0557  -24.8235  -45.1088 C.3       3 UNK         0.0876 
     19 N          20.6126  -24.9370  -44.9077 N.am      3 UNK        -0.4424 
     20 C          19.6898  -24.6753  -45.8368 C.2       2 UNK         0.4918 
     21 O          19.9721  -24.4203  -47.0090 O.2       2 UNK        -0.4875 
     22 CA         18.2128  -24.6705  -45.3920 C.3       2 UNK         0.0481 
     23 CB         17.2436  -24.7336  -46.5882 C.3       2 UNK        -0.1831 
     24 N          17.8756  -25.7526  -44.4633 N.am      2 UNK        -0.4498 
     25 C          17.9598  -25.6871  -43.1277 C.2       1 UNK         0.5027 
     26 O          18.4688  -24.7444  -42.5177 O.2       1 UNK        -0.4969 
     27 C          22.7227  -24.6250  -43.7361 C.2       3 UNK         0.5005 
     28 O          22.0989  -24.8940  -42.7056 O.2       3 UNK        -0.5279 
     29 N          23.9817  -24.1705  -43.7526 N.am      4 UNK        -0.4463 
     30 CA         24.8445  -24.0692  -42.5706 C.3       4 UNK         0.0283 
     31 CB         25.6218  -22.7430  -42.6368 C.3       4 UNK        -0.1875 
     32 C          25.8208  -25.2565  -42.4595 C.2       4 UNK         0.4949 
     33 O          26.5036  -25.3762  -41.4422 O.2       4 UNK        -0.5039 
     34 N          25.9013  -26.0923  -43.5057 N.am      5 UNK        -0.4663 
     35 CA         26.8428  -27.2093  -43.6168 C.3       5 UNK         0.0242 
     36 CB         26.9290  -27.6434  -45.0895 C.3       5 UNK        -0.1982 
     37 C          26.4873  -28.4124  -42.7282 C.2       5 UNK         0.5017 
     38 O          27.3911  -29.1427  -42.3196 O.2       5 UNK        -0.5012 
     39 N          25.1932  -28.6054  -42.4557 N.am      6 UNK        -0.4439 
     40 CA         24.6368  -29.6930  -41.6582 C.3       6 UNK         0.0297 
     41 CB         24.6301  -30.9984  -42.4786 C.3       6 UNK        -0.2006 
     42 C          23.2192  -29.3014  -41.2241 C.2       6 UNK         0.4892 
     43 O          22.6975  -28.2830  -41.6834 O.2       6 UNK        -0.5089 
     44 N          22.6193  -30.1176  -40.3540 N.am      7 UNK        -0.4243 
     45 CA         21.2320  -29.9956  -39.9243 C.3       7 UNK         0.0196 
     46 CB         21.0974  -28.9368  -38.8145 C.3       7 UNK        -0.2007 
     47 C          20.7440  -31.3642  -39.4450 C.2       7 UNK         0.5020 
     48 O          21.5518  -32.1666  -38.9681 O.2       7 UNK        -0.5147 
     49 N          19.4296  -31.5878  -39.5667 N.am      8 UNK        -0.4734 
     50 CA         18.6626  -32.7978  -39.2436 C.3       8 UNK         0.0238 
     51 CB         18.7417  -33.1456  -37.7428 C.3       8 UNK        -0.1912 
     52 C          19.0210  -33.9982  -40.1345 C.2       8 UNK         0.5038 
     53 O          18.1670  -34.4589  -40.8926 O.2       8 UNK        -0.5046 
     54 N          20.2724  -34.4619  -40.0355 N.am      9 UNK        -0.4200 
     55 CA         20.8746  -35.5526  -40.8206 C.3       9 UNK         0.0839 
     56 C          20.2281  -36.9551  -40.6010 C.2       9 UNK         0.5513 
     57 N          19.5294  -37.1908  -39.4968 N.am      9 UNK        -0.7519 
     58 O          20.3858  -37.8553  -41.4223 O.2       9 UNK        -0.4960 
     59 C59        21.0325  -35.1821  -42.3224 C.3       10 UNK        -0.0876 
     60 S60        22.0677  -33.6973  -42.5607 S.3       10 UNK        -0.2414 
     61 C61        21.6390  -33.2424  -44.2693 C.3       10 UNK         0.0169 
     62 H62        15.2428  -25.6070  -39.1953 H         1 UNK         0.0903 
     63 H63        14.5073  -24.2869  -40.1067 H         1 UNK         0.0903 
     64 H64        13.6886  -25.8475  -39.9955 H         1 UNK         0.0903 
     65 H65        16.9428  -26.5440  -40.3113 H         1 UNK         0.3096 
     66 H66        16.7215  -27.4252  -43.0327 H         1 UNK         0.1121 
     67 H67        19.3072  -27.9281  -42.5798 H         1 UNK         0.0849 
     68 H68        18.9616  -27.4536  -40.9626 H         1 UNK         0.0849 
     69 H69        17.1619  -31.2380  -43.0245 H         1 UNK         0.0865 
     70 H70        17.0125  -29.6765  -43.7720 H         1 UNK         0.0865 
     71 H71        19.2735  -32.5008  -43.1033 H         1 UNK         0.1346 
     72 H72        22.4174  -31.0027  -45.6152 H         1 UNK         0.1412 
     73 H73        19.0181  -28.5524  -44.7612 H         1 UNK         0.1426 
     74 H74        20.6025  -27.8263  -46.3882 H         1 UNK         0.0716 
     75 H75        21.8487  -28.9014  -46.9824 H         1 UNK         0.0716 
     76 H76        23.7140  -25.7771  -46.1633 H         1 UNK         0.0695 
     77 H77        22.1778  -26.0738  -46.8978 H         1 UNK         0.0695 
     78 H78        22.2283  -23.8993  -45.6655 H         1 UNK         0.0983 
     79 H79        20.3389  -25.0892  -43.9428 H         1 UNK         0.3095 
     80 H80        18.0445  -23.7140  -44.8927 H         1 UNK         0.0454 
     81 H81        17.3956  -23.8904  -47.2635 H         1 UNK         0.0851 
     82 H82        17.3789  -25.6459  -47.1704 H         1 UNK         0.0851 
     83 H83        16.2046  -24.6941  -46.2606 H         1 UNK         0.0851 
     84 H84        17.4646  -26.5731  -44.8843 H         1 UNK         0.2976 
     85 H85        24.4048  -23.9289  -44.6384 H         1 UNK         0.3116 
     86 H86        24.2411  -24.0607  -41.6603 H         1 UNK         0.0646 
     87 H87        26.2513  -22.6140  -41.7552 H         1 UNK         0.0847 
     88 H88        24.9457  -21.8888  -42.6759 H         1 UNK         0.0847 
     89 H89        26.2731  -22.6970  -43.5105 H         1 UNK         0.0847 
     90 H90        25.2819  -25.9446  -44.2876 H         1 UNK         0.3040 
     91 H91        27.8290  -26.8565  -43.3057 H         1 UNK         0.1015 
     92 H92        27.2632  -26.8245  -45.7269 H         1 UNK         0.0786 
     93 H93        25.9655  -27.9916  -45.4650 H         1 UNK         0.0786 
     94 H94        27.6414  -28.4602  -45.2145 H         1 UNK         0.0786 
     95 H95        24.5008  -27.9395  -42.7815 H         1 UNK         0.3172 
     96 H96        25.2454  -29.8227  -40.7610 H         1 UNK         0.0595 
     97 H97        25.6258  -31.2572  -42.8378 H         1 UNK         0.0839 
     98 H98        23.9708  -30.9236  -43.3445 H         1 UNK         0.0839 
     99 H99        24.2847  -31.8376  -41.8753 H         1 UNK         0.0839 
    100 H100       23.0838  -30.9576  -40.0307 H         1 UNK         0.2998 
    101 H101       20.6335  -29.7001  -40.7879 H         1 UNK         0.0822 
    102 H102       21.4080  -27.9521  -39.1641 H         1 UNK         0.0787 
    103 H103       20.0621  -28.8485  -38.4824 H         1 UNK         0.0787 
    104 H104       21.7020  -29.1904  -37.9429 H         1 UNK         0.0787 
    105 H105       18.8823  -30.8573  -40.0090 H         1 UNK         0.3055 
    106 H106       17.6213  -32.5532  -39.4620 H         1 UNK         0.1106 
    107 H107       19.7546  -33.3925  -37.4244 H         1 UNK         0.0828 
    108 H108       18.3944  -32.3151  -37.1283 H         1 UNK         0.0828 
    109 H109       18.1111  -34.0045  -37.5100 H         1 UNK         0.0828 
    110 H110       20.9065  -33.9433  -39.4356 H         1 UNK         0.2931 
    111 H111       21.8817  -35.6631  -40.4171 H         1 UNK         0.0412 
    112 H112       19.1222  -38.1019  -39.3536 H         1 UNK         0.3472 
    113 H113       19.4048  -36.4664  -38.8079 H         1 UNK         0.3472 
    114 H114       20.0539  -35.0268  -42.7793 H         1 UNK         0.0970 
    115 H115       21.5028  -35.9969  -42.8757 H         1 UNK         0.0970 
    116 H116       21.0153  -34.0113  -44.7269 H         1 UNK         0.0612 
    117 H117       22.5619  -33.2191  -44.8506 H         1 UNK         0.0612 
@<TRIPOS>BOND
     1    1    2 1    
     2    1   62 1    
     3    1   63 1    
     4    1   64 1    
     5    2    3 2    
     6    2    4 am   BACKBONE|DICT|INTERRES
     7    4    5 1    
     8    4   65 1    
     9    5    6 1    
    10    5   25 1    
    11    5   66 1    
    12    6    7 1    
    13    6   67 1    
    14    6   68 1    
    15    7    8 1    
    16    8    9 1    
    17    8   69 1    
    18    8   70 1    
    19    9   10 ar   
    20    9   14 ar   
    21   10   11 ar   
    22   10   71 1    
    23   11   12 ar   
    24   11   61 1    
    25   12   13 ar   
    26   12   72 1    
    27   13   14 ar   
    28   13   15 1    
    29   14   73 1    
    30   15   16 1    
    31   15   74 1    
    32   15   75 1    
    33   16   17 1    
    34   17   18 1    
    35   17   76 1    
    36   17   77 1    
    37   18   19 1    
    38   18   27 1    
    39   18   78 1    
    40   19   20 am   BACKBONE|DICT|INTERRES
    41   19   79 1    
    42   20   21 2    
    43   20   22 1    
    44   22   23 1    
    45   22   24 1    
    46   22   80 1    
    47   23   81 1    
    48   23   82 1    
    49   23   83 1    
    50   24   25 am   BACKBONE|DICT|INTERRES
    51   24   84 1    
    52   25   26 2    
    53   27   28 2    
    54   27   29 am   BACKBONE|DICT|INTERRES
    55   29   30 1    
    56   29   85 1    
    57   30   31 1    
    58   30   32 1    
    59   30   86 1    
    60   31   87 1    
    61   31   88 1    
    62   31   89 1    
    63   32   33 2    
    64   32   34 am   BACKBONE|DICT|INTERRES
    65   34   35 1    
    66   34   90 1    
    67   35   36 1    
    68   35   37 1    
    69   35   91 1    
    70   36   92 1    
    71   36   93 1    
    72   36   94 1    
    73   37   38 2    
    74   37   39 am   BACKBONE|DICT|INTERRES
    75   39   40 1    
    76   39   95 1    
    77   40   41 1    
    78   40   42 1    
    79   40   96 1    
    80   41   97 1    
    81   41   98 1    
    82   41   99 1    
    83   42   43 2    
    84   42   44 am   BACKBONE|DICT|INTERRES
    85   44   45 1    
    86   44  100 1    
    87   45   46 1    
    88   45   47 1    
    89   45  101 1    
    90   46  102 1    
    91   46  103 1    
    92   46  104 1    
    93   47   48 2    
    94   47   49 am   BACKBONE|DICT|INTERRES
    95   49   50 1    
    96   49  105 1    
    97   50   51 1    
    98   50   52 1    
    99   50  106 1    
   100   51  107 1    
   101   51  108 1    
   102   51  109 1    
   103   52   53 2    
   104   52   54 am   BACKBONE|DICT|INTERRES
   105   54   55 1    
   106   54  110 1    
   107   55   56 1    
   108   55   59 1    
   109   55  111 1    
   110   56   57 am   BACKBONE|DICT|INTERRES
   111   56   58 2    
   112   57  112 1    
   113   57  113 1    
   114   59   60 1    
   115   59  114 1    
   116   59  115 1    
   117   60   61 1    
   118   61  116 1    
   119   61  117 1    
@<TRIPOS>SUBSTRUCTURE
     1 UNK         1 GROUP             0       ****    0 ROOT    
