@<TRIPOS>MOLECULE
3R8
117   119    1
SMALL
USER_CHARGES


@<TRIPOS>ATOM
      1 CA         15.1409  -22.8297  -46.7135 C.3       0 UNK        -0.2013 
      2 C          16.2298  -23.8147  -46.3176 C.2       0 UNK         0.4866 
      3 O          17.2164  -23.9631  -47.0396 O.2       0 UNK        -0.5176 
      4 N          16.0739  -24.4793  -45.1657 N.am      1 UNK        -0.4884 
      5 CA         16.9810  -25.5023  -44.6236 C.3       1 UNK         0.0853 
      6 C6         16.2398  -26.4510  -43.6447 C.3       10 UNK        -0.0849 
      7 S7         15.0106  -27.4770  -44.5198 S.3       10 UNK        -0.2776 
      8 C8         15.2173  -29.1002  -43.7021 C.3       10 UNK         0.0316 
      9 C9         16.6016  -29.7456  -43.8201 C.ar      10 UNK        -0.0863 
     10 C10        16.9688  -30.7054  -42.8721 C.ar      10 UNK        -0.1009 
     11 C11        18.2057  -31.3514  -42.9456 C.ar      10 UNK        -0.0712 
     12 C12        19.1001  -31.0076  -43.9622 C.ar      10 UNK        -0.0894 
     13 C13        18.7578  -30.0467  -44.9194 C.ar      10 UNK        -0.0745 
     14 C14        17.4966  -29.4391  -44.8542 C.ar      10 UNK        -0.0972 
     15 C15        19.7465  -29.7245  -46.0387 C.3       10 UNK         0.0209 
     16 S16        19.7554  -27.9649  -46.5296 S.3       10 UNK        -0.2568 
     17 C17        21.5430  -27.5710  -46.5684 C.3       10 UNK        -0.0983 
     18 CA         22.0071  -26.6863  -45.3832 C.3       3 UNK         0.0876 
     19 N          21.1712  -25.4906  -45.2604 N.am      3 UNK        -0.4424 
     20 C          21.3524  -24.4627  -44.4218 C.2       2 UNK         0.4918 
     21 O          22.3176  -24.3533  -43.6678 O.2       2 UNK        -0.4875 
     22 CA         20.2279  -23.4106  -44.3862 C.3       2 UNK         0.0481 
     23 CB         20.5470  -22.2463  -45.3357 C.3       2 UNK        -0.1831 
     24 N          18.9176  -23.9770  -44.7303 N.am      2 UNK        -0.4498 
     25 C          18.2642  -24.8970  -44.0066 C.2       1 UNK         0.5027 
     26 O          18.6709  -25.2925  -42.9138 O.2       1 UNK        -0.4969 
     27 C          22.1190  -27.5016  -44.0759 C.2       3 UNK         0.5005 
     28 O          23.1578  -28.1217  -43.8467 O.2       3 UNK        -0.5279 
     29 N          21.0860  -27.4561  -43.2182 N.am      4 UNK        -0.4463 
     30 CA         21.0470  -28.1432  -41.9227 C.3       4 UNK         0.0283 
     31 CB         19.6278  -28.0693  -41.3398 C.3       4 UNK        -0.1875 
     32 C          22.0808  -27.6164  -40.9095 C.2       4 UNK         0.4949 
     33 O          22.4006  -28.3279  -39.9580 O.2       4 UNK        -0.5039 
     34 N          22.6314  -26.4136  -41.1427 N.am      5 UNK        -0.4663 
     35 CA         23.7425  -25.8413  -40.3743 C.3       5 UNK         0.0242 
     36 CB         23.9439  -24.3737  -40.7822 C.3       5 UNK        -0.1982 
     37 C          25.0610  -26.6266  -40.5200 C.2       5 UNK         0.5017 
     38 O          25.9199  -26.5146  -39.6452 O.2       5 UNK        -0.5012 
     39 N          25.1912  -27.4276  -41.5898 N.am      6 UNK        -0.4439 
     40 CA         26.2920  -28.3744  -41.7921 C.3       6 UNK         0.0297 
     41 CB         26.4501  -28.6469  -43.2978 C.3       6 UNK        -0.2006 
     42 C          26.1051  -29.6950  -41.0145 C.2       6 UNK         0.4892 
     43 O          26.9964  -30.5435  -41.0727 O.2       6 UNK        -0.5089 
     44 N          24.9704  -29.8497  -40.3127 N.am      7 UNK        -0.4243 
     45 CA         24.5306  -31.0315  -39.5683 C.3       7 UNK         0.0196 
     46 CB         25.4928  -31.3510  -38.3997 C.3       7 UNK        -0.2007 
     47 C          24.2384  -32.2191  -40.5059 C.2       7 UNK         0.5020 
     48 O          23.7285  -32.0072  -41.6072 O.2       7 UNK        -0.5147 
     49 N          24.5147  -33.4439  -40.0333 N.am      8 UNK        -0.4734 
     50 CA         24.2544  -34.7374  -40.6870 C.3       8 UNK         0.0238 
     51 CB         25.0312  -34.8618  -42.0161 C.3       8 UNK        -0.1912 
     52 C          22.7563  -35.0786  -40.8439 C.2       8 UNK         0.5038 
     53 O          22.4195  -35.9818  -41.6116 O.2       8 UNK        -0.5046 
     54 N          21.8896  -34.3829  -40.0952 N.am      9 UNK        -0.4200 
     55 CA         20.4404  -34.6281  -40.0280 C.3       9 UNK         0.0839 
     56 C          20.0391  -35.8624  -39.1674 C.2       9 UNK         0.5513 
     57 N          20.9413  -36.4737  -38.4084 N.am      9 UNK        -0.7519 
     58 O          18.8837  -36.2781  -39.1958 O.2       9 UNK        -0.4960 
     59 C59        19.6633  -33.3617  -39.5770 C.3       10 UNK        -0.0876 
     60 S60        19.8064  -31.9689  -40.7494 S.3       10 UNK        -0.2414 
     61 C61        18.5448  -32.4631  -41.9637 C.3       10 UNK         0.0169 
     62 H62        14.7170  -23.1084  -47.6779 H         1 UNK         0.0903 
     63 H63        14.3320  -22.8002  -45.9836 H         1 UNK         0.0903 
     64 H64        15.5564  -21.8261  -46.8010 H         1 UNK         0.0903 
     65 H65        15.2500  -24.3015  -44.6083 H         1 UNK         0.3096 
     66 H66        17.3324  -26.1123  -45.4594 H         1 UNK         0.1121 
     67 H67        15.7416  -25.8861  -42.8550 H         1 UNK         0.0849 
     68 H68        16.9420  -27.1160  -43.1394 H         1 UNK         0.0849 
     69 H69        14.9584  -28.9796  -42.6488 H         1 UNK         0.0865 
     70 H70        14.4827  -29.7897  -44.1199 H         1 UNK         0.0865 
     71 H71        16.2763  -30.9700  -42.0844 H         1 UNK         0.1346 
     72 H72        20.0582  -31.5069  -44.0146 H         1 UNK         0.1412 
     73 H73        17.2141  -28.7252  -45.6141 H         1 UNK         0.1426 
     74 H74        19.4996  -30.3299  -46.9115 H         1 UNK         0.0716 
     75 H75        20.7498  -30.0224  -45.7316 H         1 UNK         0.0716 
     76 H76        22.1404  -28.4819  -46.6386 H         1 UNK         0.0695 
     77 H77        21.7312  -27.0381  -47.5017 H         1 UNK         0.0695 
     78 H78        23.0178  -26.3376  -45.6069 H         1 UNK         0.0983 
     79 H79        20.3438  -25.4878  -45.8388 H         1 UNK         0.3095 
     80 H80        20.1711  -23.0191  -43.3685 H         1 UNK         0.0454 
     81 H81        21.5091  -21.7948  -45.0893 H         1 UNK         0.0851 
     82 H82        20.5963  -22.5727  -46.3753 H         1 UNK         0.0851 
     83 H83        19.7949  -21.4604  -45.2662 H         1 UNK         0.0851 
     84 H84        18.5142  -23.7227  -45.6283 H         1 UNK         0.2976 
     85 H85        20.2797  -26.8929  -43.4542 H         1 UNK         0.3116 
     86 H86        21.2795  -29.1950  -42.1044 H         1 UNK         0.0646 
     87 H87        19.5498  -28.6746  -40.4358 H         1 UNK         0.0847 
     88 H88        18.8877  -28.4487  -42.0443 H         1 UNK         0.0847 
     89 H89        19.3513  -27.0493  -41.0725 H         1 UNK         0.0847 
     90 H90        22.3235  -25.8873  -41.9514 H         1 UNK         0.3040 
     91 H91        23.4647  -25.8688  -39.3182 H         1 UNK         0.1015 
     92 H92        23.0257  -23.7972  -40.6676 H         1 UNK         0.0786 
     93 H93        24.2695  -24.2850  -41.8193 H         1 UNK         0.0786 
     94 H94        24.7048  -23.8980  -40.1619 H         1 UNK         0.0786 
     95 H95        24.4309  -27.4767  -42.2609 H         1 UNK         0.3172 
     96 H96        27.2174  -27.9168  -41.4364 H         1 UNK         0.0595 
     97 H97        27.3311  -29.2599  -43.4925 H         1 UNK         0.0839 
     98 H98        26.5691  -27.7218  -43.8619 H         1 UNK         0.0839 
     99 H99        25.5901  -29.1811  -43.7030 H         1 UNK         0.0839 
    100 H100       24.2799  -29.1088  -40.3573 H         1 UNK         0.2998 
    101 H101       23.5687  -30.7586  -39.1316 H         1 UNK         0.0822 
    102 H102       25.7021  -30.4576  -37.8111 H         1 UNK         0.0787 
    103 H103       25.0607  -32.0822  -37.7158 H         1 UNK         0.0787 
    104 H104       26.4478  -31.7454  -38.7494 H         1 UNK         0.0787 
    105 H105       24.9344  -33.5008  -39.1149 H         1 UNK         0.3055 
    106 H106       24.6522  -35.4969  -40.0119 H         1 UNK         0.1106 
    107 H107       24.6311  -34.2003  -42.7849 H         1 UNK         0.0828 
    108 H108       26.0864  -34.6229  -41.8836 H         1 UNK         0.0828 
    109 H109       24.9780  -35.8785  -42.4073 H         1 UNK         0.0828 
    110 H110       22.2490  -33.6541  -39.4986 H         1 UNK         0.2931 
    111 H111       20.1068  -34.8677  -41.0393 H         1 UNK         0.0412 
    112 H112       21.8922  -36.1440  -38.3732 H         1 UNK         0.3472 
    113 H113       20.6644  -37.2740  -37.8611 H         1 UNK         0.3472 
    114 H114       18.6030  -33.5817  -39.4375 H         1 UNK         0.0970 
    115 H115       20.0221  -33.0270  -38.6022 H         1 UNK         0.0970 
    116 H116       17.6437  -32.7840  -41.4389 H         1 UNK         0.0612 
    117 H117       18.9027  -33.3328  -42.5163 H         1 UNK         0.0612 
@<TRIPOS>BOND
     1    1    2 1    
     2    1   62 1    
     3    1   63 1    
     4    1   64 1    
     5    2    3 2    
     6    2    4 am   BACKBONE|DICT|INTERRES
     7    4    5 1    
     8    4   65 1    
     9    5    6 1    
    10    5   25 1    
    11    5   66 1    
    12    6    7 1    
    13    6   67 1    
    14    6   68 1    
    15    7    8 1    
    16    8    9 1    
    17    8   69 1    
    18    8   70 1    
    19    9   10 ar   
    20    9   14 ar   
    21   10   11 ar   
    22   10   71 1    
    23   11   12 ar   
    24   11   61 1    
    25   12   13 ar   
    26   12   72 1    
    27   13   14 ar   
    28   13   15 1    
    29   14   73 1    
    30   15   16 1    
    31   15   74 1    
    32   15   75 1    
    33   16   17 1    
    34   17   18 1    
    35   17   76 1    
    36   17   77 1    
    37   18   19 1    
    38   18   27 1    
    39   18   78 1    
    40   19   20 am   BACKBONE|DICT|INTERRES
    41   19   79 1    
    42   20   21 2    
    43   20   22 1    
    44   22   23 1    
    45   22   24 1    
    46   22   80 1    
    47   23   81 1    
    48   23   82 1    
    49   23   83 1    
    50   24   25 am   BACKBONE|DICT|INTERRES
    51   24   84 1    
    52   25   26 2    
    53   27   28 2    
    54   27   29 am   BACKBONE|DICT|INTERRES
    55   29   30 1    
    56   29   85 1    
    57   30   31 1    
    58   30   32 1    
    59   30   86 1    
    60   31   87 1    
    61   31   88 1    
    62   31   89 1    
    63   32   33 2    
    64   32   34 am   BACKBONE|DICT|INTERRES
    65   34   35 1    
    66   34   90 1    
    67   35   36 1    
    68   35   37 1    
    69   35   91 1    
    70   36   92 1    
    71   36   93 1    
    72   36   94 1    
    73   37   38 2    
    74   37   39 am   BACKBONE|DICT|INTERRES
    75   39   40 1    
    76   39   95 1    
    77   40   41 1    
    78   40   42 1    
    79   40   96 1    
    80   41   97 1    
    81   41   98 1    
    82   41   99 1    
    83   42   43 2    
    84   42   44 am   BACKBONE|DICT|INTERRES
    85   44   45 1    
    86   44  100 1    
    87   45   46 1    
    88   45   47 1    
    89   45  101 1    
    90   46  102 1    
    91   46  103 1    
    92   46  104 1    
    93   47   48 2    
    94   47   49 am   BACKBONE|DICT|INTERRES
    95   49   50 1    
    96   49  105 1    
    97   50   51 1    
    98   50   52 1    
    99   50  106 1    
   100   51  107 1    
   101   51  108 1    
   102   51  109 1    
   103   52   53 2    
   104   52   54 am   BACKBONE|DICT|INTERRES
   105   54   55 1    
   106   54  110 1    
   107   55   56 1    
   108   55   59 1    
   109   55  111 1    
   110   56   57 am   BACKBONE|DICT|INTERRES
   111   56   58 2    
   112   57  112 1    
   113   57  113 1    
   114   59   60 1    
   115   59  114 1    
   116   59  115 1    
   117   60   61 1    
   118   61  116 1    
   119   61  117 1    
@<TRIPOS>SUBSTRUCTURE
     1 UNK         1 GROUP             0       ****    0 ROOT    
