@<TRIPOS>MOLECULE
3R8
117   119    1
SMALL
USER_CHARGES


@<TRIPOS>ATOM
      1 CA         19.8159  -33.0794  -46.6943 C.3       0 UNK        -0.2013 
      2 C          19.0495  -31.7845  -46.9191 C.2       0 UNK         0.4866 
      3 O          18.7311  -31.4536  -48.0612 O.2       0 UNK        -0.5176 
      4 N          18.7648  -31.0520  -45.8339 N.am      1 UNK        -0.4884 
      5 CA         18.0741  -29.7527  -45.8069 C.3       1 UNK         0.0853 
      6 C6         16.5820  -29.8173  -46.2309 C.3       10 UNK        -0.0849 
      7 S7         15.6079  -30.8400  -45.0749 S.3       10 UNK        -0.2776 
      8 C8         14.7281  -29.5732  -44.0984 C.3       10 UNK         0.0316 
      9 C9         15.6664  -28.7301  -43.2416 C.ar      10 UNK        -0.0863 
     10 C10        16.3146  -29.2991  -42.1413 C.ar      10 UNK        -0.1009 
     11 C11        17.1728  -28.5327  -41.3453 C.ar      10 UNK        -0.0712 
     12 C12        17.3398  -27.1746  -41.6256 C.ar      10 UNK        -0.0894 
     13 C13        16.7153  -26.5973  -42.7337 C.ar      10 UNK        -0.0745 
     14 C14        15.8787  -27.3792  -43.5379 C.ar      10 UNK        -0.0972 
     15 C15        16.9472  -25.1313  -43.0682 C.3       10 UNK         0.0209 
     16 S16        18.2709  -24.9295  -44.3033 S.3       10 UNK        -0.2568 
     17 C17        19.7917  -24.9031  -43.2869 C.3       10 UNK        -0.0983 
     18 CA         20.4647  -26.2978  -43.1181 C.3       3 UNK         0.0876 
     19 N          20.6426  -27.0443  -44.3610 N.am      3 UNK        -0.4424 
     20 C          21.3062  -26.6845  -45.4674 C.2       2 UNK         0.4918 
     21 O          21.9938  -25.6676  -45.5613 O.2       2 UNK        -0.4875 
     22 CA         21.1329  -27.6065  -46.6971 C.3       2 UNK         0.0481 
     23 CB         22.4705  -28.1666  -47.2105 C.3       2 UNK        -0.1831 
     24 N          20.2129  -28.7164  -46.4202 N.am      2 UNK        -0.4498 
     25 C          18.8759  -28.6382  -46.5169 C.2       1 UNK         0.5027 
     26 O          18.2887  -27.7095  -47.0737 O.2       1 UNK        -0.4969 
     27 C          21.7517  -26.3109  -42.2727 C.2       3 UNK         0.5005 
     28 O          22.3088  -27.3875  -42.0615 O.2       3 UNK        -0.5279 
     29 N          22.1632  -25.1537  -41.7332 N.am      4 UNK        -0.4463 
     30 CA         23.3411  -24.9139  -40.8808 C.3       4 UNK         0.0283 
     31 CB         24.6427  -25.2822  -41.6230 C.3       4 UNK        -0.1875 
     32 C          23.3068  -25.5634  -39.4797 C.2       4 UNK         0.4949 
     33 O          24.1478  -25.2098  -38.6529 O.2       4 UNK        -0.5039 
     34 N          22.3525  -26.4731  -39.2274 N.am      5 UNK        -0.4663 
     35 CA         22.1684  -27.2663  -38.0034 C.3       5 UNK         0.0242 
     36 CB         21.7690  -26.3666  -36.8143 C.3       5 UNK        -0.1982 
     37 C          23.3846  -28.1669  -37.7073 C.2       5 UNK         0.5017 
     38 O          23.8500  -28.2368  -36.5680 O.2       5 UNK        -0.5012 
     39 N          23.8799  -28.8266  -38.7588 N.am      6 UNK        -0.4439 
     40 CA         25.0209  -29.7386  -38.7490 C.3       6 UNK         0.0297 
     41 CB         26.2964  -28.9568  -39.1260 C.3       6 UNK        -0.2006 
     42 C          24.7162  -30.9052  -39.7016 C.2       6 UNK         0.4892 
     43 O          23.5450  -31.1613  -39.9891 O.2       6 UNK        -0.5089 
     44 N          25.7575  -31.5737  -40.2201 N.am      7 UNK        -0.4243 
     45 CA         25.6700  -32.6818  -41.1881 C.3       7 UNK         0.0196 
     46 CB         27.0864  -33.2036  -41.4792 C.3       7 UNK        -0.2007 
     47 C          24.9410  -32.3391  -42.5063 C.2       7 UNK         0.5020 
     48 O          24.5063  -33.2459  -43.2156 O.2       7 UNK        -0.5147 
     49 N          24.7920  -31.0389  -42.7871 N.am      8 UNK        -0.4734 
     50 CA         23.9651  -30.4594  -43.8454 C.3       8 UNK         0.0238 
     51 CB         24.3171  -28.9661  -43.9571 C.3       8 UNK        -0.1912 
     52 C          22.4446  -30.6816  -43.6743 C.2       8 UNK         0.5038 
     53 O          21.7111  -30.4920  -44.6484 O.2       8 UNK        -0.5046 
     54 N          21.9854  -31.1025  -42.4864 N.am      9 UNK        -0.4200 
     55 CA         20.6082  -31.5682  -42.2626 C.3       9 UNK         0.0839 
     56 C          20.4360  -32.6478  -41.1590 C.2       9 UNK         0.5513 
     57 N          21.4068  -32.8923  -40.2896 N.am      9 UNK        -0.7519 
     58 O          19.4002  -33.3060  -41.1121 O.2       9 UNK        -0.4960 
     59 C59        19.5794  -30.4151  -42.1527 C.3       10 UNK        -0.0876 
     60 S60        19.7137  -29.3917  -40.6442 S.3       10 UNK        -0.2414 
     61 C61        17.9545  -29.1774  -40.2080 C.3       10 UNK         0.0169 
     62 H62        20.7307  -33.0800  -47.2863 H         1 UNK         0.0903 
     63 H63        20.0926  -33.2148  -45.6489 H         1 UNK         0.0903 
     64 H64        19.2103  -33.9322  -47.0000 H         1 UNK         0.0903 
     65 H65        19.0709  -31.3930  -44.9348 H         1 UNK         0.3096 
     66 H66        18.0762  -29.4422  -44.7615 H         1 UNK         0.1121 
     67 H67        16.1367  -28.8215  -46.2657 H         1 UNK         0.0849 
     68 H68        16.4812  -30.2244  -47.2378 H         1 UNK         0.0849 
     69 H69        14.1403  -28.9441  -44.7688 H         1 UNK         0.0865 
     70 H70        14.0083  -30.0718  -43.4476 H         1 UNK         0.0865 
     71 H71        16.1671  -30.3478  -41.9214 H         1 UNK         0.1346 
     72 H72        17.9908  -26.5775  -41.0018 H         1 UNK         0.1412 
     73 H73        15.3926  -26.9316  -44.3943 H         1 UNK         0.1426 
     74 H74        17.1764  -24.5571  -42.1694 H         1 UNK         0.0716 
     75 H75        16.0284  -24.7031  -43.4714 H         1 UNK         0.0716 
     76 H76        19.5489  -24.4720  -42.3143 H         1 UNK         0.0695 
     77 H77        20.4811  -24.2064  -43.7670 H         1 UNK         0.0695 
     78 H78        19.7779  -26.9119  -42.5418 H         1 UNK         0.0983 
     79 H79        20.1734  -27.9339  -44.3890 H         1 UNK         0.3095 
     80 H80        20.7180  -26.9825  -47.4911 H         1 UNK         0.0454 
     81 H81        22.8682  -28.9456  -46.5629 H         1 UNK         0.0851 
     82 H82        23.2261  -27.3842  -47.2922 H         1 UNK         0.0851 
     83 H83        22.3511  -28.6017  -48.2026 H         1 UNK         0.0851 
     84 H84        20.6216  -29.5237  -45.9543 H         1 UNK         0.2976 
     85 H85        21.6135  -24.3291  -41.9318 H         1 UNK         0.3116 
     86 H86        23.3592  -23.8367  -40.7082 H         1 UNK         0.0646 
     87 H87        24.7357  -26.3579  -41.7719 H         1 UNK         0.0847 
     88 H88        25.5182  -24.9608  -41.0574 H         1 UNK         0.0847 
     89 H89        24.6946  -24.8017  -42.5999 H         1 UNK         0.0847 
     90 H90        21.7730  -26.7409  -40.0124 H         1 UNK         0.3040 
     91 H91        21.3338  -27.9427  -38.1964 H         1 UNK         0.1015 
     92 H92        22.5758  -25.6933  -36.5235 H         1 UNK         0.0786 
     93 H93        21.5173  -26.9671  -35.9392 H         1 UNK         0.0786 
     94 H94        20.8951  -25.7604  -37.0523 H         1 UNK         0.0786 
     95 H95        23.3863  -28.7641  -39.6403 H         1 UNK         0.3172 
     96 H96        25.1433  -30.1661  -37.7519 H         1 UNK         0.0595 
     97 H97        27.1921  -29.5690  -39.0182 H         1 UNK         0.0839 
     98 H98        26.4299  -28.0903  -38.4777 H         1 UNK         0.0839 
     99 H99        26.2598  -28.5938  -40.1541 H         1 UNK         0.0839 
    100 H100       26.6880  -31.3006  -39.9382 H         1 UNK         0.2998 
    101 H101       25.1000  -33.4829  -40.7127 H         1 UNK         0.0822 
    102 H102       27.0584  -34.0476  -42.1701 H         1 UNK         0.0787 
    103 H103       27.7145  -32.4342  -41.9305 H         1 UNK         0.0787 
    104 H104       27.5778  -33.5501  -40.5698 H         1 UNK         0.0787 
    105 H105       25.2023  -30.3836  -42.1392 H         1 UNK         0.3055 
    106 H106       24.2320  -30.9446  -44.7867 H         1 UNK         0.1106 
    107 H107       23.5562  -28.4020  -44.4929 H         1 UNK         0.0828 
    108 H108       24.4161  -28.5020  -42.9769 H         1 UNK         0.0828 
    109 H109       25.2602  -28.8234  -44.4842 H         1 UNK         0.0828 
    110 H110       22.6249  -31.1956  -41.7051 H         1 UNK         0.2931 
    111 H111       20.3431  -32.1176  -43.1685 H         1 UNK         0.0412 
    112 H112       22.2298  -32.2977  -40.2272 H         1 UNK         0.3472 
    113 H113       21.2650  -33.6113  -39.5988 H         1 UNK         0.3472 
    114 H114       18.5774  -30.8389  -42.2172 H         1 UNK         0.0970 
    115 H115       19.6718  -29.7477  -43.0076 H         1 UNK         0.0970 
    116 H116       17.5297  -30.1474  -39.9452 H         1 UNK         0.0612 
    117 H117       17.8826  -28.5557  -39.3147 H         1 UNK         0.0612 
@<TRIPOS>BOND
     1    1    2 1    
     2    1   62 1    
     3    1   63 1    
     4    1   64 1    
     5    2    3 2    
     6    2    4 am   BACKBONE|DICT|INTERRES
     7    4    5 1    
     8    4   65 1    
     9    5    6 1    
    10    5   25 1    
    11    5   66 1    
    12    6    7 1    
    13    6   67 1    
    14    6   68 1    
    15    7    8 1    
    16    8    9 1    
    17    8   69 1    
    18    8   70 1    
    19    9   10 ar   
    20    9   14 ar   
    21   10   11 ar   
    22   10   71 1    
    23   11   12 ar   
    24   11   61 1    
    25   12   13 ar   
    26   12   72 1    
    27   13   14 ar   
    28   13   15 1    
    29   14   73 1    
    30   15   16 1    
    31   15   74 1    
    32   15   75 1    
    33   16   17 1    
    34   17   18 1    
    35   17   76 1    
    36   17   77 1    
    37   18   19 1    
    38   18   27 1    
    39   18   78 1    
    40   19   20 am   BACKBONE|DICT|INTERRES
    41   19   79 1    
    42   20   21 2    
    43   20   22 1    
    44   22   23 1    
    45   22   24 1    
    46   22   80 1    
    47   23   81 1    
    48   23   82 1    
    49   23   83 1    
    50   24   25 am   BACKBONE|DICT|INTERRES
    51   24   84 1    
    52   25   26 2    
    53   27   28 2    
    54   27   29 am   BACKBONE|DICT|INTERRES
    55   29   30 1    
    56   29   85 1    
    57   30   31 1    
    58   30   32 1    
    59   30   86 1    
    60   31   87 1    
    61   31   88 1    
    62   31   89 1    
    63   32   33 2    
    64   32   34 am   BACKBONE|DICT|INTERRES
    65   34   35 1    
    66   34   90 1    
    67   35   36 1    
    68   35   37 1    
    69   35   91 1    
    70   36   92 1    
    71   36   93 1    
    72   36   94 1    
    73   37   38 2    
    74   37   39 am   BACKBONE|DICT|INTERRES
    75   39   40 1    
    76   39   95 1    
    77   40   41 1    
    78   40   42 1    
    79   40   96 1    
    80   41   97 1    
    81   41   98 1    
    82   41   99 1    
    83   42   43 2    
    84   42   44 am   BACKBONE|DICT|INTERRES
    85   44   45 1    
    86   44  100 1    
    87   45   46 1    
    88   45   47 1    
    89   45  101 1    
    90   46  102 1    
    91   46  103 1    
    92   46  104 1    
    93   47   48 2    
    94   47   49 am   BACKBONE|DICT|INTERRES
    95   49   50 1    
    96   49  105 1    
    97   50   51 1    
    98   50   52 1    
    99   50  106 1    
   100   51  107 1    
   101   51  108 1    
   102   51  109 1    
   103   52   53 2    
   104   52   54 am   BACKBONE|DICT|INTERRES
   105   54   55 1    
   106   54  110 1    
   107   55   56 1    
   108   55   59 1    
   109   55  111 1    
   110   56   57 am   BACKBONE|DICT|INTERRES
   111   56   58 2    
   112   57  112 1    
   113   57  113 1    
   114   59   60 1    
   115   59  114 1    
   116   59  115 1    
   117   60   61 1    
   118   61  116 1    
   119   61  117 1    
@<TRIPOS>SUBSTRUCTURE
     1 UNK         1 GROUP             0       ****    0 ROOT    
