@<TRIPOS>MOLECULE
3R8
117   119    1
SMALL
USER_CHARGES


@<TRIPOS>ATOM
      1 CA         15.0567  -22.5680  -42.9498 C.3       0 UNK        -0.2013 
      2 C          14.9522  -23.8402  -43.7776 C.2       0 UNK         0.4866 
      3 O          13.8885  -24.1284  -44.3266 O.2       0 UNK        -0.5176 
      4 N          16.0470  -24.6002  -43.8741 N.am      1 UNK        -0.4884 
      5 CA         16.1703  -25.8276  -44.6592 C.3       1 UNK         0.0853 
      6 C6         15.4638  -27.0389  -43.9918 C.3       10 UNK        -0.0849 
      7 S7         14.9561  -28.3071  -45.2067 S.3       10 UNK        -0.2776 
      8 C8         15.0035  -29.8324  -44.2128 C.3       10 UNK         0.0316 
      9 C9         16.4280  -30.2600  -43.8923 C.ar      10 UNK        -0.0863 
     10 C10        17.1774  -30.9815  -44.8287 C.ar      10 UNK        -0.1009 
     11 C11        18.4841  -31.3813  -44.5318 C.ar      10 UNK        -0.0712 
     12 C12        19.0390  -31.0404  -43.2967 C.ar      10 UNK        -0.0894 
     13 C13        18.3046  -30.3198  -42.3547 C.ar      10 UNK        -0.0745 
     14 C14        16.9934  -29.9442  -42.6526 C.ar      10 UNK        -0.0972 
     15 C15        18.9218  -29.9589  -41.0122 C.3       10 UNK         0.0209 
     16 S16        19.6105  -28.2728  -41.0096 S.3       10 UNK        -0.2568 
     17 C17        21.1937  -28.4968  -41.8985 C.3       10 UNK        -0.0983 
     18 CA         21.5059  -27.4210  -42.9741 C.3       3 UNK         0.0876 
     19 N          20.4627  -27.2623  -43.9840 N.am      3 UNK        -0.4424 
     20 C          20.3202  -28.0205  -45.0735 C.2       2 UNK         0.4918 
     21 O          20.9902  -29.0333  -45.2813 O.2       2 UNK        -0.4875 
     22 CA         19.3050  -27.5393  -46.1346 C.3       2 UNK         0.0481 
     23 CB         19.1144  -28.5473  -47.2826 C.3       2 UNK        -0.1831 
     24 N          17.9854  -27.1884  -45.6022 N.am      2 UNK        -0.4498 
     25 C          17.6657  -26.0594  -44.9602 C.2       1 UNK         0.5027 
     26 O          18.4980  -25.2086  -44.6315 O.2       1 UNK        -0.4969 
     27 C          21.8055  -26.0365  -42.3755 C.2       3 UNK         0.5005 
     28 O          20.8940  -25.2156  -42.2393 O.2       3 UNK        -0.5279 
     29 N          23.0764  -25.7989  -42.0384 N.am      4 UNK        -0.4463 
     30 CA         23.6027  -24.5711  -41.4480 C.3       4 UNK         0.0283 
     31 CB         23.5768  -23.4062  -42.4572 C.3       4 UNK        -0.1875 
     32 C          25.0379  -24.8667  -41.0105 C.2       4 UNK         0.4949 
     33 O          25.7530  -25.5566  -41.7409 O.2       4 UNK        -0.5039 
     34 N          25.4259  -24.3692  -39.8283 N.am      5 UNK        -0.4663 
     35 CA         26.7135  -24.5503  -39.1306 C.3       5 UNK         0.0242 
     36 CB         27.8890  -23.9909  -39.9566 C.3       5 UNK        -0.1982 
     37 C          27.0023  -25.9925  -38.6633 C.2       5 UNK         0.5017 
     38 O          27.4989  -26.1741  -37.5510 O.2       5 UNK        -0.5012 
     39 N          26.6706  -26.9812  -39.4965 N.am      6 UNK        -0.4439 
     40 CA         26.7105  -28.4123  -39.2250 C.3       6 UNK         0.0297 
     41 CB         27.9368  -29.0247  -39.9227 C.3       6 UNK        -0.2006 
     42 C          25.4108  -29.0464  -39.7402 C.2       6 UNK         0.4892 
     43 O          24.7309  -28.4639  -40.5914 O.2       6 UNK        -0.5089 
     44 N          25.0948  -30.2335  -39.2112 N.am      7 UNK        -0.4243 
     45 CA         23.9372  -31.0381  -39.6030 C.3       7 UNK         0.0196 
     46 CB         23.6770  -32.0940  -38.5148 C.3       7 UNK        -0.2007 
     47 C          24.1328  -31.7118  -40.9727 C.2       7 UNK         0.5020 
     48 O          25.2644  -31.8868  -41.4307 O.2       7 UNK        -0.5147 
     49 N          23.0144  -32.1208  -41.5737 N.am      8 UNK        -0.4734 
     50 CA         22.9253  -32.8718  -42.8230 C.3       8 UNK         0.0238 
     51 CB         23.0033  -31.9037  -44.0197 C.3       8 UNK        -0.1912 
     52 C          21.6156  -33.6753  -42.7987 C.2       8 UNK         0.5038 
     53 O          20.8297  -33.5127  -41.8601 O.2       8 UNK        -0.5046 
     54 N          21.3996  -34.5199  -43.8172 N.am      9 UNK        -0.4200 
     55 CA         20.2270  -35.4085  -43.9579 C.3       9 UNK         0.0839 
     56 C          20.1297  -36.5242  -42.8680 C.2       9 UNK         0.5513 
     57 N          21.2094  -36.8648  -42.1737 N.am      9 UNK        -0.7519 
     58 O          19.0745  -37.1214  -42.6701 O.2       9 UNK        -0.4960 
     59 C59        18.8903  -34.6268  -44.1540 C.3       10 UNK        -0.0876 
     60 S60        18.7430  -33.8605  -45.8052 S.3       10 UNK        -0.2414 
     61 C61        19.3179  -32.1526  -45.5465 C.3       10 UNK         0.0169 
     62 H62        14.3354  -22.5915  -42.1334 H         1 UNK         0.0903 
     63 H63        16.0504  -22.4414  -42.5203 H         1 UNK         0.0903 
     64 H64        14.8419  -21.6980  -43.5697 H         1 UNK         0.0903 
     65 H65        16.9250  -24.2945  -43.4694 H         1 UNK         0.3096 
     66 H66        15.6973  -25.6323  -45.6247 H         1 UNK         0.1121 
     67 H67        16.0934  -27.4631  -43.2109 H         1 UNK         0.0849 
     68 H68        14.5522  -26.7168  -43.4866 H         1 UNK         0.0849 
     69 H69        14.5015  -30.6284  -44.7651 H         1 UNK         0.0865 
     70 H70        14.4260  -29.6902  -43.2979 H         1 UNK         0.0865 
     71 H71        16.7454  -31.2332  -45.7878 H         1 UNK         0.1346 
     72 H72        20.0511  -31.3312  -43.0678 H         1 UNK         0.1412 
     73 H73        16.4187  -29.3956  -41.9190 H         1 UNK         0.1426 
     74 H74        18.1605  -30.0260  -40.2336 H         1 UNK         0.0716 
     75 H75        19.6979  -30.6753  -40.7377 H         1 UNK         0.0716 
     76 H76        21.2064  -29.4771  -42.3717 H         1 UNK         0.0695 
     77 H77        21.9939  -28.5302  -41.1574 H         1 UNK         0.0695 
     78 H78        22.4144  -27.7345  -43.4943 H         1 UNK         0.0983 
     79 H79        19.9019  -26.4192  -43.8893 H         1 UNK         0.3095 
     80 H80        19.7377  -26.6382  -46.5739 H         1 UNK         0.0454 
     81 H81        18.6241  -29.4562  -46.9379 H         1 UNK         0.0851 
     82 H82        20.0692  -28.8339  -47.7253 H         1 UNK         0.0851 
     83 H83        18.5064  -28.1247  -48.0825 H         1 UNK         0.0851 
     84 H84        17.2445  -27.8593  -45.7631 H         1 UNK         0.2976 
     85 H85        23.7742  -26.5275  -42.1482 H         1 UNK         0.3116 
     86 H86        23.0000  -24.3156  -40.5740 H         1 UNK         0.0646 
     87 H87        24.0244  -22.5088  -42.0281 H         1 UNK         0.0847 
     88 H88        22.5595  -23.1469  -42.7497 H         1 UNK         0.0847 
     89 H89        24.1344  -23.6474  -43.3631 H         1 UNK         0.0847 
     90 H90        24.7418  -23.8364  -39.3072 H         1 UNK         0.3040 
     91 H91        26.6411  -23.9470  -38.2237 H         1 UNK         0.1015 
     92 H92        28.0537  -24.5581  -40.8731 H         1 UNK         0.0786 
     93 H93        28.8169  -24.0285  -39.3844 H         1 UNK         0.0786 
     94 H94        27.7203  -22.9498  -40.2318 H         1 UNK         0.0786 
     95 H95        26.2421  -26.7222  -40.3841 H         1 UNK         0.3172 
     96 H96        26.7760  -28.5882  -38.1491 H         1 UNK         0.0595 
     97 H97        27.8966  -28.8820  -41.0035 H         1 UNK         0.0839 
     98 H98        28.8626  -28.5775  -39.5603 H         1 UNK         0.0839 
     99 H99        28.0011  -30.0978  -39.7380 H         1 UNK         0.0839 
    100 H100       25.7315  -30.6546  -38.5503 H         1 UNK         0.2998 
    101 H101       23.0678  -30.3794  -39.6656 H         1 UNK         0.0822 
    102 H102       22.7925  -32.6894  -38.7455 H         1 UNK         0.0787 
    103 H103       24.5158  -32.7842  -38.4138 H         1 UNK         0.0787 
    104 H104       23.5056  -31.6293  -37.5435 H         1 UNK         0.0787 
    105 H105       22.1266  -32.0429  -41.0909 H         1 UNK         0.3055 
    106 H106       23.7515  -33.5847  -42.8741 H         1 UNK         0.1106 
    107 H107       22.9172  -32.4313  -44.9700 H         1 UNK         0.0828 
    108 H108       22.2144  -31.1527  -43.9878 H         1 UNK         0.0828 
    109 H109       23.9563  -31.3748  -44.0358 H         1 UNK         0.0828 
    110 H110       22.0975  -34.6053  -44.5419 H         1 UNK         0.2931 
    111 H111       20.4052  -35.9688  -44.8764 H         1 UNK         0.0412 
    112 H112       22.0901  -36.4034  -42.3335 H         1 UNK         0.3472 
    113 H113       21.1400  -37.5947  -41.4817 H         1 UNK         0.3472 
    114 H114       18.0350  -35.2996  -44.0761 H         1 UNK         0.0970 
    115 H115       18.7385  -33.8870  -43.3686 H         1 UNK         0.0970 
    116 H116       19.2894  -31.6337  -46.5042 H         1 UNK         0.0612 
    117 H117       20.3663  -32.1737  -45.2518 H         1 UNK         0.0612 
@<TRIPOS>BOND
     1    1    2 1    
     2    1   62 1    
     3    1   63 1    
     4    1   64 1    
     5    2    3 2    
     6    2    4 am   BACKBONE|DICT|INTERRES
     7    4    5 1    
     8    4   65 1    
     9    5    6 1    
    10    5   25 1    
    11    5   66 1    
    12    6    7 1    
    13    6   67 1    
    14    6   68 1    
    15    7    8 1    
    16    8    9 1    
    17    8   69 1    
    18    8   70 1    
    19    9   10 ar   
    20    9   14 ar   
    21   10   11 ar   
    22   10   71 1    
    23   11   12 ar   
    24   11   61 1    
    25   12   13 ar   
    26   12   72 1    
    27   13   14 ar   
    28   13   15 1    
    29   14   73 1    
    30   15   16 1    
    31   15   74 1    
    32   15   75 1    
    33   16   17 1    
    34   17   18 1    
    35   17   76 1    
    36   17   77 1    
    37   18   19 1    
    38   18   27 1    
    39   18   78 1    
    40   19   20 am   BACKBONE|DICT|INTERRES
    41   19   79 1    
    42   20   21 2    
    43   20   22 1    
    44   22   23 1    
    45   22   24 1    
    46   22   80 1    
    47   23   81 1    
    48   23   82 1    
    49   23   83 1    
    50   24   25 am   BACKBONE|DICT|INTERRES
    51   24   84 1    
    52   25   26 2    
    53   27   28 2    
    54   27   29 am   BACKBONE|DICT|INTERRES
    55   29   30 1    
    56   29   85 1    
    57   30   31 1    
    58   30   32 1    
    59   30   86 1    
    60   31   87 1    
    61   31   88 1    
    62   31   89 1    
    63   32   33 2    
    64   32   34 am   BACKBONE|DICT|INTERRES
    65   34   35 1    
    66   34   90 1    
    67   35   36 1    
    68   35   37 1    
    69   35   91 1    
    70   36   92 1    
    71   36   93 1    
    72   36   94 1    
    73   37   38 2    
    74   37   39 am   BACKBONE|DICT|INTERRES
    75   39   40 1    
    76   39   95 1    
    77   40   41 1    
    78   40   42 1    
    79   40   96 1    
    80   41   97 1    
    81   41   98 1    
    82   41   99 1    
    83   42   43 2    
    84   42   44 am   BACKBONE|DICT|INTERRES
    85   44   45 1    
    86   44  100 1    
    87   45   46 1    
    88   45   47 1    
    89   45  101 1    
    90   46  102 1    
    91   46  103 1    
    92   46  104 1    
    93   47   48 2    
    94   47   49 am   BACKBONE|DICT|INTERRES
    95   49   50 1    
    96   49  105 1    
    97   50   51 1    
    98   50   52 1    
    99   50  106 1    
   100   51  107 1    
   101   51  108 1    
   102   51  109 1    
   103   52   53 2    
   104   52   54 am   BACKBONE|DICT|INTERRES
   105   54   55 1    
   106   54  110 1    
   107   55   56 1    
   108   55   59 1    
   109   55  111 1    
   110   56   57 am   BACKBONE|DICT|INTERRES
   111   56   58 2    
   112   57  112 1    
   113   57  113 1    
   114   59   60 1    
   115   59  114 1    
   116   59  115 1    
   117   60   61 1    
   118   61  116 1    
   119   61  117 1    
@<TRIPOS>SUBSTRUCTURE
     1 UNK         1 GROUP             0       ****    0 ROOT    
