@<TRIPOS>MOLECULE
3R8
117   119    1
SMALL
USER_CHARGES


@<TRIPOS>ATOM
      1 CA         13.5009  -24.2163  -46.1872 C.3       0 UNK        -0.2013 
      2 C          14.9631  -24.5231  -46.4729 C.2       0 UNK         0.4866 
      3 O          15.7816  -23.6057  -46.5343 O.2       0 UNK        -0.5176 
      4 N          15.2995  -25.8077  -46.6469 N.am      1 UNK        -0.4884 
      5 CA         16.6620  -26.2914  -46.9117 C.3       1 UNK         0.0853 
      6 C6         16.6512  -27.7030  -47.5558 C.3       10 UNK        -0.0849 
      7 S7         15.7896  -28.9748  -46.5592 S.3       10 UNK        -0.2776 
      8 C8         17.0400  -30.2973  -46.4408 C.3       10 UNK         0.0316 
      9 C9         18.1226  -30.0015  -45.4098 C.ar      10 UNK        -0.0863 
     10 C10        17.8413  -30.1207  -44.0448 C.ar      10 UNK        -0.1009 
     11 C11        18.8368  -29.8919  -43.0893 C.ar      10 UNK        -0.0712 
     12 C12        20.1294  -29.5750  -43.5120 C.ar      10 UNK        -0.0894 
     13 C13        20.4208  -29.4248  -44.8707 C.ar      10 UNK        -0.0745 
     14 C14        19.4123  -29.6419  -45.8156 C.ar      10 UNK        -0.0972 
     15 C15        21.8269  -29.0462  -45.3196 C.3       10 UNK         0.0209 
     16 S16        22.1345  -27.2488  -45.2382 S.3       10 UNK        -0.2568 
     17 C17        22.4179  -26.9805  -43.4530 C.3       10 UNK        -0.0983 
     18 CA         21.3610  -26.0782  -42.7628 C.3       3 UNK         0.0876 
     19 N          19.9860  -26.4594  -43.0847 N.am      3 UNK        -0.4424 
     20 C          18.9063  -25.6935  -42.8952 C.2       2 UNK         0.4918 
     21 O          18.9482  -24.5158  -42.5328 O.2       2 UNK        -0.4875 
     22 CA         17.5475  -26.3781  -43.1356 C.3       2 UNK         0.0481 
     23 CB         16.5071  -25.9330  -42.0932 C.3       2 UNK        -0.1831 
     24 N          16.9729  -26.2125  -44.4743 N.am      2 UNK        -0.4498 
     25 C          17.5807  -26.2539  -45.6719 C.2       1 UNK         0.5027 
     26 O          18.7968  -26.2894  -45.8470 O.2       1 UNK        -0.4969 
     27 C          21.5641  -26.1204  -41.2352 C.2       3 UNK         0.5005 
     28 O          20.9727  -26.9731  -40.5663 O.2       3 UNK        -0.5279 
     29 N          22.4197  -25.2309  -40.7138 N.am      4 UNK        -0.4463 
     30 CA         22.7356  -25.1416  -39.2842 C.3       4 UNK         0.0283 
     31 CB         23.4787  -23.8254  -39.0024 C.3       4 UNK        -0.1875 
     32 C          23.5464  -26.3393  -38.7572 C.2       4 UNK         0.4949 
     33 O          23.3255  -26.7599  -37.6214 O.2       4 UNK        -0.5039 
     34 N          24.4669  -26.8569  -39.5805 N.am      5 UNK        -0.4663 
     35 CA         25.3602  -27.9671  -39.2523 C.3       5 UNK         0.0242 
     36 CB         26.4400  -27.5152  -38.2433 C.3       5 UNK        -0.1982 
     37 C          25.9629  -28.5222  -40.5497 C.2       5 UNK         0.5017 
     38 O          27.1568  -28.3449  -40.8000 O.2       5 UNK        -0.5012 
     39 N          25.1210  -29.1548  -41.3715 N.am      6 UNK        -0.4439 
     40 CA         25.5020  -29.8492  -42.5983 C.3       6 UNK         0.0297 
     41 CB         25.6890  -28.8557  -43.7605 C.3       6 UNK        -0.2006 
     42 C          24.4287  -30.8952  -42.9152 C.2       6 UNK         0.4892 
     43 O          23.3204  -30.8158  -42.3769 O.2       6 UNK        -0.5089 
     44 N          24.7832  -31.8472  -43.7895 N.am      7 UNK        -0.4243 
     45 CA         24.0135  -33.0483  -44.1328 C.3       7 UNK         0.0196 
     46 CB         22.6925  -32.6840  -44.8538 C.3       7 UNK        -0.2007 
     47 C          23.8439  -33.9448  -42.8902 C.2       7 UNK         0.5020 
     48 O          24.8265  -34.1804  -42.1842 O.2       7 UNK        -0.5147 
     49 N          22.6222  -34.4247  -42.6325 N.am      8 UNK        -0.4734 
     50 CA         22.2768  -35.1783  -41.4230 C.3       8 UNK         0.0238 
     51 CB         21.0315  -36.0339  -41.7113 C.3       8 UNK        -0.1912 
     52 C          22.0334  -34.2745  -40.1983 C.2       8 UNK         0.5038 
     53 O          21.9997  -34.7852  -39.0776 O.2       8 UNK        -0.5046 
     54 N          21.8300  -32.9724  -40.4292 N.am      9 UNK        -0.4200 
     55 CA         21.4842  -31.9762  -39.4100 C.3       9 UNK         0.0839 
     56 C          22.7341  -31.4390  -38.6646 C.2       9 UNK         0.5513 
     57 N          22.5757  -31.0373  -37.4111 N.am      9 UNK        -0.7519 
     58 O          23.8299  -31.3448  -39.2121 O.2       9 UNK        -0.4960 
     59 C59        20.6559  -30.8205  -40.0247 C.3       10 UNK        -0.0876 
     60 S60        19.1019  -31.4204  -40.7777 S.3       10 UNK        -0.2414 
     61 C61        18.4974  -29.9197  -41.6046 C.3       10 UNK         0.0169 
     62 H62        12.8911  -25.1193  -46.1635 H         1 UNK         0.0903 
     63 H63        13.4037  -23.7160  -45.2240 H         1 UNK         0.0903 
     64 H64        13.0991  -23.5565  -46.9558 H         1 UNK         0.0903 
     65 H65        14.5912  -26.5276  -46.5921 H         1 UNK         0.3096 
     66 H66        17.1150  -25.6107  -47.6367 H         1 UNK         0.1121 
     67 H67        16.1543  -27.6520  -48.5258 H         1 UNK         0.0849 
     68 H68        17.6706  -28.0275  -47.7734 H         1 UNK         0.0849 
     69 H69        16.5364  -31.2248  -46.1642 H         1 UNK         0.0865 
     70 H70        17.4759  -30.4789  -47.4245 H         1 UNK         0.0865 
     71 H71        16.8395  -30.3774  -43.7281 H         1 UNK         0.1346 
     72 H72        20.9040  -29.4191  -42.7776 H         1 UNK         0.1412 
     73 H73        19.6354  -29.5373  -46.8685 H         1 UNK         0.1426 
     74 H74        21.9873  -29.3756  -46.3471 H         1 UNK         0.0716 
     75 H75        22.5673  -29.5749  -44.7211 H         1 UNK         0.0716 
     76 H76        23.4009  -26.5176  -43.3518 H         1 UNK         0.0695 
     77 H77        22.5064  -27.9457  -42.9536 H         1 UNK         0.0695 
     78 H78        21.5065  -25.0525  -43.1091 H         1 UNK         0.0983 
     79 H79        19.8622  -27.3926  -43.4522 H         1 UNK         0.3095 
     80 H80        17.6915  -27.4475  -42.9966 H         1 UNK         0.0454 
     81 H81        16.8974  -26.0423  -41.0803 H         1 UNK         0.0851 
     82 H82        16.2283  -24.8866  -42.2236 H         1 UNK         0.0851 
     83 H83        15.5992  -26.5333  -42.1533 H         1 UNK         0.0851 
     84 H84        15.9656  -26.1623  -44.5051 H         1 UNK         0.2976 
     85 H85        22.8705  -24.5624  -41.3230 H         1 UNK         0.3116 
     86 H86        21.7921  -25.1181  -38.7341 H         1 UNK         0.0646 
     87 H87        23.7035  -23.7258  -37.9394 H         1 UNK         0.0847 
     88 H88        22.8783  -22.9606  -39.2857 H         1 UNK         0.0847 
     89 H89        24.4257  -23.7696  -39.5405 H         1 UNK         0.0847 
     90 H90        24.5744  -26.4611  -40.5043 H         1 UNK         0.3040 
     91 H91        24.7766  -28.7694  -38.7950 H         1 UNK         0.1015 
     92 H92        26.0026  -27.2220  -37.2892 H         1 UNK         0.0786 
     93 H93        27.0151  -26.6690  -38.6211 H         1 UNK         0.0786 
     94 H94        27.1427  -28.3233  -38.0362 H         1 UNK         0.0786 
     95 H95        24.1655  -29.3342  -41.0827 H         1 UNK         0.3172 
     96 H96        26.4412  -30.3779  -42.4209 H         1 UNK         0.0595 
     97 H97        26.4195  -28.0842  -43.5176 H         1 UNK         0.0839 
     98 H98        24.7566  -28.3623  -44.0253 H         1 UNK         0.0839 
     99 H99        26.0473  -29.3641  -44.6562 H         1 UNK         0.0839 
    100 H100       25.7246  -31.8230  -44.1562 H         1 UNK         0.2998 
    101 H101       24.6259  -33.6167  -44.8344 H         1 UNK         0.0822 
    102 H102       21.9884  -32.1659  -44.2014 H         1 UNK         0.0787 
    103 H103       22.1942  -33.5739  -45.2401 H         1 UNK         0.0787 
    104 H104       22.8825  -32.0354  -45.7089 H         1 UNK         0.0787 
    105 H105       21.8664  -34.1922  -43.2614 H         1 UNK         0.3055 
    106 H106       23.1015  -35.8495  -41.1713 H         1 UNK         0.1106 
    107 H107       20.1658  -35.4178  -41.9582 H         1 UNK         0.0828 
    108 H108       21.2041  -36.7209  -42.5400 H         1 UNK         0.0828 
    109 H109       20.7633  -36.6381  -40.8434 H         1 UNK         0.0828 
    110 H110       21.9606  -32.6143  -41.3646 H         1 UNK         0.2931 
    111 H111       20.8515  -32.4683  -38.6678 H         1 UNK         0.0412 
    112 H112       23.3696  -30.6716  -36.9094 H         1 UNK         0.3472 
    113 H113       21.6806  -31.1014  -36.9514 H         1 UNK         0.3472 
    114 H114       21.2456  -30.2874  -40.7699 H         1 UNK         0.0970 
    115 H115       20.3983  -30.0846  -39.2604 H         1 UNK         0.0970 
    116 H116       18.9047  -29.0327  -41.1162 H         1 UNK         0.0612 
    117 H117       17.4164  -29.8660  -41.4670 H         1 UNK         0.0612 
@<TRIPOS>BOND
     1    1    2 1    
     2    1   62 1    
     3    1   63 1    
     4    1   64 1    
     5    2    3 2    
     6    2    4 am   BACKBONE|DICT|INTERRES
     7    4    5 1    
     8    4   65 1    
     9    5    6 1    
    10    5   25 1    
    11    5   66 1    
    12    6    7 1    
    13    6   67 1    
    14    6   68 1    
    15    7    8 1    
    16    8    9 1    
    17    8   69 1    
    18    8   70 1    
    19    9   10 ar   
    20    9   14 ar   
    21   10   11 ar   
    22   10   71 1    
    23   11   12 ar   
    24   11   61 1    
    25   12   13 ar   
    26   12   72 1    
    27   13   14 ar   
    28   13   15 1    
    29   14   73 1    
    30   15   16 1    
    31   15   74 1    
    32   15   75 1    
    33   16   17 1    
    34   17   18 1    
    35   17   76 1    
    36   17   77 1    
    37   18   19 1    
    38   18   27 1    
    39   18   78 1    
    40   19   20 am   BACKBONE|DICT|INTERRES
    41   19   79 1    
    42   20   21 2    
    43   20   22 1    
    44   22   23 1    
    45   22   24 1    
    46   22   80 1    
    47   23   81 1    
    48   23   82 1    
    49   23   83 1    
    50   24   25 am   BACKBONE|DICT|INTERRES
    51   24   84 1    
    52   25   26 2    
    53   27   28 2    
    54   27   29 am   BACKBONE|DICT|INTERRES
    55   29   30 1    
    56   29   85 1    
    57   30   31 1    
    58   30   32 1    
    59   30   86 1    
    60   31   87 1    
    61   31   88 1    
    62   31   89 1    
    63   32   33 2    
    64   32   34 am   BACKBONE|DICT|INTERRES
    65   34   35 1    
    66   34   90 1    
    67   35   36 1    
    68   35   37 1    
    69   35   91 1    
    70   36   92 1    
    71   36   93 1    
    72   36   94 1    
    73   37   38 2    
    74   37   39 am   BACKBONE|DICT|INTERRES
    75   39   40 1    
    76   39   95 1    
    77   40   41 1    
    78   40   42 1    
    79   40   96 1    
    80   41   97 1    
    81   41   98 1    
    82   41   99 1    
    83   42   43 2    
    84   42   44 am   BACKBONE|DICT|INTERRES
    85   44   45 1    
    86   44  100 1    
    87   45   46 1    
    88   45   47 1    
    89   45  101 1    
    90   46  102 1    
    91   46  103 1    
    92   46  104 1    
    93   47   48 2    
    94   47   49 am   BACKBONE|DICT|INTERRES
    95   49   50 1    
    96   49  105 1    
    97   50   51 1    
    98   50   52 1    
    99   50  106 1    
   100   51  107 1    
   101   51  108 1    
   102   51  109 1    
   103   52   53 2    
   104   52   54 am   BACKBONE|DICT|INTERRES
   105   54   55 1    
   106   54  110 1    
   107   55   56 1    
   108   55   59 1    
   109   55  111 1    
   110   56   57 am   BACKBONE|DICT|INTERRES
   111   56   58 2    
   112   57  112 1    
   113   57  113 1    
   114   59   60 1    
   115   59  114 1    
   116   59  115 1    
   117   60   61 1    
   118   61  116 1    
   119   61  117 1    
@<TRIPOS>SUBSTRUCTURE
     1 UNK         1 GROUP             0       ****    0 ROOT    
