@<TRIPOS>MOLECULE
3R8
117   119    1
SMALL
USER_CHARGES


@<TRIPOS>ATOM
      1 CA         13.3698  -23.8112  -44.4891 C.3       0 UNK        -0.2013 
      2 C          14.3968  -24.7618  -45.0860 C.2       0 UNK         0.4866 
      3 O          14.3451  -25.0430  -46.2835 O.2       0 UNK        -0.5176 
      4 N          15.3232  -25.2629  -44.2582 N.am      1 UNK        -0.4884 
      5 CA         16.3970  -26.1840  -44.6500 C.3       1 UNK         0.0853 
      6 C6         17.1685  -26.7192  -43.4201 C.3       10 UNK        -0.0849 
      7 S7         16.2183  -27.9063  -42.4146 S.3       10 UNK        -0.2776 
      8 C8         16.5758  -29.5071  -43.2216 C.3       10 UNK         0.0316 
      9 C9         18.0604  -29.7382  -43.4813 C.ar      10 UNK        -0.0863 
     10 C10        18.9541  -29.9075  -42.4180 C.ar      10 UNK        -0.1009 
     11 C11        20.3226  -30.1012  -42.6595 C.ar      10 UNK        -0.0712 
     12 C12        20.7787  -30.1265  -43.9799 C.ar      10 UNK        -0.0894 
     13 C13        19.9029  -29.9372  -45.0484 C.ar      10 UNK        -0.0745 
     14 C14        18.5415  -29.7575  -44.7941 C.ar      10 UNK        -0.0972 
     15 C15        20.4256  -29.9264  -46.4765 C.3       10 UNK         0.0209 
     16 S16        20.3306  -28.2675  -47.2211 S.3       10 UNK        -0.2568 
     17 C17        21.8699  -27.4423  -46.6719 C.3       10 UNK        -0.0983 
     18 CA         21.7008  -26.2912  -45.6308 C.3       3 UNK         0.0876 
     19 N          20.4961  -25.4859  -45.8794 N.am      3 UNK        -0.4424 
     20 C          20.3503  -24.1714  -45.6761 C.2       2 UNK         0.4918 
     21 O          21.2517  -23.4478  -45.2554 O.2       2 UNK        -0.4875 
     22 CA         18.9545  -23.5629  -45.9284 C.3       2 UNK         0.0481 
     23 CB         18.7150  -23.3066  -47.4291 C.3       2 UNK        -0.1831 
     24 N          17.8542  -24.3213  -45.3087 N.am      2 UNK        -0.4498 
     25 C          17.4023  -25.5451  -45.6263 C.2       1 UNK         0.5027 
     26 O          17.7905  -26.1903  -46.5986 O.2       1 UNK        -0.4969 
     27 C          21.8428  -26.7534  -44.1576 C.2       3 UNK         0.5005 
     28 O          22.6250  -27.6661  -43.8879 O.2       3 UNK        -0.5279 
     29 N          21.1141  -26.1091  -43.2306 N.am      4 UNK        -0.4463 
     30 CA         21.1021  -26.3635  -41.7840 C.3       4 UNK         0.0283 
     31 CB         20.1677  -25.3460  -41.1075 C.3       4 UNK        -0.1875 
     32 C          22.4876  -26.2999  -41.1124 C.2       4 UNK         0.4949 
     33 O          23.3744  -25.5910  -41.5936 O.2       4 UNK        -0.5039 
     34 N          22.6052  -27.0010  -39.9738 N.am      5 UNK        -0.4663 
     35 CA         23.8062  -27.1563  -39.1411 C.3       5 UNK         0.0242 
     36 CB         24.2577  -25.8053  -38.5439 C.3       5 UNK        -0.1982 
     37 C          24.9240  -27.8950  -39.8994 C.2       5 UNK         0.5017 
     38 O          26.0134  -27.3539  -40.0997 O.2       5 UNK        -0.5012 
     39 N          24.6094  -29.1244  -40.3170 N.am      6 UNK        -0.4439 
     40 CA         25.4846  -30.0397  -41.0408 C.3       6 UNK         0.0297 
     41 CB         25.2128  -29.9129  -42.5509 C.3       6 UNK        -0.2006 
     42 C          25.2095  -31.4636  -40.5456 C.2       6 UNK         0.4892 
     43 O          24.1957  -31.6956  -39.8808 O.2       6 UNK        -0.5089 
     44 N          26.0912  -32.4046  -40.9095 N.am      7 UNK        -0.4243 
     45 CA         26.0458  -33.8219  -40.5162 C.3       7 UNK         0.0196 
     46 CB         27.2756  -34.5404  -41.0955 C.3       7 UNK        -0.2007 
     47 C          24.7555  -34.5745  -40.9015 C.2       7 UNK         0.5020 
     48 O          24.4617  -35.6104  -40.3051 O.2       7 UNK        -0.5147 
     49 N          23.9990  -34.0367  -41.8672 N.am      8 UNK        -0.4734 
     50 CA         22.6756  -34.5166  -42.2689 C.3       8 UNK         0.0238 
     51 CB         22.3030  -33.8727  -43.6159 C.3       8 UNK        -0.1912 
     52 C          21.5667  -34.2632  -41.2264 C.2       8 UNK         0.5038 
     53 O          20.5027  -34.8720  -41.3500 O.2       8 UNK        -0.5046 
     54 N          21.8054  -33.3815  -40.2444 N.am      9 UNK        -0.4200 
     55 CA         20.8270  -32.9968  -39.2155 C.3       9 UNK         0.0839 
     56 C          21.4269  -32.7831  -37.7985 C.2       9 UNK         0.5513 
     57 N          22.7274  -32.5696  -37.6433 N.am      9 UNK        -0.7519 
     58 O          20.6961  -32.8417  -36.8127 O.2       9 UNK        -0.4960 
     59 C59        19.9239  -31.8223  -39.6816 C.3       10 UNK        -0.0876 
     60 S60        20.7759  -30.2086  -39.8331 S.3       10 UNK        -0.2414 
     61 C61        21.3716  -30.2481  -41.5569 C.3       10 UNK         0.0169 
     62 H62        13.4238  -22.8420  -44.9841 H         1 UNK         0.0903 
     63 H63        12.3650  -24.2094  -44.6280 H         1 UNK         0.0903 
     64 H64        13.5280  -23.6561  -43.4219 H         1 UNK         0.0903 
     65 H65        15.2901  -25.0218  -43.2774 H         1 UNK         0.3096 
     66 H66        15.9426  -27.0284  -45.1734 H         1 UNK         0.1121 
     67 H67        17.4284  -25.8855  -42.7693 H         1 UNK         0.0849 
     68 H68        18.1234  -27.1661  -43.7007 H         1 UNK         0.0849 
     69 H69        16.1945  -30.3118  -42.5915 H         1 UNK         0.0865 
     70 H70        16.0101  -29.5614  -44.1530 H         1 UNK         0.0865 
     71 H71        18.5714  -29.8651  -41.4088 H         1 UNK         0.1346 
     72 H72        21.8346  -30.2552  -44.1757 H         1 UNK         0.1412 
     73 H73        17.8627  -29.6090  -45.6232 H         1 UNK         0.1426 
     74 H74        19.8226  -30.6104  -47.0752 H         1 UNK         0.0716 
     75 H75        21.4494  -30.2997  -46.5293 H         1 UNK         0.0716 
     76 H76        22.3075  -27.0139  -47.5747 H         1 UNK         0.0695 
     77 H77        22.5960  -28.1899  -46.3487 H         1 UNK         0.0695 
     78 H78        22.5610  -25.6331  -45.7731 H         1 UNK         0.0983 
     79 H79        19.6947  -26.0009  -46.2358 H         1 UNK         0.3095 
     80 H80        18.9450  -22.5903  -45.4336 H         1 UNK         0.0454 
     81 H81        18.7596  -24.2228  -48.0182 H         1 UNK         0.0851 
     82 H82        19.4713  -22.6312  -47.8308 H         1 UNK         0.0851 
     83 H83        17.7433  -22.8443  -47.6019 H         1 UNK         0.0851 
     84 H84        17.4505  -23.8873  -44.4898 H         1 UNK         0.2976 
     85 H85        20.5582  -25.3314  -43.5499 H         1 UNK         0.3116 
     86 H86        20.6923  -27.3638  -41.6376 H         1 UNK         0.0646 
     87 H87        19.1470  -25.4317  -41.4699 H         1 UNK         0.0847 
     88 H88        20.5006  -24.3208  -41.2752 H         1 UNK         0.0847 
     89 H89        20.1303  -25.5005  -40.0282 H         1 UNK         0.0847 
     90 H90        21.8020  -27.5349  -39.6690 H         1 UNK         0.3040 
     91 H91        23.5245  -27.7988  -38.3048 H         1 UNK         0.1015 
     92 H92        24.6030  -25.1108  -39.3101 H         1 UNK         0.0786 
     93 H93        25.0825  -25.9481  -37.8447 H         1 UNK         0.0786 
     94 H94        23.4479  -25.3239  -37.9959 H         1 UNK         0.0786 
     95 H95        23.7282  -29.5345  -40.0338 H         1 UNK         0.3172 
     96 H96        26.5298  -29.8025  -40.8314 H         1 UNK         0.0595 
     97 H97        24.1916  -30.1975  -42.8060 H         1 UNK         0.0839 
     98 H98        25.8846  -30.5460  -43.1312 H         1 UNK         0.0839 
     99 H99        25.3608  -28.8882  -42.8933 H         1 UNK         0.0839 
    100 H100       26.8843  -32.1251  -41.4695 H         1 UNK         0.2998 
    101 H101       26.1130  -33.8547  -39.4267 H         1 UNK         0.0822 
    102 H102       28.2033  -34.0912  -40.7405 H         1 UNK         0.0787 
    103 H103       27.2931  -35.5898  -40.7970 H         1 UNK         0.0787 
    104 H104       27.2822  -34.5120  -42.1859 H         1 UNK         0.0787 
    105 H105       24.3299  -33.1905  -42.3065 H         1 UNK         0.3055 
    106 H106       22.7359  -35.5981  -42.4108 H         1 UNK         0.1106 
    107 H107       22.2489  -32.7864  -43.5456 H         1 UNK         0.0828 
    108 H108       21.3295  -34.2233  -43.9619 H         1 UNK         0.0828 
    109 H109       23.0277  -34.1240  -44.3905 H         1 UNK         0.0828 
    110 H110       22.7045  -32.9146  -40.1971 H         1 UNK         0.2931 
    111 H111       20.1633  -33.8525  -39.0761 H         1 UNK         0.0412 
    112 H112       23.0927  -32.4510  -36.7122 H         1 UNK         0.3472 
    113 H113       23.3279  -32.3933  -38.4432 H         1 UNK         0.3472 
    114 H114       19.0984  -31.6946  -38.9794 H         1 UNK         0.0970 
    115 H115       19.4540  -32.0769  -40.6323 H         1 UNK         0.0970 
    116 H116       21.9374  -31.1638  -41.7189 H         1 UNK         0.0612 
    117 H117       22.0863  -29.4334  -41.6728 H         1 UNK         0.0612 
@<TRIPOS>BOND
     1    1    2 1    
     2    1   62 1    
     3    1   63 1    
     4    1   64 1    
     5    2    3 2    
     6    2    4 am   BACKBONE|DICT|INTERRES
     7    4    5 1    
     8    4   65 1    
     9    5    6 1    
    10    5   25 1    
    11    5   66 1    
    12    6    7 1    
    13    6   67 1    
    14    6   68 1    
    15    7    8 1    
    16    8    9 1    
    17    8   69 1    
    18    8   70 1    
    19    9   10 ar   
    20    9   14 ar   
    21   10   11 ar   
    22   10   71 1    
    23   11   12 ar   
    24   11   61 1    
    25   12   13 ar   
    26   12   72 1    
    27   13   14 ar   
    28   13   15 1    
    29   14   73 1    
    30   15   16 1    
    31   15   74 1    
    32   15   75 1    
    33   16   17 1    
    34   17   18 1    
    35   17   76 1    
    36   17   77 1    
    37   18   19 1    
    38   18   27 1    
    39   18   78 1    
    40   19   20 am   BACKBONE|DICT|INTERRES
    41   19   79 1    
    42   20   21 2    
    43   20   22 1    
    44   22   23 1    
    45   22   24 1    
    46   22   80 1    
    47   23   81 1    
    48   23   82 1    
    49   23   83 1    
    50   24   25 am   BACKBONE|DICT|INTERRES
    51   24   84 1    
    52   25   26 2    
    53   27   28 2    
    54   27   29 am   BACKBONE|DICT|INTERRES
    55   29   30 1    
    56   29   85 1    
    57   30   31 1    
    58   30   32 1    
    59   30   86 1    
    60   31   87 1    
    61   31   88 1    
    62   31   89 1    
    63   32   33 2    
    64   32   34 am   BACKBONE|DICT|INTERRES
    65   34   35 1    
    66   34   90 1    
    67   35   36 1    
    68   35   37 1    
    69   35   91 1    
    70   36   92 1    
    71   36   93 1    
    72   36   94 1    
    73   37   38 2    
    74   37   39 am   BACKBONE|DICT|INTERRES
    75   39   40 1    
    76   39   95 1    
    77   40   41 1    
    78   40   42 1    
    79   40   96 1    
    80   41   97 1    
    81   41   98 1    
    82   41   99 1    
    83   42   43 2    
    84   42   44 am   BACKBONE|DICT|INTERRES
    85   44   45 1    
    86   44  100 1    
    87   45   46 1    
    88   45   47 1    
    89   45  101 1    
    90   46  102 1    
    91   46  103 1    
    92   46  104 1    
    93   47   48 2    
    94   47   49 am   BACKBONE|DICT|INTERRES
    95   49   50 1    
    96   49  105 1    
    97   50   51 1    
    98   50   52 1    
    99   50  106 1    
   100   51  107 1    
   101   51  108 1    
   102   51  109 1    
   103   52   53 2    
   104   52   54 am   BACKBONE|DICT|INTERRES
   105   54   55 1    
   106   54  110 1    
   107   55   56 1    
   108   55   59 1    
   109   55  111 1    
   110   56   57 am   BACKBONE|DICT|INTERRES
   111   56   58 2    
   112   57  112 1    
   113   57  113 1    
   114   59   60 1    
   115   59  114 1    
   116   59  115 1    
   117   60   61 1    
   118   61  116 1    
   119   61  117 1    
@<TRIPOS>SUBSTRUCTURE
     1 UNK         1 GROUP             0       ****    0 ROOT    
