@<TRIPOS>MOLECULE
3R8
117   119    1
SMALL
USER_CHARGES


@<TRIPOS>ATOM
      1 CA         14.6532  -27.0017  -49.8854 C.3       0 UNK        -0.2013 
      2 C          15.8186  -27.4862  -49.0357 C.2       0 UNK         0.4866 
      3 O          16.9422  -27.5778  -49.5319 O.2       0 UNK        -0.5176 
      4 N          15.5587  -27.8055  -47.7625 N.am      1 UNK        -0.4884 
      5 CA         16.5664  -28.2123  -46.7784 C.3       1 UNK         0.0853 
      6 C6         15.9267  -28.9923  -45.6008 C.3       10 UNK        -0.0849 
      7 S7         14.6346  -28.0741  -44.6888 S.3       10 UNK        -0.2776 
      8 C8         14.1492  -29.2972  -43.4285 C.3       10 UNK         0.0316 
      9 C9         15.3116  -29.6725  -42.5198 C.ar      10 UNK        -0.0863 
     10 C10        15.9267  -30.9206  -42.6409 C.ar      10 UNK        -0.1009 
     11 C11        17.0093  -31.2662  -41.8253 C.ar      10 UNK        -0.0712 
     12 C12        17.4741  -30.3502  -40.8747 C.ar      10 UNK        -0.0894 
     13 C13        16.8490  -29.1067  -40.7277 C.ar      10 UNK        -0.0745 
     14 C14        15.7700  -28.7751  -41.5534 C.ar      10 UNK        -0.0972 
     15 C15        17.2949  -28.1295  -39.6506 C.3       10 UNK         0.0209 
     16 S16        18.0087  -26.6170  -40.3682 S.3       10 UNK        -0.2568 
     17 C17        19.7994  -26.9551  -40.3078 C.3       10 UNK        -0.0983 
     18 CA         20.3893  -27.5320  -41.6222 C.3       3 UNK         0.0876 
     19 N          19.9387  -26.8101  -42.8181 N.am      3 UNK        -0.4424 
     20 C          20.2964  -27.0739  -44.0820 C.2       2 UNK         0.4918 
     21 O          21.1500  -27.8970  -44.4121 O.2       2 UNK        -0.4875 
     22 CA         19.5191  -26.3361  -45.1724 C.3       2 UNK         0.0481 
     23 CB         20.4473  -25.7510  -46.2522 C.3       2 UNK        -0.1831 
     24 N          18.5998  -27.3011  -45.7655 N.am      2 UNK        -0.4498 
     25 C          17.4070  -27.0096  -46.2925 C.2       1 UNK         0.5027 
     26 O          16.9623  -25.8607  -46.3815 O.2       1 UNK        -0.4969 
     27 C          21.9241  -27.6210  -41.5181 C.2       3 UNK         0.5005 
     28 O          22.4651  -28.7271  -41.5318 O.2       3 UNK        -0.5279 
     29 N          22.5708  -26.4458  -41.4488 N.am      4 UNK        -0.4463 
     30 CA         24.0005  -26.1909  -41.2251 C.3       4 UNK         0.0283 
     31 CB         24.8693  -26.8699  -42.3025 C.3       4 UNK        -0.1875 
     32 C          24.4758  -26.5838  -39.8136 C.2       4 UNK         0.4949 
     33 O          23.9194  -27.4842  -39.1832 O.2       4 UNK        -0.5039 
     34 N          25.5492  -25.9277  -39.3519 N.am      5 UNK        -0.4663 
     35 CA         26.1921  -26.1962  -38.0564 C.3       5 UNK         0.0242 
     36 CB         27.2502  -25.1155  -37.7810 C.3       5 UNK        -0.1982 
     37 C          26.8177  -27.6011  -37.9588 C.2       5 UNK         0.5017 
     38 O          26.9276  -28.1439  -36.8595 O.2       5 UNK        -0.5012 
     39 N          27.1897  -28.1661  -39.1148 N.am      6 UNK        -0.4439 
     40 CA         27.7027  -29.5268  -39.2718 C.3       6 UNK         0.0297 
     41 CB         28.5595  -29.5777  -40.5494 C.3       6 UNK        -0.2006 
     42 C          26.6002  -30.6049  -39.3231 C.2       6 UNK         0.4892 
     43 O          26.9489  -31.7845  -39.3827 O.2       6 UNK        -0.5089 
     44 N          25.3161  -30.2023  -39.3289 N.am      7 UNK        -0.4243 
     45 CA         24.1262  -31.0400  -39.5390 C.3       7 UNK         0.0196 
     46 CB         23.9309  -32.0430  -38.3817 C.3       7 UNK        -0.2007 
     47 C          24.1547  -31.7051  -40.9288 C.2       7 UNK         0.5020 
     48 O          24.1243  -32.9317  -41.0430 O.2       7 UNK        -0.5147 
     49 N          24.2545  -30.8619  -41.9630 N.am      8 UNK        -0.4734 
     50 CA         24.3233  -31.2578  -43.3690 C.3       8 UNK         0.0238 
     51 CB         24.9079  -30.1033  -44.1986 C.3       8 UNK        -0.1912 
     52 C          22.9575  -31.6767  -43.9305 C.2       8 UNK         0.5038 
     53 O          22.9166  -32.5782  -44.7691 O.2       8 UNK        -0.5046 
     54 N          21.8792  -31.0248  -43.4667 N.am      9 UNK        -0.4200 
     55 CA         20.4704  -31.2527  -43.8423 C.3       9 UNK         0.0839 
     56 C          20.1210  -30.8504  -45.3076 C.2       9 UNK         0.5513 
     57 N          20.8969  -31.2603  -46.3011 N.am      9 UNK        -0.7519 
     58 O          19.1456  -30.1416  -45.5437 O.2       9 UNK        -0.4960 
     59 C59        20.0166  -32.6967  -43.4870 C.3       10 UNK        -0.0876 
     60 S60        18.2245  -33.0051  -43.6245 S.3       10 UNK        -0.2414 
     61 C61        17.6276  -32.6532  -41.9394 C.3       10 UNK         0.0169 
     62 H62        14.5184  -27.6565  -50.7466 H         1 UNK         0.0903 
     63 H63        13.7188  -26.9831  -49.3239 H         1 UNK         0.0903 
     64 H64        14.8496  -25.9936  -50.2505 H         1 UNK         0.0903 
     65 H65        14.6284  -27.6744  -47.3900 H         1 UNK         0.3096 
     66 H66        17.2575  -28.8944  -47.2803 H         1 UNK         0.1121 
     67 H67        16.7000  -29.3026  -44.8962 H         1 UNK         0.0849 
     68 H68        15.4868  -29.9177  -45.9760 H         1 UNK         0.0849 
     69 H69        13.3383  -28.8843  -42.8268 H         1 UNK         0.0865 
     70 H70        13.7412  -30.1803  -43.9230 H         1 UNK         0.0865 
     71 H71        15.5661  -31.6281  -43.3753 H         1 UNK         0.1346 
     72 H72        18.3009  -30.6160  -40.2302 H         1 UNK         0.1412 
     73 H73        15.2891  -27.8119  -41.4467 H         1 UNK         0.1426 
     74 H74        16.4255  -27.8499  -39.0534 H         1 UNK         0.0716 
     75 H75        17.9961  -28.5958  -38.9573 H         1 UNK         0.0716 
     76 H76        20.0180  -27.6210  -39.4709 H         1 UNK         0.0695 
     77 H77        20.2739  -26.0050  -40.0555 H         1 UNK         0.0695 
     78 H78        20.0169  -28.5530  -41.7267 H         1 UNK         0.0983 
     79 H79        19.2040  -26.1362  -42.6557 H         1 UNK         0.3095 
     80 H80        18.9570  -25.5200  -44.7129 H         1 UNK         0.0454 
     81 H81        19.8827  -25.1954  -47.0009 H         1 UNK         0.0851 
     82 H82        21.0089  -26.5307  -46.7684 H         1 UNK         0.0851 
     83 H83        21.1704  -25.0629  -45.8129 H         1 UNK         0.0851 
     84 H84        18.8839  -28.2779  -45.6909 H         1 UNK         0.2976 
     85 H85        21.9958  -25.6152  -41.4688 H         1 UNK         0.3116 
     86 H86        24.1229  -25.1111  -41.3248 H         1 UNK         0.0646 
     87 H87        24.4846  -26.6787  -43.3045 H         1 UNK         0.0847 
     88 H88        25.8931  -26.4959  -42.2732 H         1 UNK         0.0847 
     89 H89        24.9193  -27.9488  -42.1620 H         1 UNK         0.0847 
     90 H90        25.9579  -25.1969  -39.9182 H         1 UNK         0.3040 
     91 H91        25.4247  -26.1317  -37.2815 H         1 UNK         0.1015 
     92 H92        28.0374  -25.1173  -38.5361 H         1 UNK         0.0786 
     93 H93        27.7275  -25.2748  -36.8128 H         1 UNK         0.0786 
     94 H94        26.8056  -24.1203  -37.7598 H         1 UNK         0.0786 
     95 H95        27.0673  -27.6265  -39.9590 H         1 UNK         0.3172 
     96 H96        28.3463  -29.7602  -38.4209 H         1 UNK         0.0595 
     97 H97        27.9667  -29.3758  -41.4426 H         1 UNK         0.0839 
     98 H98        29.0140  -30.5612  -40.6778 H         1 UNK         0.0839 
     99 H99        29.3728  -28.8527  -40.5128 H         1 UNK         0.0839 
    100 H100       25.1239  -29.2092  -39.2566 H         1 UNK         0.2998 
    101 H101       23.2688  -30.3651  -39.5318 H         1 UNK         0.0822 
    102 H102       22.9923  -32.5865  -38.4958 H         1 UNK         0.0787 
    103 H103       24.7295  -32.7841  -38.3405 H         1 UNK         0.0787 
    104 H104       23.8962  -31.5335  -37.4188 H         1 UNK         0.0787 
    105 H105       24.1128  -29.8754  -41.7731 H         1 UNK         0.3055 
    106 H106       24.9942  -32.1160  -43.4523 H         1 UNK         0.1106 
    107 H107       25.0319  -30.3993  -45.2412 H         1 UNK         0.0828 
    108 H108       24.2567  -29.2279  -44.1869 H         1 UNK         0.0828 
    109 H109       25.8884  -29.8025  -43.8291 H         1 UNK         0.0828 
    110 H110       22.0402  -30.2581  -42.8215 H         1 UNK         0.2931 
    111 H111       19.9046  -30.5759  -43.2004 H         1 UNK         0.0412 
    112 H112       20.6852  -30.9994  -47.2505 H         1 UNK         0.3472 
    113 H113       21.7038  -31.8361  -46.0865 H         1 UNK         0.3472 
    114 H114       20.3427  -32.9503  -42.4776 H         1 UNK         0.0970 
    115 H115       20.5135  -33.4171  -44.1384 H         1 UNK         0.0970 
    116 H116       16.8638  -33.3899  -41.6866 H         1 UNK         0.0612 
    117 H117       18.4301  -32.7896  -41.2134 H         1 UNK         0.0612 
@<TRIPOS>BOND
     1    1    2 1    
     2    1   62 1    
     3    1   63 1    
     4    1   64 1    
     5    2    3 2    
     6    2    4 am   BACKBONE|DICT|INTERRES
     7    4    5 1    
     8    4   65 1    
     9    5    6 1    
    10    5   25 1    
    11    5   66 1    
    12    6    7 1    
    13    6   67 1    
    14    6   68 1    
    15    7    8 1    
    16    8    9 1    
    17    8   69 1    
    18    8   70 1    
    19    9   10 ar   
    20    9   14 ar   
    21   10   11 ar   
    22   10   71 1    
    23   11   12 ar   
    24   11   61 1    
    25   12   13 ar   
    26   12   72 1    
    27   13   14 ar   
    28   13   15 1    
    29   14   73 1    
    30   15   16 1    
    31   15   74 1    
    32   15   75 1    
    33   16   17 1    
    34   17   18 1    
    35   17   76 1    
    36   17   77 1    
    37   18   19 1    
    38   18   27 1    
    39   18   78 1    
    40   19   20 am   BACKBONE|DICT|INTERRES
    41   19   79 1    
    42   20   21 2    
    43   20   22 1    
    44   22   23 1    
    45   22   24 1    
    46   22   80 1    
    47   23   81 1    
    48   23   82 1    
    49   23   83 1    
    50   24   25 am   BACKBONE|DICT|INTERRES
    51   24   84 1    
    52   25   26 2    
    53   27   28 2    
    54   27   29 am   BACKBONE|DICT|INTERRES
    55   29   30 1    
    56   29   85 1    
    57   30   31 1    
    58   30   32 1    
    59   30   86 1    
    60   31   87 1    
    61   31   88 1    
    62   31   89 1    
    63   32   33 2    
    64   32   34 am   BACKBONE|DICT|INTERRES
    65   34   35 1    
    66   34   90 1    
    67   35   36 1    
    68   35   37 1    
    69   35   91 1    
    70   36   92 1    
    71   36   93 1    
    72   36   94 1    
    73   37   38 2    
    74   37   39 am   BACKBONE|DICT|INTERRES
    75   39   40 1    
    76   39   95 1    
    77   40   41 1    
    78   40   42 1    
    79   40   96 1    
    80   41   97 1    
    81   41   98 1    
    82   41   99 1    
    83   42   43 2    
    84   42   44 am   BACKBONE|DICT|INTERRES
    85   44   45 1    
    86   44  100 1    
    87   45   46 1    
    88   45   47 1    
    89   45  101 1    
    90   46  102 1    
    91   46  103 1    
    92   46  104 1    
    93   47   48 2    
    94   47   49 am   BACKBONE|DICT|INTERRES
    95   49   50 1    
    96   49  105 1    
    97   50   51 1    
    98   50   52 1    
    99   50  106 1    
   100   51  107 1    
   101   51  108 1    
   102   51  109 1    
   103   52   53 2    
   104   52   54 am   BACKBONE|DICT|INTERRES
   105   54   55 1    
   106   54  110 1    
   107   55   56 1    
   108   55   59 1    
   109   55  111 1    
   110   56   57 am   BACKBONE|DICT|INTERRES
   111   56   58 2    
   112   57  112 1    
   113   57  113 1    
   114   59   60 1    
   115   59  114 1    
   116   59  115 1    
   117   60   61 1    
   118   61  116 1    
   119   61  117 1    
@<TRIPOS>SUBSTRUCTURE
     1 UNK         1 GROUP             0       ****    0 ROOT    
