@<TRIPOS>MOLECULE
3R8
117   119    1
SMALL
USER_CHARGES


@<TRIPOS>ATOM
      1 CA         18.5227  -29.1027  -41.6047 C.3       0 UNK        -0.2013 
      2 C          18.0862  -28.0161  -42.5683 C.2       0 UNK         0.4866 
      3 O          18.9296  -27.4241  -43.2401 O.2       0 UNK        -0.5176 
      4 N          16.7748  -27.7472  -42.6283 N.am      1 UNK        -0.4884 
      5 CA         16.1167  -26.7738  -43.5100 C.3       1 UNK         0.0853 
      6 C6         16.1262  -27.2052  -45.0034 C.3       10 UNK        -0.0849 
      7 S7         15.2458  -28.7875  -45.2455 S.3       10 UNK        -0.2776 
      8 C8         16.2973  -29.6423  -46.4632 C.3       10 UNK         0.0316 
      9 C9         17.6309  -30.0984  -45.8837 C.ar      10 UNK        -0.0863 
     10 C10        17.6969  -31.2283  -45.0627 C.ar      10 UNK        -0.1009 
     11 C11        18.9291  -31.6902  -44.5890 C.ar      10 UNK        -0.0712 
     12 C12        20.0985  -30.9951  -44.9161 C.ar      10 UNK        -0.0894 
     13 C13        20.0495  -29.8665  -45.7417 C.ar      10 UNK        -0.0745 
     14 C14        18.8102  -29.4296  -46.2246 C.ar      10 UNK        -0.0972 
     15 C15        21.3470  -29.1941  -46.1860 C.3       10 UNK         0.0209 
     16 S16        21.2548  -27.3731  -46.2584 S.3       10 UNK        -0.2568 
     17 C17        21.9533  -26.9206  -44.6408 C.3       10 UNK        -0.0983 
     18 CA         21.7500  -25.4194  -44.3309 C.3       3 UNK         0.0876 
     19 N          20.3380  -25.0828  -44.1304 N.am      3 UNK        -0.4424 
     20 C          19.8406  -23.8404  -44.2246 C.2       2 UNK         0.4918 
     21 O          20.5311  -22.8614  -44.5139 O.2       2 UNK        -0.4875 
     22 CA         18.3319  -23.6422  -43.9770 C.3       2 UNK         0.0481 
     23 CB         17.7195  -22.5857  -44.9160 C.3       2 UNK        -0.1831 
     24 N          17.5928  -24.8967  -44.1175 N.am      2 UNK        -0.4498 
     25 C          16.6676  -25.3520  -43.2610 C.2       1 UNK         0.5027 
     26 O          16.2619  -24.7170  -42.2825 O.2       1 UNK        -0.4969 
     27 C          22.5900  -24.9951  -43.1106 C.2       3 UNK         0.5005 
     28 O          22.1601  -25.1831  -41.9698 O.2       3 UNK        -0.5279 
     29 N          23.7833  -24.4467  -43.3776 N.am      4 UNK        -0.4463 
     30 CA         24.7396  -23.9925  -42.3620 C.3       4 UNK         0.0283 
     31 CB         25.5984  -22.8639  -42.9569 C.3       4 UNK        -0.1875 
     32 C          25.6410  -25.1194  -41.8238 C.2       4 UNK         0.4949 
     33 O          26.2710  -24.9339  -40.7822 O.2       4 UNK        -0.5039 
     34 N          25.7023  -26.2515  -42.5336 N.am      5 UNK        -0.4663 
     35 CA         26.4619  -27.4461  -42.1746 C.3       5 UNK         0.0242 
     36 CB         27.7859  -27.4664  -42.9571 C.3       5 UNK        -0.1982 
     37 C          25.6101  -28.6773  -42.5015 C.2       5 UNK         0.5017 
     38 O          24.7517  -28.6010  -43.3830 O.2       5 UNK        -0.5012 
     39 N          25.8579  -29.7800  -41.7788 N.am      6 UNK        -0.4439 
     40 CA         25.1229  -31.0553  -41.8335 C.3       6 UNK         0.0297 
     41 CB         25.2892  -31.7376  -43.2086 C.3       6 UNK        -0.2006 
     42 C          23.6414  -30.9373  -41.4127 C.2       6 UNK         0.4892 
     43 O          22.8295  -31.7865  -41.7832 O.2       6 UNK        -0.5089 
     44 N          23.3212  -29.9066  -40.6153 N.am      7 UNK        -0.4243 
     45 CA         21.9697  -29.5531  -40.1701 C.3       7 UNK         0.0196 
     46 CB         22.0053  -28.1573  -39.5269 C.3       7 UNK        -0.2007 
     47 C          21.3144  -30.5764  -39.2233 C.2       7 UNK         0.5020 
     48 O          20.1025  -30.5178  -39.0194 O.2       7 UNK        -0.5147 
     49 N          22.1102  -31.4999  -38.6675 N.am      8 UNK        -0.4734 
     50 CA         21.6294  -32.6532  -37.9032 C.3       8 UNK         0.0238 
     51 CB         22.8056  -33.2692  -37.1279 C.3       8 UNK        -0.1912 
     52 C          20.9467  -33.7186  -38.7834 C.2       8 UNK         0.5038 
     53 O          20.1581  -34.5037  -38.2554 O.2       8 UNK        -0.5046 
     54 N          21.2619  -33.7333  -40.0886 N.am      9 UNK        -0.4200 
     55 CA         20.7193  -34.6475  -41.1089 C.3       9 UNK         0.0839 
     56 C          21.0619  -36.1537  -40.8911 C.2       9 UNK         0.5513 
     57 N          22.0955  -36.4895  -40.1280 N.am      9 UNK        -0.7519 
     58 O          20.4076  -37.0336  -41.4452 O.2       9 UNK        -0.4960 
     59 C59        19.2102  -34.3974  -41.3984 C.3       10 UNK        -0.0876 
     60 S60        18.8931  -32.7034  -42.0008 S.3       10 UNK        -0.2414 
     61 C61        19.0079  -32.9835  -43.7916 C.3       10 UNK         0.0169 
     62 H62        19.2372  -29.7615  -42.0962 H         1 UNK         0.0903 
     63 H63        19.0022  -28.6587  -40.7336 H         1 UNK         0.0903 
     64 H64        17.6855  -29.7118  -41.2645 H         1 UNK         0.0903 
     65 H65        16.1468  -28.2599  -42.0253 H         1 UNK         0.3096 
     66 H66        15.0727  -26.7371  -43.1932 H         1 UNK         0.1121 
     67 H67        15.6361  -26.4532  -45.6248 H         1 UNK         0.0849 
     68 H68        17.1472  -27.2975  -45.3748 H         1 UNK         0.0849 
     69 H69        15.7574  -30.5129  -46.8386 H         1 UNK         0.0865 
     70 H70        16.4501  -28.9915  -47.3257 H         1 UNK         0.0865 
     71 H71        16.7907  -31.7651  -44.8168 H         1 UNK         0.1346 
     72 H72        21.0520  -31.3592  -44.5568 H         1 UNK         0.1412 
     73 H73        18.7657  -28.5761  -46.8866 H         1 UNK         0.1426 
     74 H74        22.1773  -29.4875  -45.5408 H         1 UNK         0.0716 
     75 H75        21.5916  -29.5621  -47.1830 H         1 UNK         0.0716 
     76 H76        23.0158  -27.1640  -44.6764 H         1 UNK         0.0695 
     77 H77        21.5171  -27.5482  -43.8610 H         1 UNK         0.0695 
     78 H78        22.1049  -24.8504  -45.1937 H         1 UNK         0.0983 
     79 H79        19.7454  -25.8514  -43.8204 H         1 UNK         0.3095 
     80 H80        18.2482  -23.2757  -42.9519 H         1 UNK         0.0454 
     81 H81        16.6598  -22.4377  -44.7078 H         1 UNK         0.0851 
     82 H82        17.8189  -22.8736  -45.9631 H         1 UNK         0.0851 
     83 H83        18.2075  -21.6178  -44.7944 H         1 UNK         0.0851 
     84 H84        17.8988  -25.5071  -44.8654 H         1 UNK         0.2976 
     85 H85        24.0614  -24.3244  -44.3416 H         1 UNK         0.3116 
     86 H86        24.1875  -23.5834  -41.5129 H         1 UNK         0.0646 
     87 H87        24.9823  -22.0277  -43.2882 H         1 UNK         0.0847 
     88 H88        26.2975  -22.4733  -42.2159 H         1 UNK         0.0847 
     89 H89        26.1870  -23.2077  -43.8083 H         1 UNK         0.0847 
     90 H90        25.0973  -26.3639  -43.3363 H         1 UNK         0.3040 
     91 H91        26.6721  -27.4462  -41.1024 H         1 UNK         0.1015 
     92 H92        27.6167  -27.4768  -44.0348 H         1 UNK         0.0786 
     93 H93        28.3757  -28.3501  -42.7100 H         1 UNK         0.0786 
     94 H94        28.3965  -26.5940  -42.7231 H         1 UNK         0.0786 
     95 H95        26.5993  -29.7399  -41.0915 H         1 UNK         0.3172 
     96 H96        25.5908  -31.7032  -41.0909 H         1 UNK         0.0595 
     97 H97        24.7690  -31.1935  -43.9975 H         1 UNK         0.0839 
     98 H98        24.8829  -32.7498  -43.1948 H         1 UNK         0.0839 
     99 H99        26.3392  -31.8160  -43.4900 H         1 UNK         0.0839 
    100 H100       24.0606  -29.2762  -40.3430 H         1 UNK         0.2998 
    101 H101       21.3460  -29.5006  -41.0636 H         1 UNK         0.0822 
    102 H102       22.3763  -27.4077  -40.2268 H         1 UNK         0.0787 
    103 H103       21.0072  -27.8415  -39.2203 H         1 UNK         0.0787 
    104 H104       22.6406  -28.1369  -38.6407 H         1 UNK         0.0787 
    105 H105       23.0987  -31.4594  -38.8681 H         1 UNK         0.3055 
    106 H106       20.8862  -32.3041  -37.1825 H         1 UNK         0.1106 
    107 H107       23.2501  -32.5478  -36.4419 H         1 UNK         0.0828 
    108 H108       22.4754  -34.1198  -36.5297 H         1 UNK         0.0828 
    109 H109       23.5901  -33.6262  -37.7962 H         1 UNK         0.0828 
    110 H110       21.8952  -33.0272  -40.4474 H         1 UNK         0.2931 
    111 H111       21.2597  -34.3916  -42.0209 H         1 UNK         0.0412 
    112 H112       22.6504  -35.7793  -39.6783 H         1 UNK         0.3472 
    113 H113       22.3193  -37.4640  -39.9995 H         1 UNK         0.3472 
    114 H114       18.8302  -35.1022  -42.1399 H         1 UNK         0.0970 
    115 H115       18.6151  -34.5656  -40.4998 H         1 UNK         0.0970 
    116 H116       19.9460  -33.4945  -44.0145 H         1 UNK         0.0612 
    117 H117       18.2098  -33.6605  -44.1002 H         1 UNK         0.0612 
@<TRIPOS>BOND
     1    1    2 1    
     2    1   62 1    
     3    1   63 1    
     4    1   64 1    
     5    2    3 2    
     6    2    4 am   BACKBONE|DICT|INTERRES
     7    4    5 1    
     8    4   65 1    
     9    5    6 1    
    10    5   25 1    
    11    5   66 1    
    12    6    7 1    
    13    6   67 1    
    14    6   68 1    
    15    7    8 1    
    16    8    9 1    
    17    8   69 1    
    18    8   70 1    
    19    9   10 ar   
    20    9   14 ar   
    21   10   11 ar   
    22   10   71 1    
    23   11   12 ar   
    24   11   61 1    
    25   12   13 ar   
    26   12   72 1    
    27   13   14 ar   
    28   13   15 1    
    29   14   73 1    
    30   15   16 1    
    31   15   74 1    
    32   15   75 1    
    33   16   17 1    
    34   17   18 1    
    35   17   76 1    
    36   17   77 1    
    37   18   19 1    
    38   18   27 1    
    39   18   78 1    
    40   19   20 am   BACKBONE|DICT|INTERRES
    41   19   79 1    
    42   20   21 2    
    43   20   22 1    
    44   22   23 1    
    45   22   24 1    
    46   22   80 1    
    47   23   81 1    
    48   23   82 1    
    49   23   83 1    
    50   24   25 am   BACKBONE|DICT|INTERRES
    51   24   84 1    
    52   25   26 2    
    53   27   28 2    
    54   27   29 am   BACKBONE|DICT|INTERRES
    55   29   30 1    
    56   29   85 1    
    57   30   31 1    
    58   30   32 1    
    59   30   86 1    
    60   31   87 1    
    61   31   88 1    
    62   31   89 1    
    63   32   33 2    
    64   32   34 am   BACKBONE|DICT|INTERRES
    65   34   35 1    
    66   34   90 1    
    67   35   36 1    
    68   35   37 1    
    69   35   91 1    
    70   36   92 1    
    71   36   93 1    
    72   36   94 1    
    73   37   38 2    
    74   37   39 am   BACKBONE|DICT|INTERRES
    75   39   40 1    
    76   39   95 1    
    77   40   41 1    
    78   40   42 1    
    79   40   96 1    
    80   41   97 1    
    81   41   98 1    
    82   41   99 1    
    83   42   43 2    
    84   42   44 am   BACKBONE|DICT|INTERRES
    85   44   45 1    
    86   44  100 1    
    87   45   46 1    
    88   45   47 1    
    89   45  101 1    
    90   46  102 1    
    91   46  103 1    
    92   46  104 1    
    93   47   48 2    
    94   47   49 am   BACKBONE|DICT|INTERRES
    95   49   50 1    
    96   49  105 1    
    97   50   51 1    
    98   50   52 1    
    99   50  106 1    
   100   51  107 1    
   101   51  108 1    
   102   51  109 1    
   103   52   53 2    
   104   52   54 am   BACKBONE|DICT|INTERRES
   105   54   55 1    
   106   54  110 1    
   107   55   56 1    
   108   55   59 1    
   109   55  111 1    
   110   56   57 am   BACKBONE|DICT|INTERRES
   111   56   58 2    
   112   57  112 1    
   113   57  113 1    
   114   59   60 1    
   115   59  114 1    
   116   59  115 1    
   117   60   61 1    
   118   61  116 1    
   119   61  117 1    
@<TRIPOS>SUBSTRUCTURE
     1 UNK         1 GROUP             0       ****    0 ROOT    
