@<TRIPOS>MOLECULE
3R8
117   119    1
SMALL
USER_CHARGES


@<TRIPOS>ATOM
      1 CA         14.1637  -26.1763  -42.3928 C.3       0 UNK        -0.2013 
      2 C          15.4322  -26.2748  -41.5493 C.2       0 UNK         0.4866 
      3 O          15.3435  -26.2823  -40.3231 O.2       0 UNK        -0.5176 
      4 N          16.6262  -26.3430  -42.1483 N.am      1 UNK        -0.4884 
      5 CA         16.9068  -26.2898  -43.5823 C.3       1 UNK         0.0853 
      6 C6         16.7510  -27.6759  -44.2582 C.3       10 UNK        -0.0849 
      7 S7         16.2773  -27.5256  -46.0130 S.3       10 UNK        -0.2776 
      8 C8         16.0069  -29.2716  -46.4573 C.3       10 UNK         0.0316 
      9 C9         17.2724  -30.0938  -46.2692 C.ar      10 UNK        -0.0863 
     10 C10        17.3927  -30.9652  -45.1823 C.ar      10 UNK        -0.1009 
     11 C11        18.5749  -31.6813  -44.9761 C.ar      10 UNK        -0.0712 
     12 C12        19.6352  -31.5333  -45.8740 C.ar      10 UNK        -0.0894 
     13 C13        19.5298  -30.6533  -46.9570 C.ar      10 UNK        -0.0745 
     14 C14        18.3399  -29.9496  -47.1594 C.ar      10 UNK        -0.0972 
     15 C15        20.7199  -30.4202  -47.8773 C.3       10 UNK         0.0209 
     16 S16        21.5021  -28.7976  -47.5801 S.3       10 UNK        -0.2568 
     17 C17        22.0085  -28.9553  -45.8335 C.3       10 UNK        -0.0983 
     18 CA         22.2152  -27.6058  -45.1043 C.3       3 UNK         0.0876 
     19 N          21.0840  -26.6884  -45.2769 N.am      3 UNK        -0.4424 
     20 C          21.1594  -25.3635  -45.0982 C.2       2 UNK         0.4918 
     21 O          22.1849  -24.7786  -44.7482 O.2       2 UNK        -0.4875 
     22 CA         19.8745  -24.5490  -45.3371 C.3       2 UNK         0.0481 
     23 CB         19.8014  -24.0932  -46.8031 C.3       2 UNK        -0.1831 
     24 N          18.6275  -25.2382  -44.9817 N.am      2 UNK        -0.4498 
     25 C          18.3224  -25.7137  -43.7666 C.2       1 UNK         0.5027 
     26 O          19.1116  -25.7217  -42.8182 O.2       1 UNK        -0.4969 
     27 C          22.5273  -27.8966  -43.6226 C.2       3 UNK         0.5005 
     28 O          23.6236  -28.3816  -43.3387 O.2       3 UNK        -0.5279 
     29 N          21.5717  -27.6525  -42.7087 N.am      4 UNK        -0.4463 
     30 CA         21.5923  -28.1144  -41.3129 C.3       4 UNK         0.0283 
     31 CB         20.2792  -27.7321  -40.6155 C.3       4 UNK        -0.1875 
     32 C          22.7972  -27.6455  -40.4811 C.2       4 UNK         0.4949 
     33 O          23.1593  -28.3277  -39.5247 O.2       4 UNK        -0.5039 
     34 N          23.4313  -26.5355  -40.8818 N.am      5 UNK        -0.4663 
     35 CA         24.6894  -26.0430  -40.3131 C.3       5 UNK         0.0242 
     36 CB         24.9999  -24.6601  -40.9081 C.3       5 UNK        -0.1982 
     37 C          25.8831  -26.9984  -40.5192 C.2       5 UNK         0.5017 
     38 O          26.8215  -26.9545  -39.7227 O.2       5 UNK        -0.5012 
     39 N          25.8279  -27.8339  -41.5663 N.am      6 UNK        -0.4439 
     40 CA         26.8267  -28.8549  -41.8853 C.3       6 UNK         0.0297 
     41 CB         27.3294  -28.6389  -43.3224 C.3       6 UNK        -0.2006 
     42 C          26.2529  -30.2716  -41.7277 C.2       6 UNK         0.4892 
     43 O          26.9497  -31.1466  -41.2130 O.2       6 UNK        -0.5089 
     44 N          25.0078  -30.4813  -42.1796 N.am      7 UNK        -0.4243 
     45 CA         24.3279  -31.7791  -42.1848 C.3       7 UNK         0.0196 
     46 CB         23.1386  -31.7222  -43.1598 C.3       7 UNK        -0.2007 
     47 C          23.8576  -32.2441  -40.7970 C.2       7 UNK         0.5020 
     48 O          23.7044  -33.4489  -40.5981 O.2       7 UNK        -0.5147 
     49 N          23.6081  -31.2956  -39.8796 N.am      8 UNK        -0.4734 
     50 CA         23.1105  -31.4863  -38.5068 C.3       8 UNK         0.0238 
     51 CB         24.1301  -32.2753  -37.6573 C.3       8 UNK        -0.1912 
     52 C          21.6869  -32.0774  -38.4109 C.2       8 UNK         0.5038 
     53 O          21.2811  -32.4924  -37.3234 O.2       8 UNK        -0.5046 
     54 N          20.9527  -32.1061  -39.5303 N.am      9 UNK        -0.4200 
     55 CA         19.5664  -32.5773  -39.6226 C.3       9 UNK         0.0839 
     56 C          18.5353  -31.5833  -39.0169 C.2       9 UNK         0.5513 
     57 N          17.3250  -32.0475  -38.7353 N.am      9 UNK        -0.7519 
     58 O          18.8090  -30.4027  -38.8110 O.2       9 UNK        -0.4960 
     59 C59        19.2138  -33.0150  -41.0692 C.3       10 UNK        -0.0876 
     60 S60        19.3666  -31.7024  -42.3296 S.3       10 UNK        -0.2414 
     61 C61        18.7111  -32.5980  -43.7718 C.3       10 UNK         0.0169 
     62 H62        13.2837  -26.3710  -41.7799 H         1 UNK         0.0903 
     63 H63        14.0631  -25.1758  -42.8122 H         1 UNK         0.0903 
     64 H64        14.1595  -26.8982  -43.2078 H         1 UNK         0.0903 
     65 H65        17.4685  -26.3428  -41.5850 H         1 UNK         0.3096 
     66 H66        16.2167  -25.5732  -44.0332 H         1 UNK         0.1121 
     67 H67        15.9773  -28.2643  -43.7634 H         1 UNK         0.0849 
     68 H68        17.6650  -28.2670  -44.1664 H         1 UNK         0.0849 
     69 H69        15.1868  -29.6751  -45.8612 H         1 UNK         0.0865 
     70 H70        15.6857  -29.3300  -47.4984 H         1 UNK         0.0865 
     71 H71        16.5764  -31.0686  -44.4803 H         1 UNK         0.1346 
     72 H72        20.5572  -32.0729  -45.7052 H         1 UNK         0.1412 
     73 H73        18.2601  -29.2571  -47.9866 H         1 UNK         0.1426 
     74 H74        20.3912  -30.4715  -48.9162 H         1 UNK         0.0716 
     75 H75        21.4669  -31.2056  -47.7520 H         1 UNK         0.0716 
     76 H76        22.9265  -29.5458  -45.8083 H         1 UNK         0.0695 
     77 H77        21.2622  -29.5371  -45.2946 H         1 UNK         0.0695 
     78 H78        23.1029  -27.1314  -45.5290 H         1 UNK         0.0983 
     79 H79        20.2160  -27.0944  -45.5946 H         1 UNK         0.3095 
     80 H80        19.9376  -23.6576  -44.7097 H         1 UNK         0.0454 
     81 H81        19.6964  -24.9386  -47.4844 H         1 UNK         0.0851 
     82 H82        20.7055  -23.5544  -47.0905 H         1 UNK         0.0851 
     83 H83        18.9607  -23.4198  -46.9697 H         1 UNK         0.0851 
     84 H84        17.9329  -25.3140  -45.7124 H         1 UNK         0.2976 
     85 H85        20.7270  -27.1798  -43.0079 H         1 UNK         0.3116 
     86 H86        21.6395  -29.2045  -41.3448 H         1 UNK         0.0646 
     87 H87        19.4151  -28.1401  -41.1405 H         1 UNK         0.0847 
     88 H88        20.1586  -26.6505  -40.5473 H         1 UNK         0.0847 
     89 H89        20.2497  -28.1262  -39.5986 H         1 UNK         0.0847 
     90 H90        23.0637  -26.0415  -41.6827 H         1 UNK         0.3040 
     91 H91        24.5476  -25.9322  -39.2357 H         1 UNK         0.1015 
     92 H92        25.9199  -24.2515  -40.4874 H         1 UNK         0.0786 
     93 H93        24.2035  -23.9472  -40.6935 H         1 UNK         0.0786 
     94 H94        25.1283  -24.7061  -41.9904 H         1 UNK         0.0786 
     95 H95        25.0008  -27.8129  -42.1575 H         1 UNK         0.3172 
     96 H96        27.6844  -28.7733  -41.2144 H         1 UNK         0.0595 
     97 H97        26.5186  -28.7003  -44.0499 H         1 UNK         0.0839 
     98 H98        28.0711  -29.3912  -43.5945 H         1 UNK         0.0839 
     99 H99        27.8028  -27.6632  -43.4321 H         1 UNK         0.0839 
    100 H100       24.5087  -29.7094  -42.6200 H         1 UNK         0.2998 
    101 H101       25.0322  -32.5276  -42.5547 H         1 UNK         0.0822 
    102 H102       23.4675  -31.4862  -44.1718 H         1 UNK         0.0787 
    103 H103       22.6202  -32.6813  -43.2043 H         1 UNK         0.0787 
    104 H104       22.4058  -30.9716  -42.8640 H         1 UNK         0.0787 
    105 H105       23.7564  -30.3272  -40.1394 H         1 UNK         0.3055 
    106 H106       23.0352  -30.4889  -38.0716 H         1 UNK         0.1106 
    107 H107       24.2029  -33.3164  -37.9724 H         1 UNK         0.0828 
    108 H108       23.8462  -32.2761  -36.6042 H         1 UNK         0.0828 
    109 H109       25.1249  -31.8343  -37.7213 H         1 UNK         0.0828 
    110 H110       21.3454  -31.7219  -40.3753 H         1 UNK         0.2931 
    111 H111       19.5074  -33.4775  -39.0071 H         1 UNK         0.0412 
    112 H112       17.0844  -33.0139  -38.8924 H         1 UNK         0.3472 
    113 H113       16.6395  -31.4182  -38.3473 H         1 UNK         0.3472 
    114 H114       18.2005  -33.4191  -41.1033 H         1 UNK         0.0970 
    115 H115       19.8655  -33.8394  -41.3632 H         1 UNK         0.0970 
    116 H116       17.7396  -33.0281  -43.5235 H         1 UNK         0.0612 
    117 H117       19.3704  -33.4351  -44.0069 H         1 UNK         0.0612 
@<TRIPOS>BOND
     1    1    2 1    
     2    1   62 1    
     3    1   63 1    
     4    1   64 1    
     5    2    3 2    
     6    2    4 am   BACKBONE|DICT|INTERRES
     7    4    5 1    
     8    4   65 1    
     9    5    6 1    
    10    5   25 1    
    11    5   66 1    
    12    6    7 1    
    13    6   67 1    
    14    6   68 1    
    15    7    8 1    
    16    8    9 1    
    17    8   69 1    
    18    8   70 1    
    19    9   10 ar   
    20    9   14 ar   
    21   10   11 ar   
    22   10   71 1    
    23   11   12 ar   
    24   11   61 1    
    25   12   13 ar   
    26   12   72 1    
    27   13   14 ar   
    28   13   15 1    
    29   14   73 1    
    30   15   16 1    
    31   15   74 1    
    32   15   75 1    
    33   16   17 1    
    34   17   18 1    
    35   17   76 1    
    36   17   77 1    
    37   18   19 1    
    38   18   27 1    
    39   18   78 1    
    40   19   20 am   BACKBONE|DICT|INTERRES
    41   19   79 1    
    42   20   21 2    
    43   20   22 1    
    44   22   23 1    
    45   22   24 1    
    46   22   80 1    
    47   23   81 1    
    48   23   82 1    
    49   23   83 1    
    50   24   25 am   BACKBONE|DICT|INTERRES
    51   24   84 1    
    52   25   26 2    
    53   27   28 2    
    54   27   29 am   BACKBONE|DICT|INTERRES
    55   29   30 1    
    56   29   85 1    
    57   30   31 1    
    58   30   32 1    
    59   30   86 1    
    60   31   87 1    
    61   31   88 1    
    62   31   89 1    
    63   32   33 2    
    64   32   34 am   BACKBONE|DICT|INTERRES
    65   34   35 1    
    66   34   90 1    
    67   35   36 1    
    68   35   37 1    
    69   35   91 1    
    70   36   92 1    
    71   36   93 1    
    72   36   94 1    
    73   37   38 2    
    74   37   39 am   BACKBONE|DICT|INTERRES
    75   39   40 1    
    76   39   95 1    
    77   40   41 1    
    78   40   42 1    
    79   40   96 1    
    80   41   97 1    
    81   41   98 1    
    82   41   99 1    
    83   42   43 2    
    84   42   44 am   BACKBONE|DICT|INTERRES
    85   44   45 1    
    86   44  100 1    
    87   45   46 1    
    88   45   47 1    
    89   45  101 1    
    90   46  102 1    
    91   46  103 1    
    92   46  104 1    
    93   47   48 2    
    94   47   49 am   BACKBONE|DICT|INTERRES
    95   49   50 1    
    96   49  105 1    
    97   50   51 1    
    98   50   52 1    
    99   50  106 1    
   100   51  107 1    
   101   51  108 1    
   102   51  109 1    
   103   52   53 2    
   104   52   54 am   BACKBONE|DICT|INTERRES
   105   54   55 1    
   106   54  110 1    
   107   55   56 1    
   108   55   59 1    
   109   55  111 1    
   110   56   57 am   BACKBONE|DICT|INTERRES
   111   56   58 2    
   112   57  112 1    
   113   57  113 1    
   114   59   60 1    
   115   59  114 1    
   116   59  115 1    
   117   60   61 1    
   118   61  116 1    
   119   61  117 1    
@<TRIPOS>SUBSTRUCTURE
     1 UNK         1 GROUP             0       ****    0 ROOT    
