@<TRIPOS>MOLECULE
3R8
117   119    1
SMALL
USER_CHARGES


@<TRIPOS>ATOM
      1 CA         19.6109  -22.5221  -45.7992 C.3       0 UNK        -0.2013 
      2 C          20.0222  -23.9700  -46.0205 C.2       0 UNK         0.4866 
      3 O          21.1586  -24.2293  -46.4181 O.2       0 UNK        -0.5176 
      4 N          19.1048  -24.9124  -45.7701 N.am      1 UNK        -0.4884 
      5 CA         19.3486  -26.3583  -45.8182 C.3       1 UNK         0.0853 
      6 C6         18.0584  -27.1438  -46.1671 C.3       10 UNK        -0.0849 
      7 S7         16.6810  -26.8847  -44.9991 S.3       10 UNK        -0.2776 
      8 C8         15.7690  -28.4477  -45.1972 C.3       10 UNK         0.0316 
      9 C9         16.3093  -29.5387  -44.2844 C.ar      10 UNK        -0.0863 
     10 C10        17.0789  -30.5934  -44.7903 C.ar      10 UNK        -0.1009 
     11 C11        17.5262  -31.6210  -43.9492 C.ar      10 UNK        -0.0712 
     12 C12        17.1836  -31.5802  -42.5913 C.ar      10 UNK        -0.0894 
     13 C13        16.4333  -30.5219  -42.0731 C.ar      10 UNK        -0.0745 
     14 C14        15.9972  -29.5060  -42.9240 C.ar      10 UNK        -0.0972 
     15 C15        16.0775  -30.4913  -40.5962 C.3       10 UNK         0.0209 
     16 S16        17.5160  -30.0744  -39.5661 S.3       10 UNK        -0.2568 
     17 C17        17.7302  -28.2911  -39.8851 C.3       10 UNK        -0.0983 
     18 CA         19.2042  -27.9571  -40.2217 C.3       3 UNK         0.0876 
     19 N          19.5780  -28.3447  -41.5901 N.am      3 UNK        -0.4424 
     20 C          20.8504  -28.5029  -41.9793 C.2       2 UNK         0.4918 
     21 O          21.8097  -28.3533  -41.2256 O.2       2 UNK        -0.4875 
     22 CA         21.1302  -28.8392  -43.4543 C.3       2 UNK         0.0481 
     23 CB         21.0666  -30.3516  -43.6711 C.3       2 UNK        -0.1831 
     24 N          20.2877  -28.1739  -44.4526 N.am      2 UNK        -0.4498 
     25 C          20.0523  -26.8575  -44.5350 C.2       1 UNK         0.5027 
     26 O          20.3857  -26.0582  -43.6573 O.2       1 UNK        -0.4969 
     27 C          19.5378  -26.4835  -39.8949 C.2       3 UNK         0.5005 
     28 O          19.7251  -26.1683  -38.7184 O.2       3 UNK        -0.5279 
     29 N          19.6330  -25.6129  -40.9106 N.am      4 UNK        -0.4463 
     30 CA         20.0875  -24.2273  -40.7626 C.3       4 UNK         0.0283 
     31 CB         19.4154  -23.3426  -41.8261 C.3       4 UNK        -0.1875 
     32 C          21.6186  -24.1336  -40.8652 C.2       4 UNK         0.4949 
     33 O          22.2325  -23.3761  -40.1142 O.2       4 UNK        -0.5039 
     34 N          22.2065  -24.9108  -41.7854 N.am      5 UNK        -0.4663 
     35 CA         23.6479  -24.9695  -42.0480 C.3       5 UNK         0.0242 
     36 CB         23.8680  -25.6036  -43.4313 C.3       5 UNK        -0.1982 
     37 C          24.4556  -25.7300  -40.9782 C.2       5 UNK         0.5017 
     38 O          25.6766  -25.5763  -40.9397 O.2       5 UNK        -0.5012 
     39 N          23.7706  -26.5375  -40.1551 N.am      6 UNK        -0.4439 
     40 CA         24.3012  -27.4627  -39.1468 C.3       6 UNK         0.0297 
     41 CB         25.0805  -26.7166  -38.0422 C.3       6 UNK        -0.2006 
     42 C          25.0944  -28.6166  -39.7912 C.2       6 UNK         0.4892 
     43 O          26.2275  -28.8931  -39.3922 O.2       6 UNK        -0.5089 
     44 N          24.4708  -29.2615  -40.7840 N.am      7 UNK        -0.4243 
     45 CA         24.9826  -30.4259  -41.5060 C.3       7 UNK         0.0196 
     46 CB         25.0015  -30.1035  -43.0106 C.3       7 UNK        -0.2007 
     47 C          24.1038  -31.6541  -41.2193 C.2       7 UNK         0.5020 
     48 O          23.0054  -31.5230  -40.6766 O.2       7 UNK        -0.5147 
     49 N          24.5996  -32.8342  -41.6099 N.am      8 UNK        -0.4734 
     50 CA         23.9621  -34.1369  -41.3733 C.3       8 UNK         0.0238 
     51 CB         25.0619  -35.1608  -41.0334 C.3       8 UNK        -0.1912 
     52 C          23.0860  -34.6251  -42.5468 C.2       8 UNK         0.5038 
     53 O          22.7538  -35.8107  -42.5870 O.2       8 UNK        -0.5046 
     54 N          22.7477  -33.7286  -43.4848 N.am      9 UNK        -0.4200 
     55 CA         21.9808  -33.9953  -44.7204 C.3       9 UNK         0.0839 
     56 C          22.7604  -34.8125  -45.7965 C.2       9 UNK         0.5513 
     57 N          24.0748  -34.9674  -45.6894 N.am      9 UNK        -0.7519 
     58 O          22.1731  -35.2874  -46.7653 O.2       9 UNK        -0.4960 
     59 C59        20.5486  -34.5631  -44.4723 C.3       10 UNK        -0.0876 
     60 S60        19.5413  -33.5211  -43.3647 S.3       10 UNK        -0.2414 
     61 C61        18.3558  -32.7667  -44.5368 C.3       10 UNK         0.0169 
     62 H62        20.2676  -22.0551  -45.0656 H         1 UNK         0.0903 
     63 H63        19.6879  -21.9629  -46.7313 H         1 UNK         0.0903 
     64 H64        18.5863  -22.4398  -45.4370 H         1 UNK         0.0903 
     65 H65        18.1940  -24.6473  -45.4222 H         1 UNK         0.3096 
     66 H66        20.0587  -26.5461  -46.6271 H         1 UNK         0.1121 
     67 H67        17.7107  -26.8371  -47.1551 H         1 UNK         0.0849 
     68 H68        18.2663  -28.2105  -46.2598 H         1 UNK         0.0849 
     69 H69        14.7192  -28.2708  -44.9581 H         1 UNK         0.0865 
     70 H70        15.7874  -28.7635  -46.2416 H         1 UNK         0.0865 
     71 H71        17.3176  -30.6233  -45.8447 H         1 UNK         0.1346 
     72 H72        17.5036  -32.3677  -41.9235 H         1 UNK         0.1412 
     73 H73        15.4032  -28.6915  -42.5316 H         1 UNK         0.1426 
     74 H74        15.7041  -31.4719  -40.2976 H         1 UNK         0.0716 
     75 H75        15.2699  -29.7846  -40.3985 H         1 UNK         0.0716 
     76 H76        17.0639  -27.9524  -40.6796 H         1 UNK         0.0695 
     77 H77        17.4051  -27.7757  -38.9789 H         1 UNK         0.0695 
     78 H78        19.8308  -28.5393  -39.5409 H         1 UNK         0.0983 
     79 H79        18.8305  -28.4968  -42.2521 H         1 UNK         0.3095 
     80 H80        22.1516  -28.5189  -43.6609 H         1 UNK         0.0454 
     81 H81        21.6872  -30.8841  -42.9512 H         1 UNK         0.0851 
     82 H82        20.0491  -30.7092  -43.5393 H         1 UNK         0.0851 
     83 H83        21.4030  -30.6328  -44.6685 H         1 UNK         0.0851 
     84 H84        19.9546  -28.7626  -45.2014 H         1 UNK         0.2976 
     85 H85        19.5374  -25.9535  -41.8618 H         1 UNK         0.3116 
     86 H86        19.7915  -23.8483  -39.7819 H         1 UNK         0.0646 
     87 H87        19.7132  -22.3000  -41.7079 H         1 UNK         0.0847 
     88 H88        18.3292  -23.3804  -41.7442 H         1 UNK         0.0847 
     89 H89        19.6851  -23.6430  -42.8384 H         1 UNK         0.0847 
     90 H90        21.6081  -25.4514  -42.4062 H         1 UNK         0.3040 
     91 H91        24.0302  -23.9467  -42.0747 H         1 UNK         0.1015 
     92 H92        23.5350  -26.6409  -43.4540 H         1 UNK         0.0786 
     93 H93        24.9247  -25.5952  -43.7020 H         1 UNK         0.0786 
     94 H94        23.3291  -25.0613  -44.2092 H         1 UNK         0.0786 
     95 H95        22.7834  -26.6461  -40.3538 H         1 UNK         0.3172 
     96 H96        23.4305  -27.9209  -38.6750 H         1 UNK         0.0595 
     97 H97        25.3528  -27.3965  -37.2341 H         1 UNK         0.0839 
     98 H98        26.0051  -26.2777  -38.4178 H         1 UNK         0.0839 
     99 H99        24.4821  -25.9171  -37.6056 H         1 UNK         0.0839 
    100 H100       23.5040  -29.0084  -40.9807 H         1 UNK         0.2998 
    101 H101       25.9999  -30.6562  -41.1822 H         1 UNK         0.0822 
    102 H102       25.4448  -30.9169  -43.5859 H         1 UNK         0.0787 
    103 H103       23.9999  -29.9350  -43.4028 H         1 UNK         0.0787 
    104 H104       25.5915  -29.2093  -43.2134 H         1 UNK         0.0787 
    105 H105       25.5005  -32.8542  -42.0683 H         1 UNK         0.3055 
    106 H106       23.2994  -34.0636  -40.5076 H         1 UNK         0.1106 
    107 H107       25.6626  -34.8311  -40.1855 H         1 UNK         0.0828 
    108 H108       24.6333  -36.1265  -40.7618 H         1 UNK         0.0828 
    109 H109       25.7332  -35.3282  -41.8765 H         1 UNK         0.0828 
    110 H110       23.0781  -32.7836  -43.3672 H         1 UNK         0.2931 
    111 H111       21.8494  -33.0156  -45.1802 H         1 UNK         0.0412 
    112 H112       24.5690  -35.4877  -46.3975 H         1 UNK         0.3472 
    113 H113       24.5757  -34.5769  -44.9081 H         1 UNK         0.3472 
    114 H114       20.6017  -35.5649  -44.0444 H         1 UNK         0.0970 
    115 H115       20.0142  -34.6797  -45.4167 H         1 UNK         0.0970 
    116 H116       18.9164  -32.4026  -45.3993 H         1 UNK         0.0612 
    117 H117       17.6791  -33.5395  -44.9033 H         1 UNK         0.0612 
@<TRIPOS>BOND
     1    1    2 1    
     2    1   62 1    
     3    1   63 1    
     4    1   64 1    
     5    2    3 2    
     6    2    4 am   BACKBONE|DICT|INTERRES
     7    4    5 1    
     8    4   65 1    
     9    5    6 1    
    10    5   25 1    
    11    5   66 1    
    12    6    7 1    
    13    6   67 1    
    14    6   68 1    
    15    7    8 1    
    16    8    9 1    
    17    8   69 1    
    18    8   70 1    
    19    9   10 ar   
    20    9   14 ar   
    21   10   11 ar   
    22   10   71 1    
    23   11   12 ar   
    24   11   61 1    
    25   12   13 ar   
    26   12   72 1    
    27   13   14 ar   
    28   13   15 1    
    29   14   73 1    
    30   15   16 1    
    31   15   74 1    
    32   15   75 1    
    33   16   17 1    
    34   17   18 1    
    35   17   76 1    
    36   17   77 1    
    37   18   19 1    
    38   18   27 1    
    39   18   78 1    
    40   19   20 am   BACKBONE|DICT|INTERRES
    41   19   79 1    
    42   20   21 2    
    43   20   22 1    
    44   22   23 1    
    45   22   24 1    
    46   22   80 1    
    47   23   81 1    
    48   23   82 1    
    49   23   83 1    
    50   24   25 am   BACKBONE|DICT|INTERRES
    51   24   84 1    
    52   25   26 2    
    53   27   28 2    
    54   27   29 am   BACKBONE|DICT|INTERRES
    55   29   30 1    
    56   29   85 1    
    57   30   31 1    
    58   30   32 1    
    59   30   86 1    
    60   31   87 1    
    61   31   88 1    
    62   31   89 1    
    63   32   33 2    
    64   32   34 am   BACKBONE|DICT|INTERRES
    65   34   35 1    
    66   34   90 1    
    67   35   36 1    
    68   35   37 1    
    69   35   91 1    
    70   36   92 1    
    71   36   93 1    
    72   36   94 1    
    73   37   38 2    
    74   37   39 am   BACKBONE|DICT|INTERRES
    75   39   40 1    
    76   39   95 1    
    77   40   41 1    
    78   40   42 1    
    79   40   96 1    
    80   41   97 1    
    81   41   98 1    
    82   41   99 1    
    83   42   43 2    
    84   42   44 am   BACKBONE|DICT|INTERRES
    85   44   45 1    
    86   44  100 1    
    87   45   46 1    
    88   45   47 1    
    89   45  101 1    
    90   46  102 1    
    91   46  103 1    
    92   46  104 1    
    93   47   48 2    
    94   47   49 am   BACKBONE|DICT|INTERRES
    95   49   50 1    
    96   49  105 1    
    97   50   51 1    
    98   50   52 1    
    99   50  106 1    
   100   51  107 1    
   101   51  108 1    
   102   51  109 1    
   103   52   53 2    
   104   52   54 am   BACKBONE|DICT|INTERRES
   105   54   55 1    
   106   54  110 1    
   107   55   56 1    
   108   55   59 1    
   109   55  111 1    
   110   56   57 am   BACKBONE|DICT|INTERRES
   111   56   58 2    
   112   57  112 1    
   113   57  113 1    
   114   59   60 1    
   115   59  114 1    
   116   59  115 1    
   117   60   61 1    
   118   61  116 1    
   119   61  117 1    
@<TRIPOS>SUBSTRUCTURE
     1 UNK         1 GROUP             0       ****    0 ROOT    
