@<TRIPOS>MOLECULE
3R8
117   119    1
SMALL
USER_CHARGES


@<TRIPOS>ATOM
      1 CA         18.1370  -28.6545  -42.0273 C.3       0 UNK        -0.2013 
      2 C          17.7106  -27.2895  -42.5361 C.2       0 UNK         0.4866 
      3 O          18.0169  -26.2823  -41.9010 O.2       0 UNK        -0.5176 
      4 N          17.0221  -27.2512  -43.6852 N.am      1 UNK        -0.4884 
      5 CA         16.4279  -26.0473  -44.2898 C.3       1 UNK         0.0853 
      6 C6         15.5651  -26.3869  -45.5284 C.3       10 UNK        -0.0849 
      7 S7         14.2710  -27.6169  -45.1499 S.3       10 UNK        -0.2776 
      8 C8         14.7285  -28.9994  -46.2446 C.3       10 UNK         0.0316 
      9 C9         15.9532  -29.7697  -45.7623 C.ar      10 UNK        -0.0863 
     10 C10        15.8459  -30.6491  -44.6792 C.ar      10 UNK        -0.1009 
     11 C11        16.9269  -31.4535  -44.3001 C.ar      10 UNK        -0.0712 
     12 C12        18.1263  -31.3605  -45.0128 C.ar      10 UNK        -0.0894 
     13 C13        18.2589  -30.4653  -46.0779 C.ar      10 UNK        -0.0745 
     14 C14        17.1690  -29.6705  -46.4477 C.ar      10 UNK        -0.0972 
     15 C15        19.5616  -30.4078  -46.8665 C.3       10 UNK         0.0209 
     16 S16        20.5133  -28.8895  -46.5488 S.3       10 UNK        -0.2568 
     17 C17        21.0001  -29.1069  -44.8027 C.3       10 UNK        -0.0983 
     18 CA         21.6342  -27.8336  -44.1814 C.3       3 UNK         0.0876 
     19 N          20.7621  -26.6697  -44.3623 N.am      3 UNK        -0.4424 
     20 C          21.0289  -25.5938  -45.1143 C.2       2 UNK         0.4918 
     21 O          22.1395  -25.3377  -45.5798 O.2       2 UNK        -0.4875 
     22 CA         19.8291  -24.6793  -45.4296 C.3       2 UNK         0.0481 
     23 CB         19.8854  -24.1108  -46.8592 C.3       2 UNK        -0.1831 
     24 N          18.5807  -25.4241  -45.2468 N.am      2 UNK        -0.4498 
     25 C          17.4800  -24.9743  -44.6353 C.2       1 UNK         0.5027 
     26 O          17.2990  -23.8014  -44.3058 O.2       1 UNK        -0.4969 
     27 C          21.9653  -28.0549  -42.6904 C.2       3 UNK         0.5005 
     28 O          22.5651  -29.0760  -42.3464 O.2       3 UNK        -0.5279 
     29 N          21.5611  -27.1207  -41.8142 N.am      4 UNK        -0.4463 
     30 CA         21.8000  -27.1730  -40.3687 C.3       4 UNK         0.0283 
     31 CB         20.9944  -26.0698  -39.6664 C.3       4 UNK        -0.1875 
     32 C          23.2905  -27.0706  -40.0118 C.2       4 UNK         0.4949 
     33 O          23.7536  -27.7843  -39.1214 O.2       4 UNK        -0.5039 
     34 N          24.0163  -26.2278  -40.7613 N.am      5 UNK        -0.4663 
     35 CA         25.4627  -26.0124  -40.6528 C.3       5 UNK         0.0242 
     36 CB         25.8507  -24.7949  -41.5076 C.3       5 UNK        -0.1982 
     37 C          26.3100  -27.2365  -41.0459 C.2       5 UNK         0.5017 
     38 O          27.4742  -27.3077  -40.6538 O.2       5 UNK        -0.5012 
     39 N          25.7114  -28.1914  -41.7718 N.am      6 UNK        -0.4439 
     40 CA         26.2977  -29.4860  -42.1251 C.3       6 UNK         0.0297 
     41 CB         25.8317  -29.8777  -43.5397 C.3       6 UNK        -0.2006 
     42 C          25.9856  -30.5660  -41.0657 C.2       6 UNK         0.4892 
     43 O          25.8889  -31.7439  -41.4104 O.2       6 UNK        -0.5089 
     44 N          25.8540  -30.1403  -39.7996 N.am      7 UNK        -0.4243 
     45 CA         25.5766  -30.9292  -38.5967 C.3       7 UNK         0.0196 
     46 CB         26.7038  -31.9501  -38.3245 C.3       7 UNK        -0.2007 
     47 C          24.1708  -31.5551  -38.6118 C.2       7 UNK         0.5020 
     48 O          24.0430  -32.7707  -38.4612 O.2       7 UNK        -0.5147 
     49 N          23.1519  -30.6909  -38.7526 N.am      8 UNK        -0.4734 
     50 CA         21.7111  -30.9849  -38.7034 C.3       8 UNK         0.0238 
     51 CB         21.3013  -31.4993  -37.3064 C.3       8 UNK        -0.1912 
     52 C          21.2593  -31.9330  -39.8295 C.2       8 UNK         0.5038 
     53 O          21.2062  -33.1471  -39.6241 O.2       8 UNK        -0.5046 
     54 N          20.9419  -31.3497  -40.9934 N.am      9 UNK        -0.4200 
     55 CA         20.6028  -32.0500  -42.2455 C.3       9 UNK         0.0839 
     56 C          21.8532  -32.7074  -42.8942 C.2       9 UNK         0.5513 
     57 N          22.9786  -32.0071  -42.9218 N.am      9 UNK        -0.7519 
     58 O          21.8104  -33.8351  -43.3796 O.2       9 UNK        -0.4960 
     59 C59        19.3708  -33.0008  -42.1471 C.3       10 UNK        -0.0876 
     60 S60        17.8247  -32.1248  -41.7242 S.3       10 UNK        -0.2414 
     61 C61        16.7667  -32.4690  -43.1716 C.3       10 UNK         0.0169 
     62 H62        19.1095  -28.6016  -41.5407 H         1 UNK         0.0903 
     63 H63        17.4153  -29.0224  -41.2986 H         1 UNK         0.0903 
     64 H64        18.2018  -29.3769  -42.8381 H         1 UNK         0.0903 
     65 H65        16.7796  -28.1200  -44.1450 H         1 UNK         0.3096 
     66 H66        15.7714  -25.6082  -43.5349 H         1 UNK         0.1121 
     67 H67        16.1878  -26.7490  -46.3484 H         1 UNK         0.0849 
     68 H68        15.0691  -25.4885  -45.9017 H         1 UNK         0.0849 
     69 H69        13.8830  -29.6865  -46.3029 H         1 UNK         0.0865 
     70 H70        14.8759  -28.6272  -47.2598 H         1 UNK         0.0865 
     71 H71        14.9026  -30.7337  -44.1563 H         1 UNK         0.1346 
     72 H72        18.9568  -31.9992  -44.7542 H         1 UNK         0.1412 
     73 H73        17.2613  -29.0030  -47.2940 H         1 UNK         0.1426 
     74 H74        20.1892  -31.2732  -46.6471 H         1 UNK         0.0716 
     75 H75        19.3354  -30.4611  -47.9324 H         1 UNK         0.0716 
     76 H76        21.6909  -29.9503  -44.7470 H         1 UNK         0.0695 
     77 H77        20.1111  -29.3904  -44.2412 H         1 UNK         0.0695 
     78 H78        22.5917  -27.6596  -44.6771 H         1 UNK         0.0983 
     79 H79        19.8279  -26.7565  -43.9920 H         1 UNK         0.3095 
     80 H80        19.8746  -23.8506  -44.7202 H         1 UNK         0.0454 
     81 H81        19.0308  -23.4655  -47.0624 H         1 UNK         0.0851 
     82 H82        19.8920  -24.9049  -47.6067 H         1 UNK         0.0851 
     83 H83        20.7841  -23.5114  -47.0096 H         1 UNK         0.0851 
     84 H84        18.6072  -26.3961  -45.5246 H         1 UNK         0.2976 
     85 H85        21.0777  -26.3065  -42.1657 H         1 UNK         0.3116 
     86 H86        21.4365  -28.1343  -40.0083 H         1 UNK         0.0646 
     87 H87        19.9249  -26.1851  -39.8442 H         1 UNK         0.0847 
     88 H88        21.1458  -26.1040  -38.5865 H         1 UNK         0.0847 
     89 H89        21.2850  -25.0744  -40.0043 H         1 UNK         0.0847 
     90 H90        23.5359  -25.6946  -41.4716 H         1 UNK         0.3040 
     91 H91        25.6898  -25.7877  -39.6081 H         1 UNK         0.1015 
     92 H92        25.6297  -24.9553  -42.5638 H         1 UNK         0.0786 
     93 H93        26.9182  -24.5845  -41.4268 H         1 UNK         0.0786 
     94 H94        25.3219  -23.8977  -41.1850 H         1 UNK         0.0786 
     95 H95        24.7314  -28.0758  -41.9928 H         1 UNK         0.3172 
     96 H96        27.3852  -29.3931  -42.1578 H         1 UNK         0.0595 
     97 H97        24.7491  -29.9802  -43.5976 H         1 UNK         0.0839 
     98 H98        26.2689  -30.8268  -43.8526 H         1 UNK         0.0839 
     99 H99        26.1330  -29.1305  -44.2739 H         1 UNK         0.0839 
    100 H100       25.9230  -29.1435  -39.6476 H         1 UNK         0.2998 
    101 H101       25.5805  -30.2211  -37.7662 H         1 UNK         0.0822 
    102 H102       26.5515  -32.4500  -37.3672 H         1 UNK         0.0787 
    103 H103       26.7468  -32.7258  -39.0897 H         1 UNK         0.0787 
    104 H104       27.6785  -31.4640  -38.2843 H         1 UNK         0.0787 
    105 H105       23.3919  -29.7117  -38.8867 H         1 UNK         0.3055 
    106 H106       21.1882  -30.0397  -38.8453 H         1 UNK         0.1106 
    107 H107       21.5628  -30.7828  -36.5278 H         1 UNK         0.0828 
    108 H108       20.2234  -31.6573  -37.2531 H         1 UNK         0.0828 
    109 H109       21.7773  -32.4489  -37.0602 H         1 UNK         0.0828 
    110 H110       21.1046  -30.3582  -41.0940 H         1 UNK         0.2931 
    111 H111       20.3228  -31.2618  -42.9410 H         1 UNK         0.0412 
    112 H112       23.8140  -32.4196  -43.3047 H         1 UNK         0.3472 
    113 H113       23.0000  -31.0630  -42.5551 H         1 UNK         0.3472 
    114 H114       19.5371  -33.7850  -41.4087 H         1 UNK         0.0970 
    115 H115       19.2277  -33.5336  -43.0875 H         1 UNK         0.0970 
    116 H116       15.7319  -32.4799  -42.8259 H         1 UNK         0.0612 
    117 H117       16.9604  -33.4731  -43.5507 H         1 UNK         0.0612 
@<TRIPOS>BOND
     1    1    2 1    
     2    1   62 1    
     3    1   63 1    
     4    1   64 1    
     5    2    3 2    
     6    2    4 am   BACKBONE|DICT|INTERRES
     7    4    5 1    
     8    4   65 1    
     9    5    6 1    
    10    5   25 1    
    11    5   66 1    
    12    6    7 1    
    13    6   67 1    
    14    6   68 1    
    15    7    8 1    
    16    8    9 1    
    17    8   69 1    
    18    8   70 1    
    19    9   10 ar   
    20    9   14 ar   
    21   10   11 ar   
    22   10   71 1    
    23   11   12 ar   
    24   11   61 1    
    25   12   13 ar   
    26   12   72 1    
    27   13   14 ar   
    28   13   15 1    
    29   14   73 1    
    30   15   16 1    
    31   15   74 1    
    32   15   75 1    
    33   16   17 1    
    34   17   18 1    
    35   17   76 1    
    36   17   77 1    
    37   18   19 1    
    38   18   27 1    
    39   18   78 1    
    40   19   20 am   BACKBONE|DICT|INTERRES
    41   19   79 1    
    42   20   21 2    
    43   20   22 1    
    44   22   23 1    
    45   22   24 1    
    46   22   80 1    
    47   23   81 1    
    48   23   82 1    
    49   23   83 1    
    50   24   25 am   BACKBONE|DICT|INTERRES
    51   24   84 1    
    52   25   26 2    
    53   27   28 2    
    54   27   29 am   BACKBONE|DICT|INTERRES
    55   29   30 1    
    56   29   85 1    
    57   30   31 1    
    58   30   32 1    
    59   30   86 1    
    60   31   87 1    
    61   31   88 1    
    62   31   89 1    
    63   32   33 2    
    64   32   34 am   BACKBONE|DICT|INTERRES
    65   34   35 1    
    66   34   90 1    
    67   35   36 1    
    68   35   37 1    
    69   35   91 1    
    70   36   92 1    
    71   36   93 1    
    72   36   94 1    
    73   37   38 2    
    74   37   39 am   BACKBONE|DICT|INTERRES
    75   39   40 1    
    76   39   95 1    
    77   40   41 1    
    78   40   42 1    
    79   40   96 1    
    80   41   97 1    
    81   41   98 1    
    82   41   99 1    
    83   42   43 2    
    84   42   44 am   BACKBONE|DICT|INTERRES
    85   44   45 1    
    86   44  100 1    
    87   45   46 1    
    88   45   47 1    
    89   45  101 1    
    90   46  102 1    
    91   46  103 1    
    92   46  104 1    
    93   47   48 2    
    94   47   49 am   BACKBONE|DICT|INTERRES
    95   49   50 1    
    96   49  105 1    
    97   50   51 1    
    98   50   52 1    
    99   50  106 1    
   100   51  107 1    
   101   51  108 1    
   102   51  109 1    
   103   52   53 2    
   104   52   54 am   BACKBONE|DICT|INTERRES
   105   54   55 1    
   106   54  110 1    
   107   55   56 1    
   108   55   59 1    
   109   55  111 1    
   110   56   57 am   BACKBONE|DICT|INTERRES
   111   56   58 2    
   112   57  112 1    
   113   57  113 1    
   114   59   60 1    
   115   59  114 1    
   116   59  115 1    
   117   60   61 1    
   118   61  116 1    
   119   61  117 1    
@<TRIPOS>SUBSTRUCTURE
     1 UNK         1 GROUP             0       ****    0 ROOT    
