@<TRIPOS>MOLECULE
3R8
117   119    1
SMALL
USER_CHARGES


@<TRIPOS>ATOM
      1 CA         14.7201  -26.6283  -39.5555 C.3       0 UNK        -0.2013 
      2 C          15.9379  -26.9134  -40.4211 C.2       0 UNK         0.4866 
      3 O          17.0236  -27.1315  -39.8844 O.2       0 UNK        -0.5176 
      4 N          15.7576  -26.9098  -41.7499 N.am      1 UNK        -0.4884 
      5 CA         16.7620  -27.1453  -42.7990 C.3       1 UNK         0.0853 
      6 C6         17.4483  -28.5355  -42.7334 C.3       10 UNK        -0.0849 
      7 S7         16.2822  -29.9464  -42.7891 S.3       10 UNK        -0.2776 
      8 C8         16.2817  -30.4661  -44.5409 C.3       10 UNK         0.0316 
      9 C9         17.6838  -30.5726  -45.1219 C.ar      10 UNK        -0.0863 
     10 C10        18.5622  -31.5748  -44.6970 C.ar      10 UNK        -0.1009 
     11 C11        19.8828  -31.5994  -45.1588 C.ar      10 UNK        -0.0712 
     12 C12        20.3138  -30.6271  -46.0663 C.ar      10 UNK        -0.0894 
     13 C13        19.4391  -29.6282  -46.5018 C.ar      10 UNK        -0.0745 
     14 C14        18.1218  -29.6168  -46.0416 C.ar      10 UNK        -0.0972 
     15 C15        19.9222  -28.5219  -47.4238 C.3       10 UNK         0.0209 
     16 S16        20.1662  -26.9723  -46.5003 S.3       10 UNK        -0.2568 
     17 C17        21.6301  -27.3961  -45.5038 C.3       10 UNK        -0.0983 
     18 CA         22.0416  -26.2282  -44.5773 C.3       3 UNK         0.0876 
     19 N          21.1224  -26.0890  -43.4441 N.am      3 UNK        -0.4424 
     20 C          20.7728  -24.9191  -42.8972 C.2       2 UNK         0.4918 
     21 O          21.1871  -23.8290  -43.2972 O.2       2 UNK        -0.4875 
     22 CA         19.7928  -24.9795  -41.7067 C.3       2 UNK         0.0481 
     23 CB         19.2200  -23.5976  -41.3289 C.3       2 UNK        -0.1831 
     24 N          18.7063  -25.9490  -41.8904 N.am      2 UNK        -0.4498 
     25 C          17.7928  -25.9979  -42.8720 C.2       1 UNK         0.5027 
     26 O          17.7225  -25.1840  -43.7936 O.2       1 UNK        -0.4969 
     27 C          23.4811  -26.4288  -44.0747 C.2       3 UNK         0.5005 
     28 O          23.6955  -26.9324  -42.9705 O.2       3 UNK        -0.5279 
     29 N          24.4555  -26.0966  -44.9326 N.am      4 UNK        -0.4463 
     30 CA         25.8930  -26.2618  -44.6815 C.3       4 UNK         0.0283 
     31 CB         26.6792  -25.5396  -45.7885 C.3       4 UNK        -0.1875 
     32 C          26.3597  -27.7276  -44.5580 C.2       4 UNK         0.4949 
     33 O          27.4842  -27.9563  -44.1125 O.2       4 UNK        -0.5039 
     34 N          25.5060  -28.6829  -44.9574 N.am      5 UNK        -0.4663 
     35 CA         25.7266  -30.1267  -44.8622 C.3       5 UNK         0.0242 
     36 CB         24.5517  -30.8701  -45.5239 C.3       5 UNK        -0.1982 
     37 C          25.9414  -30.6037  -43.4156 C.2       5 UNK         0.5017 
     38 O          26.9846  -31.1919  -43.1277 O.2       5 UNK        -0.5012 
     39 N          24.9645  -30.3279  -42.5400 N.am      6 UNK        -0.4439 
     40 CA         24.9793  -30.6961  -41.1210 C.3       6 UNK         0.0297 
     41 CB         24.9165  -32.2324  -40.9449 C.3       6 UNK        -0.2006 
     42 C          23.8720  -29.9693  -40.3354 C.2       6 UNK         0.4892 
     43 O          23.2787  -30.5691  -39.4362 O.2       6 UNK        -0.5089 
     44 N          23.6009  -28.6981  -40.6759 N.am      7 UNK        -0.4243 
     45 CA         22.5723  -27.8314  -40.0864 C.3       7 UNK         0.0196 
     46 CB         22.9193  -27.4680  -38.6237 C.3       7 UNK        -0.2007 
     47 C          21.1675  -28.4283  -40.2736 C.2       7 UNK         0.5020 
     48 O          20.6269  -28.3514  -41.3771 O.2       7 UNK        -0.5147 
     49 N          20.6176  -29.0132  -39.2026 N.am      8 UNK        -0.4734 
     50 CA         19.3433  -29.7326  -39.1942 C.3       8 UNK         0.0238 
     51 CB         18.8349  -29.8261  -37.7462 C.3       8 UNK        -0.1912 
     52 C          19.4200  -31.1336  -39.8294 C.2       8 UNK         0.5038 
     53 O          18.3711  -31.6892  -40.1581 O.2       8 UNK        -0.5046 
     54 N          20.6353  -31.6864  -39.9636 N.am      9 UNK        -0.4200 
     55 CA         20.9250  -33.0521  -40.4305 C.3       9 UNK         0.0839 
     56 C          20.3555  -34.1582  -39.4866 C.2       9 UNK         0.5513 
     57 N          20.3361  -35.4151  -39.9121 N.am      9 UNK        -0.7519 
     58 O          19.9821  -33.9066  -38.3420 O.2       9 UNK        -0.4960 
     59 C59        20.5736  -33.2589  -41.9345 C.3       10 UNK        -0.0876 
     60 S60        21.5552  -32.1908  -43.0410 S.3       10 UNK        -0.2414 
     61 C61        20.8596  -32.6518  -44.6591 C.3       10 UNK         0.0169 
     62 H62        14.8947  -25.7438  -38.9435 H         1 UNK         0.0903 
     63 H63        13.8241  -26.4575  -40.1519 H         1 UNK         0.0903 
     64 H64        14.5293  -27.4704  -38.8907 H         1 UNK         0.0903 
     65 H65        14.8330  -26.7044  -42.1032 H         1 UNK         0.3096 
     66 H66        16.2138  -27.1123  -43.7424 H         1 UNK         0.1121 
     67 H67        18.1999  -28.6232  -43.5166 H         1 UNK         0.0849 
     68 H68        18.0119  -28.6367  -41.8099 H         1 UNK         0.0849 
     69 H69        15.7812  -31.4317  -44.6246 H         1 UNK         0.0865 
     70 H70        15.6780  -29.7614  -45.1150 H         1 UNK         0.0865 
     71 H71        18.2286  -32.3070  -43.9750 H         1 UNK         0.1346 
     72 H72        21.3387  -30.6304  -46.4108 H         1 UNK         0.1412 
     73 H73        17.4552  -28.8267  -46.3605 H         1 UNK         0.1426 
     74 H74        19.1854  -28.3554  -48.2109 H         1 UNK         0.0716 
     75 H75        20.8501  -28.8034  -47.9241 H         1 UNK         0.0716 
     76 H76        21.4303  -28.2950  -44.9174 H         1 UNK         0.0695 
     77 H77        22.4271  -27.6529  -46.2044 H         1 UNK         0.0695 
     78 H78        22.0318  -25.3065  -45.1642 H         1 UNK         0.0983 
     79 H79        20.8123  -26.9465  -43.0003 H         1 UNK         0.3095 
     80 H80        20.3733  -25.3367  -40.8553 H         1 UNK         0.0454 
     81 H81        20.0173  -22.9010  -41.0667 H         1 UNK         0.0851 
     82 H82        18.5557  -23.6660  -40.4675 H         1 UNK         0.0851 
     83 H83        18.6583  -23.1542  -42.1516 H         1 UNK         0.0851 
     84 H84        18.6112  -26.6434  -41.1565 H         1 UNK         0.2976 
     85 H85        24.2017  -25.7034  -45.8285 H         1 UNK         0.3116 
     86 H86        26.1203  -25.7754  -43.7304 H         1 UNK         0.0646 
     87 H87        26.4847  -25.9723  -46.7707 H         1 UNK         0.0847 
     88 H88        26.4271  -24.4798  -45.8304 H         1 UNK         0.0847 
     89 H89        27.7539  -25.6055  -45.6123 H         1 UNK         0.0847 
     90 H90        24.6158  -28.3843  -45.3241 H         1 UNK         0.3040 
     91 H91        26.6355  -30.3594  -45.4216 H         1 UNK         0.1015 
     92 H92        24.6827  -31.9507  -45.4503 H         1 UNK         0.0786 
     93 H93        24.4759  -30.6271  -46.5839 H         1 UNK         0.0786 
     94 H94        23.5967  -30.6272  -45.0562 H         1 UNK         0.0786 
     95 H95        24.1406  -29.8425  -42.8684 H         1 UNK         0.3172 
     96 H96        25.9219  -30.3464  -40.6955 H         1 UNK         0.0595 
     97 H97        24.0369  -32.6534  -41.4294 H         1 UNK         0.0839 
     98 H98        24.8802  -32.5143  -39.8919 H         1 UNK         0.0839 
     99 H99        25.7920  -32.7261  -41.3649 H         1 UNK         0.0839 
    100 H100       24.0893  -28.2751  -41.4585 H         1 UNK         0.2998 
    101 H101       22.5798  -26.9003  -40.6536 H         1 UNK         0.0822 
    102 H102       22.1586  -26.8168  -38.1909 H         1 UNK         0.0787 
    103 H103       23.8651  -26.9284  -38.5743 H         1 UNK         0.0787 
    104 H104       23.0113  -28.3433  -37.9804 H         1 UNK         0.0787 
    105 H105       21.1634  -29.0472  -38.3534 H         1 UNK         0.3055 
    106 H106       18.6164  -29.1584  -39.7657 H         1 UNK         0.1106 
    107 H107       18.7017  -28.8365  -37.3086 H         1 UNK         0.0828 
    108 H108       17.8669  -30.3275  -37.7059 H         1 UNK         0.0828 
    109 H109       19.5204  -30.3895  -37.1119 H         1 UNK         0.0828 
    110 H110       21.4470  -31.1564  -39.6611 H         1 UNK         0.2931 
    111 H111       22.0052  -33.1526  -40.3291 H         1 UNK         0.0412 
    112 H112       19.9887  -36.1317  -39.2934 H         1 UNK         0.3472 
    113 H113       20.6722  -35.6679  -40.8275 H         1 UNK         0.3472 
    114 H114       20.7688  -34.2856  -42.2444 H         1 UNK         0.0970 
    115 H115       19.5115  -33.0853  -42.1095 H         1 UNK         0.0970 
    116 H116       20.3678  -33.6241  -44.6042 H         1 UNK         0.0612 
    117 H117       21.6812  -32.7689  -45.3674 H         1 UNK         0.0612 
@<TRIPOS>BOND
     1    1    2 1    
     2    1   62 1    
     3    1   63 1    
     4    1   64 1    
     5    2    3 2    
     6    2    4 am   BACKBONE|DICT|INTERRES
     7    4    5 1    
     8    4   65 1    
     9    5    6 1    
    10    5   25 1    
    11    5   66 1    
    12    6    7 1    
    13    6   67 1    
    14    6   68 1    
    15    7    8 1    
    16    8    9 1    
    17    8   69 1    
    18    8   70 1    
    19    9   10 ar   
    20    9   14 ar   
    21   10   11 ar   
    22   10   71 1    
    23   11   12 ar   
    24   11   61 1    
    25   12   13 ar   
    26   12   72 1    
    27   13   14 ar   
    28   13   15 1    
    29   14   73 1    
    30   15   16 1    
    31   15   74 1    
    32   15   75 1    
    33   16   17 1    
    34   17   18 1    
    35   17   76 1    
    36   17   77 1    
    37   18   19 1    
    38   18   27 1    
    39   18   78 1    
    40   19   20 am   BACKBONE|DICT|INTERRES
    41   19   79 1    
    42   20   21 2    
    43   20   22 1    
    44   22   23 1    
    45   22   24 1    
    46   22   80 1    
    47   23   81 1    
    48   23   82 1    
    49   23   83 1    
    50   24   25 am   BACKBONE|DICT|INTERRES
    51   24   84 1    
    52   25   26 2    
    53   27   28 2    
    54   27   29 am   BACKBONE|DICT|INTERRES
    55   29   30 1    
    56   29   85 1    
    57   30   31 1    
    58   30   32 1    
    59   30   86 1    
    60   31   87 1    
    61   31   88 1    
    62   31   89 1    
    63   32   33 2    
    64   32   34 am   BACKBONE|DICT|INTERRES
    65   34   35 1    
    66   34   90 1    
    67   35   36 1    
    68   35   37 1    
    69   35   91 1    
    70   36   92 1    
    71   36   93 1    
    72   36   94 1    
    73   37   38 2    
    74   37   39 am   BACKBONE|DICT|INTERRES
    75   39   40 1    
    76   39   95 1    
    77   40   41 1    
    78   40   42 1    
    79   40   96 1    
    80   41   97 1    
    81   41   98 1    
    82   41   99 1    
    83   42   43 2    
    84   42   44 am   BACKBONE|DICT|INTERRES
    85   44   45 1    
    86   44  100 1    
    87   45   46 1    
    88   45   47 1    
    89   45  101 1    
    90   46  102 1    
    91   46  103 1    
    92   46  104 1    
    93   47   48 2    
    94   47   49 am   BACKBONE|DICT|INTERRES
    95   49   50 1    
    96   49  105 1    
    97   50   51 1    
    98   50   52 1    
    99   50  106 1    
   100   51  107 1    
   101   51  108 1    
   102   51  109 1    
   103   52   53 2    
   104   52   54 am   BACKBONE|DICT|INTERRES
   105   54   55 1    
   106   54  110 1    
   107   55   56 1    
   108   55   59 1    
   109   55  111 1    
   110   56   57 am   BACKBONE|DICT|INTERRES
   111   56   58 2    
   112   57  112 1    
   113   57  113 1    
   114   59   60 1    
   115   59  114 1    
   116   59  115 1    
   117   60   61 1    
   118   61  116 1    
   119   61  117 1    
@<TRIPOS>SUBSTRUCTURE
     1 UNK         1 GROUP             0       ****    0 ROOT    
