@<TRIPOS>MOLECULE
3R8
117   119    1
SMALL
USER_CHARGES


@<TRIPOS>ATOM
      1 CA         15.6845  -30.7532  -42.3268 C.3       0 UNK        -0.2013 
      2 C          15.3736  -29.2720  -42.4702 C.2       0 UNK         0.4866 
      3 O          14.4848  -28.7661  -41.7850 O.2       0 UNK        -0.5176 
      4 N          16.0917  -28.5778  -43.3618 N.am      1 UNK        -0.4884 
      5 CA         15.9764  -27.1333  -43.5894 C.3       1 UNK         0.0853 
      6 C6         16.6296  -26.6672  -44.9150 C.3       10 UNK        -0.0849 
      7 S7         15.7445  -27.2357  -46.4092 S.3       10 UNK        -0.2776 
      8 C8         16.2560  -28.9792  -46.6212 C.3       10 UNK         0.0316 
      9 C9         17.7488  -29.2265  -46.4296 C.ar      10 UNK        -0.0863 
     10 C10        18.1820  -30.2580  -45.5918 C.ar      10 UNK        -0.1009 
     11 C11        19.5458  -30.4988  -45.4013 C.ar      10 UNK        -0.0712 
     12 C12        20.4845  -29.6999  -46.0619 C.ar      10 UNK        -0.0894 
     13 C13        20.0636  -28.6800  -46.9219 C.ar      10 UNK        -0.0745 
     14 C14        18.6969  -28.4522  -47.1048 C.ar      10 UNK        -0.0972 
     15 C15        21.0735  -27.8417  -47.6901 C.3       10 UNK         0.0209 
     16 S16        21.3039  -26.1999  -46.9408 S.3       10 UNK        -0.2568 
     17 C17        22.4517  -26.5726  -45.5766 C.3       10 UNK        -0.0983 
     18 CA         21.9262  -26.0708  -44.2113 C.3       3 UNK         0.0876 
     19 N          20.7090  -26.7709  -43.7880 N.am      3 UNK        -0.4424 
     20 C          19.9271  -26.3584  -42.7835 C.2       2 UNK         0.4918 
     21 O          20.0762  -25.2844  -42.1942 O.2       2 UNK        -0.4875 
     22 CA         18.8149  -27.3157  -42.3358 C.3       2 UNK         0.0481 
     23 CB         19.3301  -28.2094  -41.1960 C.3       2 UNK        -0.1831 
     24 N          17.6878  -26.5248  -41.8366 N.am      2 UNK        -0.4498 
     25 C          16.4799  -26.3070  -42.3814 C.2       1 UNK         0.5027 
     26 O          15.7288  -25.4529  -41.9122 O.2       1 UNK        -0.4969 
     27 C          23.0154  -26.2504  -43.1391 C.2       3 UNK         0.5005 
     28 O          23.1818  -27.3645  -42.6423 O.2       3 UNK        -0.5279 
     29 N          23.7662  -25.1824  -42.8321 N.am      4 UNK        -0.4463 
     30 CA         24.8051  -25.1546  -41.7908 C.3       4 UNK         0.0283 
     31 CB         25.3977  -23.7395  -41.6983 C.3       4 UNK        -0.1875 
     32 C          25.9288  -26.1930  -41.9729 C.2       4 UNK         0.4949 
     33 O          26.4899  -26.6592  -40.9819 O.2       4 UNK        -0.5039 
     34 N          26.2108  -26.5602  -43.2297 N.am      5 UNK        -0.4663 
     35 CA         27.1727  -27.5976  -43.6083 C.3       5 UNK         0.0242 
     36 CB         27.4940  -27.4470  -45.1045 C.3       5 UNK        -0.1982 
     37 C          26.7045  -29.0350  -43.3032 C.2       5 UNK         0.5017 
     38 O          27.5368  -29.9425  -43.3296 O.2       5 UNK        -0.5012 
     39 N          25.4056  -29.2311  -43.0379 N.am      6 UNK        -0.4439 
     40 CA         24.7862  -30.5307  -42.7746 C.3       6 UNK         0.0297 
     41 CB         24.2022  -31.0930  -44.0852 C.3       6 UNK        -0.2006 
     42 C          23.7323  -30.4108  -41.6629 C.2       6 UNK         0.4892 
     43 O          22.7123  -31.0971  -41.7167 O.2       6 UNK        -0.5089 
     44 N          23.9966  -29.5449  -40.6705 N.am      7 UNK        -0.4243 
     45 CA         23.0638  -29.1227  -39.6149 C.3       7 UNK         0.0196 
     46 CB         23.7690  -28.1096  -38.6999 C.3       7 UNK        -0.2007 
     47 C          22.4469  -30.2597  -38.7799 C.2       7 UNK         0.5020 
     48 O          21.3614  -30.0842  -38.2251 O.2       7 UNK        -0.5147 
     49 N          23.1257  -31.4137  -38.7375 N.am      8 UNK        -0.4734 
     50 CA         22.6640  -32.6594  -38.1232 C.3       8 UNK         0.0238 
     51 CB         23.7922  -33.7013  -38.2010 C.3       8 UNK        -0.1912 
     52 C          21.3632  -33.2294  -38.7240 C.2       8 UNK         0.5038 
     53 O          20.7117  -34.0257  -38.0459 O.2       8 UNK        -0.5046 
     54 N          20.9943  -32.8269  -39.9520 N.am      9 UNK        -0.4200 
     55 CA         19.7007  -33.1742  -40.5628 C.3       9 UNK         0.0839 
     56 C          18.4640  -32.4867  -39.9083 C.2       9 UNK         0.5513 
     57 N          18.6287  -31.4508  -39.0914 N.am      9 UNK        -0.7519 
     58 O          17.3369  -32.9197  -40.1320 O.2       9 UNK        -0.4960 
     59 C59        19.7205  -33.0508  -42.1114 C.3       10 UNK        -0.0876 
     60 S60        19.6155  -31.3501  -42.7692 S.3       10 UNK        -0.2414 
     61 C61        19.9905  -31.6567  -44.5199 C.3       10 UNK         0.0169 
     62 H62        16.6286  -31.0216  -42.8030 H         1 UNK         0.0903 
     63 H63        15.7563  -31.0178  -41.2697 H         1 UNK         0.0903 
     64 H64        14.8884  -31.3515  -42.7752 H         1 UNK         0.0903 
     65 H65        16.8125  -29.0438  -43.8924 H         1 UNK         0.3096 
     66 H66        14.9085  -26.9160  -43.6718 H         1 UNK         0.1121 
     67 H67        16.6255  -25.5763  -44.9640 H         1 UNK         0.0849 
     68 H68        17.6795  -26.9478  -44.9757 H         1 UNK         0.0849 
     69 H69        15.6699  -29.5957  -45.9384 H         1 UNK         0.0865 
     70 H70        15.9773  -29.3017  -47.6252 H         1 UNK         0.0865 
     71 H71        17.4606  -30.8914  -45.0942 H         1 UNK         0.1346 
     72 H72        21.5404  -29.8904  -45.9301 H         1 UNK         0.1412 
     73 H73        18.3701  -27.6643  -47.7701 H         1 UNK         0.1426 
     74 H74        20.7229  -27.7092  -48.7147 H         1 UNK         0.0716 
     75 H75        22.0334  -28.3550  -47.7662 H         1 UNK         0.0716 
     76 H76        23.4014  -26.0932  -45.8221 H         1 UNK         0.0695 
     77 H77        22.6569  -27.6441  -45.5383 H         1 UNK         0.0695 
     78 H78        21.6951  -25.0065  -44.2970 H         1 UNK         0.0983 
     79 H79        20.5469  -27.6734  -44.2102 H         1 UNK         0.3095 
     80 H80        18.5472  -27.9535  -43.1750 H         1 UNK         0.0454 
     81 H81        20.2167  -28.7648  -41.5046 H         1 UNK         0.0851 
     82 H82        18.5790  -28.9403  -40.8957 H         1 UNK         0.0851 
     83 H83        19.6054  -27.6298  -40.3141 H         1 UNK         0.0851 
     84 H84        17.9418  -25.9214  -41.0674 H         1 UNK         0.2976 
     85 H85        23.5775  -24.3061  -43.2987 H         1 UNK         0.3116 
     86 H86        24.3132  -25.3775  -40.8422 H         1 UNK         0.0646 
     87 H87        26.1550  -23.6839  -40.9148 H         1 UNK         0.0847 
     88 H88        25.8740  -23.4383  -42.6320 H         1 UNK         0.0847 
     89 H89        24.6325  -23.0017  -41.4564 H         1 UNK         0.0847 
     90 H90        25.6980  -26.1193  -43.9790 H         1 UNK         0.3040 
     91 H91        28.0918  -27.4335  -43.0413 H         1 UNK         0.1015 
     92 H92        28.2394  -28.1782  -45.4204 H         1 UNK         0.0786 
     93 H93        27.8992  -26.4596  -45.3269 H         1 UNK         0.0786 
     94 H94        26.6091  -27.5961  -45.7245 H         1 UNK         0.0786 
     95 H95        24.7740  -28.4334  -42.9919 H         1 UNK         0.3172 
     96 H96        25.5360  -31.2317  -42.4030 H         1 UNK         0.0595 
     97 H97        24.9689  -31.1906  -44.8535 H         1 UNK         0.0839 
     98 H98        23.4141  -30.4487  -44.4750 H         1 UNK         0.0839 
     99 H99        23.7706  -32.0830  -43.9322 H         1 UNK         0.0839 
    100 H100       24.8686  -29.0373  -40.7177 H         1 UNK         0.2998 
    101 H101       22.2383  -28.6116  -40.1133 H         1 UNK         0.0822 
    102 H102       23.0938  -27.7463  -37.9239 H         1 UNK         0.0787 
    103 H103       24.6333  -28.5505  -38.2020 H         1 UNK         0.0787 
    104 H104       24.1118  -27.2404  -39.2607 H         1 UNK         0.0787 
    105 H105       23.9983  -31.4556  -39.2435 H         1 UNK         0.3055 
    106 H106       22.4600  -32.4486  -37.0710 H         1 UNK         0.1106 
    107 H107       24.6921  -33.3531  -37.6935 H         1 UNK         0.0828 
    108 H108       23.4954  -34.6357  -37.7222 H         1 UNK         0.0828 
    109 H109       24.0552  -33.9343  -39.2337 H         1 UNK         0.0828 
    110 H110       21.5750  -32.1696  -40.4655 H         1 UNK         0.2931 
    111 H111       19.5605  -34.2392  -40.3657 H         1 UNK         0.0412 
    112 H112       19.5532  -31.0891  -38.8926 H         1 UNK         0.3472 
    113 H113       17.8209  -31.0267  -38.6648 H         1 UNK         0.3472 
    114 H114       20.6219  -33.5234  -42.5054 H         1 UNK         0.0970 
    115 H115       18.8854  -33.6164  -42.5288 H         1 UNK         0.0970 
    116 H116       21.0605  -31.8427  -44.6247 H         1 UNK         0.0612 
    117 H117       19.4820  -32.5643  -44.8485 H         1 UNK         0.0612 
@<TRIPOS>BOND
     1    1    2 1    
     2    1   62 1    
     3    1   63 1    
     4    1   64 1    
     5    2    3 2    
     6    2    4 am   BACKBONE|DICT|INTERRES
     7    4    5 1    
     8    4   65 1    
     9    5    6 1    
    10    5   25 1    
    11    5   66 1    
    12    6    7 1    
    13    6   67 1    
    14    6   68 1    
    15    7    8 1    
    16    8    9 1    
    17    8   69 1    
    18    8   70 1    
    19    9   10 ar   
    20    9   14 ar   
    21   10   11 ar   
    22   10   71 1    
    23   11   12 ar   
    24   11   61 1    
    25   12   13 ar   
    26   12   72 1    
    27   13   14 ar   
    28   13   15 1    
    29   14   73 1    
    30   15   16 1    
    31   15   74 1    
    32   15   75 1    
    33   16   17 1    
    34   17   18 1    
    35   17   76 1    
    36   17   77 1    
    37   18   19 1    
    38   18   27 1    
    39   18   78 1    
    40   19   20 am   BACKBONE|DICT|INTERRES
    41   19   79 1    
    42   20   21 2    
    43   20   22 1    
    44   22   23 1    
    45   22   24 1    
    46   22   80 1    
    47   23   81 1    
    48   23   82 1    
    49   23   83 1    
    50   24   25 am   BACKBONE|DICT|INTERRES
    51   24   84 1    
    52   25   26 2    
    53   27   28 2    
    54   27   29 am   BACKBONE|DICT|INTERRES
    55   29   30 1    
    56   29   85 1    
    57   30   31 1    
    58   30   32 1    
    59   30   86 1    
    60   31   87 1    
    61   31   88 1    
    62   31   89 1    
    63   32   33 2    
    64   32   34 am   BACKBONE|DICT|INTERRES
    65   34   35 1    
    66   34   90 1    
    67   35   36 1    
    68   35   37 1    
    69   35   91 1    
    70   36   92 1    
    71   36   93 1    
    72   36   94 1    
    73   37   38 2    
    74   37   39 am   BACKBONE|DICT|INTERRES
    75   39   40 1    
    76   39   95 1    
    77   40   41 1    
    78   40   42 1    
    79   40   96 1    
    80   41   97 1    
    81   41   98 1    
    82   41   99 1    
    83   42   43 2    
    84   42   44 am   BACKBONE|DICT|INTERRES
    85   44   45 1    
    86   44  100 1    
    87   45   46 1    
    88   45   47 1    
    89   45  101 1    
    90   46  102 1    
    91   46  103 1    
    92   46  104 1    
    93   47   48 2    
    94   47   49 am   BACKBONE|DICT|INTERRES
    95   49   50 1    
    96   49  105 1    
    97   50   51 1    
    98   50   52 1    
    99   50  106 1    
   100   51  107 1    
   101   51  108 1    
   102   51  109 1    
   103   52   53 2    
   104   52   54 am   BACKBONE|DICT|INTERRES
   105   54   55 1    
   106   54  110 1    
   107   55   56 1    
   108   55   59 1    
   109   55  111 1    
   110   56   57 am   BACKBONE|DICT|INTERRES
   111   56   58 2    
   112   57  112 1    
   113   57  113 1    
   114   59   60 1    
   115   59  114 1    
   116   59  115 1    
   117   60   61 1    
   118   61  116 1    
   119   61  117 1    
@<TRIPOS>SUBSTRUCTURE
     1 UNK         1 GROUP             0       ****    0 ROOT    
