@<TRIPOS>MOLECULE
3R8
117   119    1
SMALL
USER_CHARGES


@<TRIPOS>ATOM
      1 CA         14.5523  -23.2119  -45.9602 C.3       0 UNK        -0.2013 
      2 C          14.7937  -24.4408  -45.0956 C.2       0 UNK         0.4866 
      3 O          14.0693  -24.6468  -44.1211 O.2       0 UNK        -0.5176 
      4 N          15.8008  -25.2495  -45.4561 N.am      1 UNK        -0.4884 
      5 CA         16.2543  -26.4726  -44.7735 C.3       1 UNK         0.0853 
      6 C6         15.1652  -27.5861  -44.7135 C.3       10 UNK        -0.0849 
      7 S7         14.9575  -28.3609  -46.3515 S.3       10 UNK        -0.2776 
      8 C8         15.7750  -29.9772  -46.1142 C.3       10 UNK         0.0316 
      9 C9         17.1814  -29.8600  -45.5337 C.ar      10 UNK        -0.0863 
     10 C10        17.4790  -30.4340  -44.2941 C.ar      10 UNK        -0.1009 
     11 C11        18.7677  -30.3483  -43.7592 C.ar      10 UNK        -0.0712 
     12 C12        19.7631  -29.6678  -44.4681 C.ar      10 UNK        -0.0894 
     13 C13        19.4758  -29.0792  -45.7044 C.ar      10 UNK        -0.0745 
     14 C14        18.1875  -29.1913  -46.2369 C.ar      10 UNK        -0.0972 
     15 C15        20.5531  -28.3407  -46.4859 C.3       10 UNK         0.0209 
     16 S16        20.7066  -26.6010  -45.9606 S.3       10 UNK        -0.2568 
     17 C17        21.9710  -26.7126  -44.6476 C.3       10 UNK        -0.0983 
     18 CA         21.4981  -26.1643  -43.2771 C.3       3 UNK         0.0876 
     19 N          20.2475  -26.7892  -42.8413 N.am      3 UNK        -0.4424 
     20 C          19.5616  -26.5068  -41.7248 C.2       2 UNK         0.4918 
     21 O          19.9084  -25.6681  -40.8914 O.2       2 UNK        -0.4875 
     22 CA         18.2383  -27.2779  -41.5501 C.3       2 UNK         0.0481 
     23 CB         17.4110  -26.8057  -40.3359 C.3       2 UNK        -0.1831 
     24 N          17.4328  -27.2696  -42.7793 N.am      2 UNK        -0.4498 
     25 C          16.9293  -26.1950  -43.4106 C.2       1 UNK         0.5027 
     26 O          17.0401  -25.0410  -42.9884 O.2       1 UNK        -0.4969 
     27 C          22.6105  -26.3606  -42.2293 C.2       3 UNK         0.5005 
     28 O          22.9514  -27.5070  -41.9318 O.2       3 UNK        -0.5279 
     29 N          23.1787  -25.2615  -41.7130 N.am      4 UNK        -0.4463 
     30 CA         24.1874  -25.2605  -40.6433 C.3       4 UNK         0.0283 
     31 CB         24.5100  -23.8106  -40.2479 C.3       4 UNK        -0.1875 
     32 C          25.4823  -26.0247  -40.9767 C.2       4 UNK         0.4949 
     33 O          26.1173  -26.5585  -40.0679 O.2       4 UNK        -0.5039 
     34 N          25.8361  -26.0839  -42.2679 N.am      5 UNK        -0.4663 
     35 CA         26.9718  -26.8537  -42.7821 C.3       5 UNK         0.0242 
     36 CB         27.3021  -26.3712  -44.2040 C.3       5 UNK        -0.1982 
     37 C          26.7319  -28.3753  -42.7751 C.2       5 UNK         0.5017 
     38 O          27.7028  -29.1301  -42.7095 O.2       5 UNK        -0.5012 
     39 N          25.4617  -28.7960  -42.8544 N.am      6 UNK        -0.4439 
     40 CA         25.0438  -30.1998  -42.8345 C.3       6 UNK         0.0297 
     41 CB         23.9027  -30.3970  -43.8426 C.3       6 UNK        -0.2006 
     42 C          24.6070  -30.6452  -41.4289 C.2       6 UNK         0.4892 
     43 O          24.7497  -31.8258  -41.1077 O.2       6 UNK        -0.5089 
     44 N          24.0915  -29.7019  -40.6248 N.am      7 UNK        -0.4243 
     45 CA         23.6473  -29.8371  -39.2358 C.3       7 UNK         0.0196 
     46 CB         24.8512  -30.0862  -38.2996 C.3       7 UNK        -0.2007 
     47 C          22.5219  -30.8757  -39.0996 C.2       7 UNK         0.5020 
     48 O          21.3690  -30.5559  -39.3886 O.2       7 UNK        -0.5147 
     49 N          22.8750  -32.0986  -38.6829 N.am      8 UNK        -0.4734 
     50 CA         21.9688  -33.2455  -38.5807 C.3       8 UNK         0.0238 
     51 CB         22.6533  -34.3522  -37.7614 C.3       8 UNK        -0.1912 
     52 C          21.5015  -33.7931  -39.9435 C.2       8 UNK         0.5038 
     53 O          20.4852  -34.4881  -39.9726 O.2       8 UNK        -0.5046 
     54 N          22.2427  -33.4742  -41.0177 N.am      9 UNK        -0.4200 
     55 CA         22.0062  -33.8452  -42.4231 C.3       9 UNK         0.0839 
     56 C          21.7417  -35.3636  -42.6639 C.2       9 UNK         0.5513 
     57 N          20.8826  -35.7368  -43.6036 N.am      9 UNK        -0.7519 
     58 O          22.3740  -36.2165  -42.0440 O.2       9 UNK        -0.4960 
     59 C59        21.0698  -32.8483  -43.1745 C.3       10 UNK        -0.0876 
     60 S60        19.3401  -32.7883  -42.5918 S.3       10 UNK        -0.2414 
     61 C61        19.0702  -30.9971  -42.4156 C.3       10 UNK         0.0169 
     62 H62        14.6616  -22.3068  -45.3634 H         1 UNK         0.0903 
     63 H63        15.2513  -23.1540  -46.7944 H         1 UNK         0.0903 
     64 H64        13.5415  -23.2321  -46.3667 H         1 UNK         0.0903 
     65 H65        16.3559  -24.9917  -46.2603 H         1 UNK         0.3096 
     66 H66        17.0760  -26.8375  -45.3904 H         1 UNK         0.1121 
     67 H67        15.3994  -28.3679  -43.9909 H         1 UNK         0.0849 
     68 H68        14.2032  -27.1893  -44.3891 H         1 UNK         0.0849 
     69 H69        15.1435  -30.5970  -45.4756 H         1 UNK         0.0865 
     70 H70        15.8288  -30.4903  -47.0754 H         1 UNK         0.0865 
     71 H71        16.7116  -30.9653  -43.7468 H         1 UNK         0.1346 
     72 H72        20.7609  -29.6014  -44.0601 H         1 UNK         0.1412 
     73 H73        17.9606  -28.7478  -47.1972 H         1 UNK         0.1426 
     74 H74        20.3100  -28.3546  -47.5496 H         1 UNK         0.0716 
     75 H75        21.5104  -28.8566  -46.3982 H         1 UNK         0.0716 
     76 H76        22.2993  -27.7484  -44.5528 H         1 UNK         0.0695 
     77 H77        22.8454  -26.1565  -44.9911 H         1 UNK         0.0695 
     78 H78        21.2996  -25.0960  -43.3849 H         1 UNK         0.0983 
     79 H79        19.8651  -27.4734  -43.4764 H         1 UNK         0.3095 
     80 H80        18.5144  -28.3167  -41.3682 H         1 UNK         0.0454 
     81 H81        17.9767  -26.9243  -39.4110 H         1 UNK         0.0851 
     82 H82        16.4943  -27.3855  -40.2306 H         1 UNK         0.0851 
     83 H83        17.1358  -25.7535  -40.4128 H         1 UNK         0.0851 
     84 H84        17.3224  -28.1714  -43.2240 H         1 UNK         0.2976 
     85 H85        22.8442  -24.3562  -42.0123 H         1 UNK         0.3116 
     86 H86        23.7391  -25.7554  -39.7790 H         1 UNK         0.0646 
     87 H87        24.9300  -23.2475  -41.0822 H         1 UNK         0.0847 
     88 H88        23.6206  -23.2852  -39.8996 H         1 UNK         0.0847 
     89 H89        25.2383  -23.7802  -39.4361 H         1 UNK         0.0847 
     90 H90        25.2670  -25.5949  -42.9436 H         1 UNK         0.3040 
     91 H91        27.8367  -26.6578  -42.1439 H         1 UNK         0.1015 
     92 H92        28.1635  -26.9060  -44.6069 H         1 UNK         0.0786 
     93 H93        27.5488  -25.3093  -44.2159 H         1 UNK         0.0786 
     94 H94        26.4693  -26.5318  -44.8900 H         1 UNK         0.0786 
     95 H95        24.7212  -28.1048  -42.8314 H         1 UNK         0.3172 
     96 H96        25.8750  -30.8374  -43.1432 H         1 UNK         0.0595 
     97 H97        22.9981  -29.8775  -43.5285 H         1 UNK         0.0839 
     98 H98        23.6624  -31.4547  -43.9490 H         1 UNK         0.0839 
     99 H99        24.1760  -30.0300  -44.8321 H         1 UNK         0.0839 
    100 H100       23.8794  -28.8003  -41.0470 H         1 UNK         0.2998 
    101 H101       23.2112  -28.8755  -38.9600 H         1 UNK         0.0822 
    102 H102       24.5282  -30.1894  -37.2628 H         1 UNK         0.0787 
    103 H103       25.5468  -29.2472  -38.3359 H         1 UNK         0.0787 
    104 H104       25.4109  -30.9836  -38.5645 H         1 UNK         0.0787 
    105 H105       23.8540  -32.2722  -38.5040 H         1 UNK         0.3055 
    106 H106       21.0744  -32.9220  -38.0430 H         1 UNK         0.1106 
    107 H107       22.9186  -34.0027  -36.7634 H         1 UNK         0.0828 
    108 H108       21.9918  -35.2107  -37.6362 H         1 UNK         0.0828 
    109 H109       23.5620  -34.7104  -38.2468 H         1 UNK         0.0828 
    110 H110       23.0823  -32.9270  -40.8586 H         1 UNK         0.2931 
    111 H111       22.9869  -33.7035  -42.8787 H         1 UNK         0.0412 
    112 H112       20.7349  -36.7194  -43.7734 H         1 UNK         0.3472 
    113 H113       20.3379  -35.0517  -44.1035 H         1 UNK         0.3472 
    114 H114       21.4930  -31.8494  -43.0830 H         1 UNK         0.0970 
    115 H115       21.0678  -33.0537  -44.2460 H         1 UNK         0.0970 
    116 H116       19.9323  -30.5308  -41.9355 H         1 UNK         0.0612 
    117 H117       18.2281  -30.8402  -41.7400 H         1 UNK         0.0612 
@<TRIPOS>BOND
     1    1    2 1    
     2    1   62 1    
     3    1   63 1    
     4    1   64 1    
     5    2    3 2    
     6    2    4 am   BACKBONE|DICT|INTERRES
     7    4    5 1    
     8    4   65 1    
     9    5    6 1    
    10    5   25 1    
    11    5   66 1    
    12    6    7 1    
    13    6   67 1    
    14    6   68 1    
    15    7    8 1    
    16    8    9 1    
    17    8   69 1    
    18    8   70 1    
    19    9   10 ar   
    20    9   14 ar   
    21   10   11 ar   
    22   10   71 1    
    23   11   12 ar   
    24   11   61 1    
    25   12   13 ar   
    26   12   72 1    
    27   13   14 ar   
    28   13   15 1    
    29   14   73 1    
    30   15   16 1    
    31   15   74 1    
    32   15   75 1    
    33   16   17 1    
    34   17   18 1    
    35   17   76 1    
    36   17   77 1    
    37   18   19 1    
    38   18   27 1    
    39   18   78 1    
    40   19   20 am   BACKBONE|DICT|INTERRES
    41   19   79 1    
    42   20   21 2    
    43   20   22 1    
    44   22   23 1    
    45   22   24 1    
    46   22   80 1    
    47   23   81 1    
    48   23   82 1    
    49   23   83 1    
    50   24   25 am   BACKBONE|DICT|INTERRES
    51   24   84 1    
    52   25   26 2    
    53   27   28 2    
    54   27   29 am   BACKBONE|DICT|INTERRES
    55   29   30 1    
    56   29   85 1    
    57   30   31 1    
    58   30   32 1    
    59   30   86 1    
    60   31   87 1    
    61   31   88 1    
    62   31   89 1    
    63   32   33 2    
    64   32   34 am   BACKBONE|DICT|INTERRES
    65   34   35 1    
    66   34   90 1    
    67   35   36 1    
    68   35   37 1    
    69   35   91 1    
    70   36   92 1    
    71   36   93 1    
    72   36   94 1    
    73   37   38 2    
    74   37   39 am   BACKBONE|DICT|INTERRES
    75   39   40 1    
    76   39   95 1    
    77   40   41 1    
    78   40   42 1    
    79   40   96 1    
    80   41   97 1    
    81   41   98 1    
    82   41   99 1    
    83   42   43 2    
    84   42   44 am   BACKBONE|DICT|INTERRES
    85   44   45 1    
    86   44  100 1    
    87   45   46 1    
    88   45   47 1    
    89   45  101 1    
    90   46  102 1    
    91   46  103 1    
    92   46  104 1    
    93   47   48 2    
    94   47   49 am   BACKBONE|DICT|INTERRES
    95   49   50 1    
    96   49  105 1    
    97   50   51 1    
    98   50   52 1    
    99   50  106 1    
   100   51  107 1    
   101   51  108 1    
   102   51  109 1    
   103   52   53 2    
   104   52   54 am   BACKBONE|DICT|INTERRES
   105   54   55 1    
   106   54  110 1    
   107   55   56 1    
   108   55   59 1    
   109   55  111 1    
   110   56   57 am   BACKBONE|DICT|INTERRES
   111   56   58 2    
   112   57  112 1    
   113   57  113 1    
   114   59   60 1    
   115   59  114 1    
   116   59  115 1    
   117   60   61 1    
   118   61  116 1    
   119   61  117 1    
@<TRIPOS>SUBSTRUCTURE
     1 UNK         1 GROUP             0       ****    0 ROOT    
