@<TRIPOS>MOLECULE
3R8
117   119    1
SMALL
USER_CHARGES


@<TRIPOS>ATOM
      1 CA         17.1142  -21.7397  -42.7173 C.3       0 UNK        -0.2013 
      2 C          17.0245  -22.9472  -43.6385 C.2       0 UNK         0.4866 
      3 O          17.5089  -22.8910  -44.7687 O.2       0 UNK        -0.5176 
      4 N          16.4043  -24.0369  -43.1654 N.am      1 UNK        -0.4884 
      5 CA         16.2467  -25.2982  -43.9027 C.3       1 UNK         0.0853 
      6 C6         15.2032  -26.2175  -43.2129 C.3       10 UNK        -0.0849 
      7 S7         14.4564  -27.4406  -44.3435 S.3       10 UNK        -0.2776 
      8 C8         14.8751  -29.0332  -43.5494 C.3       10 UNK         0.0316 
      9 C9         16.2903  -29.5144  -43.8568 C.ar      10 UNK        -0.0863 
     10 C10        17.1763  -29.8305  -42.8202 C.ar      10 UNK        -0.1009 
     11 C11        18.4569  -30.3208  -43.1022 C.ar      10 UNK        -0.0712 
     12 C12        18.8502  -30.4891  -44.4330 C.ar      10 UNK        -0.0894 
     13 C13        17.9807  -30.1665  -45.4787 C.ar      10 UNK        -0.0745 
     14 C14        16.6999  -29.6915  -45.1826 C.ar      10 UNK        -0.0972 
     15 C15        18.4106  -30.3433  -46.9290 C.3       10 UNK         0.0209 
     16 S16        19.2936  -28.8820  -47.5720 S.3       10 UNK        -0.2568 
     17 C17        20.9811  -29.1495  -46.9303 C.3       10 UNK        -0.0983 
     18 CA         21.4807  -28.0423  -45.9645 C.3       3 UNK         0.0876 
     19 N          20.5428  -27.7684  -44.8743 N.am      3 UNK        -0.4424 
     20 C          20.6552  -26.7822  -43.9752 C.2       2 UNK         0.4918 
     21 O          21.5242  -25.9077  -44.0146 O.2       2 UNK        -0.4875 
     22 CA         19.6290  -26.7975  -42.8259 C.3       2 UNK         0.0481 
     23 CB         20.2599  -26.3768  -41.4895 C.3       2 UNK        -0.1831 
     24 N          18.4256  -25.9947  -43.0444 N.am      2 UNK        -0.4498 
     25 C          17.5880  -26.0357  -44.0918 C.2       1 UNK         0.5027 
     26 O          17.8083  -26.6238  -45.1481 O.2       1 UNK        -0.4969 
     27 C          22.8467  -28.4488  -45.3795 C.2       3 UNK         0.5005 
     28 O          22.8927  -29.3897  -44.5853 O.2       3 UNK        -0.5279 
     29 N          23.9161  -27.7482  -45.7862 N.am      4 UNK        -0.4463 
     30 CA         25.3010  -27.9147  -45.3182 C.3       4 UNK         0.0283 
     31 CB         25.8616  -29.3003  -45.7085 C.3       4 UNK        -0.1875 
     32 C          25.4897  -27.5892  -43.8197 C.2       4 UNK         0.4949 
     33 O          26.3570  -28.1786  -43.1737 O.2       4 UNK        -0.5039 
     34 N          24.6994  -26.6256  -43.3213 N.am      5 UNK        -0.4663 
     35 CA         24.6327  -26.1222  -41.9427 C.3       5 UNK         0.0242 
     36 CB         26.0162  -25.6577  -41.4332 C.3       5 UNK        -0.1982 
     37 C          23.9365  -27.0954  -40.9712 C.2       5 UNK         0.5017 
     38 O          23.4851  -28.1721  -41.3676 O.2       5 UNK        -0.5012 
     39 N          23.7905  -26.6482  -39.7160 N.am      6 UNK        -0.4439 
     40 CA         23.0323  -27.3123  -38.6528 C.3       6 UNK         0.0297 
     41 CB         23.0716  -26.4433  -37.3853 C.3       6 UNK        -0.2006 
     42 C          23.5266  -28.7348  -38.3413 C.2       6 UNK         0.4892 
     43 O          24.7345  -28.9525  -38.2306 O.2       6 UNK        -0.5089 
     44 N          22.5641  -29.6553  -38.1878 N.am      7 UNK        -0.4243 
     45 CA         22.7080  -31.0748  -37.8336 C.3       7 UNK         0.0196 
     46 CB         23.3638  -31.2345  -36.4456 C.3       7 UNK        -0.2007 
     47 C          23.3949  -31.9615  -38.8921 C.2       7 UNK         0.5020 
     48 O          23.5396  -33.1606  -38.6507 O.2       7 UNK        -0.5147 
     49 N          23.7695  -31.4076  -40.0551 N.am      8 UNK        -0.4734 
     50 CA         24.4365  -32.1371  -41.1423 C.3       8 UNK         0.0238 
     51 CB         24.9543  -31.1358  -42.1832 C.3       8 UNK        -0.1912 
     52 C          23.5565  -33.2108  -41.8088 C.2       8 UNK         0.5038 
     53 O          24.0948  -34.1698  -42.3634 O.2       8 UNK        -0.5046 
     54 N          22.2313  -33.0456  -41.7181 N.am      9 UNK        -0.4200 
     55 CA         21.2234  -34.0425  -42.1044 C.3       9 UNK         0.0839 
     56 C          21.0209  -35.1931  -41.0727 C.2       9 UNK         0.5513 
     57 N          21.6645  -35.1819  -39.9102 N.am      9 UNK        -0.7519 
     58 O          20.2738  -36.1301  -41.3426 O.2       9 UNK        -0.4960 
     59 C59        19.8867  -33.3723  -42.5217 C.3       10 UNK        -0.0876 
     60 S60        19.1679  -32.2732  -41.2478 S.3       10 UNK        -0.2414 
     61 C61        19.4321  -30.6229  -41.9704 C.3       10 UNK         0.0169 
     62 H62        16.6257  -20.8807  -43.1766 H         1 UNK         0.0903 
     63 H63        16.6396  -21.9238  -41.7537 H         1 UNK         0.0903 
     64 H64        18.1577  -21.4821  -42.5375 H         1 UNK         0.0903 
     65 H65        16.0100  -24.0147  -42.2349 H         1 UNK         0.3096 
     66 H66        15.8764  -25.0423  -44.8986 H         1 UNK         0.1121 
     67 H67        14.3758  -25.6152  -42.8338 H         1 UNK         0.0849 
     68 H68        15.6266  -26.7144  -42.3375 H         1 UNK         0.0849 
     69 H69        14.7076  -28.9593  -42.4738 H         1 UNK         0.0865 
     70 H70        14.1754  -29.7890  -43.9089 H         1 UNK         0.0865 
     71 H71        16.8710  -29.7019  -41.7907 H         1 UNK         0.1346 
     72 H72        19.8417  -30.8580  -44.6543 H         1 UNK         0.1412 
     73 H73        16.0200  -29.4474  -45.9874 H         1 UNK         0.1426 
     74 H74        17.5323  -30.5147  -47.5532 H         1 UNK         0.0716 
     75 H75        19.0294  -31.2352  -47.0378 H         1 UNK         0.0716 
     76 H76        21.6476  -29.2096  -47.7927 H         1 UNK         0.0695 
     77 H77        21.0330  -30.1313  -46.4582 H         1 UNK         0.0695 
     78 H78        21.5925  -27.1167  -46.5329 H         1 UNK         0.0983 
     79 H79        19.7477  -28.3899  -44.8134 H         1 UNK         0.3095 
     80 H80        19.2924  -27.8239  -42.7028 H         1 UNK         0.0454 
     81 H81        19.5508  -26.4585  -40.6658 H         1 UNK         0.0851 
     82 H82        20.6313  -25.3516  -41.5168 H         1 UNK         0.0851 
     83 H83        21.0984  -27.0265  -41.2493 H         1 UNK         0.0851 
     84 H84        18.1425  -25.4175  -42.2667 H         1 UNK         0.2976 
     85 H85        23.7715  -26.9942  -46.4447 H         1 UNK         0.3116 
     86 H86        25.8881  -27.1687  -45.8557 H         1 UNK         0.0646 
     87 H87        25.3799  -30.1045  -45.1522 H         1 UNK         0.0847 
     88 H88        25.7275  -29.4994  -46.7715 H         1 UNK         0.0847 
     89 H89        26.9306  -29.3616  -45.5014 H         1 UNK         0.0847 
     90 H90        23.9802  -26.2633  -43.9338 H         1 UNK         0.3040 
     91 H91        23.9887  -25.2425  -41.9965 H         1 UNK         0.1015 
     92 H92        25.9263  -25.0548  -40.5293 H         1 UNK         0.0786 
     93 H93        26.5264  -25.0424  -42.1745 H         1 UNK         0.0786 
     94 H94        26.6657  -26.5003  -41.1935 H         1 UNK         0.0786 
     95 H95        24.2121  -25.7641  -39.4728 H         1 UNK         0.3172 
     96 H96        21.9953  -27.3704  -38.9890 H         1 UNK         0.0595 
     97 H97        24.0907  -26.3113  -37.0190 H         1 UNK         0.0839 
     98 H98        22.4945  -26.8999  -36.5799 H         1 UNK         0.0839 
     99 H99        22.6468  -25.4553  -37.5643 H         1 UNK         0.0839 
    100 H100       21.6089  -29.3511  -38.3189 H         1 UNK         0.2998 
    101 H101       21.6896  -31.4588  -37.7547 H         1 UNK         0.0822 
    102 H102       23.3326  -32.2734  -36.1143 H         1 UNK         0.0787 
    103 H103       24.4111  -30.9310  -36.4533 H         1 UNK         0.0787 
    104 H104       22.8473  -30.6412  -35.6911 H         1 UNK         0.0787 
    105 H105       23.6329  -30.4136  -40.1899 H         1 UNK         0.3055 
    106 H106       25.2975  -32.6551  -40.7138 H         1 UNK         0.1106 
    107 H107       24.1411  -30.5595  -42.6238 H         1 UNK         0.0828 
    108 H108       25.6568  -30.4301  -41.7395 H         1 UNK         0.0828 
    109 H109       25.4741  -31.6431  -42.9968 H         1 UNK         0.0828 
    110 H110       21.8835  -32.2358  -41.2275 H         1 UNK         0.2931 
    111 H111       21.5993  -34.5414  -42.9997 H         1 UNK         0.0412 
    112 H112       21.5194  -35.9429  -39.2658 H         1 UNK         0.3472 
    113 H113       22.2997  -34.4325  -39.6618 H         1 UNK         0.3472 
    114 H114       20.0498  -32.8098  -43.4393 H         1 UNK         0.0970 
    115 H115       19.1420  -34.1261  -42.7842 H         1 UNK         0.0970 
    116 H116       19.3122  -29.8781  -41.1822 H         1 UNK         0.0612 
    117 H117       20.4638  -30.5317  -42.3152 H         1 UNK         0.0612 
@<TRIPOS>BOND
     1    1    2 1    
     2    1   62 1    
     3    1   63 1    
     4    1   64 1    
     5    2    3 2    
     6    2    4 am   BACKBONE|DICT|INTERRES
     7    4    5 1    
     8    4   65 1    
     9    5    6 1    
    10    5   25 1    
    11    5   66 1    
    12    6    7 1    
    13    6   67 1    
    14    6   68 1    
    15    7    8 1    
    16    8    9 1    
    17    8   69 1    
    18    8   70 1    
    19    9   10 ar   
    20    9   14 ar   
    21   10   11 ar   
    22   10   71 1    
    23   11   12 ar   
    24   11   61 1    
    25   12   13 ar   
    26   12   72 1    
    27   13   14 ar   
    28   13   15 1    
    29   14   73 1    
    30   15   16 1    
    31   15   74 1    
    32   15   75 1    
    33   16   17 1    
    34   17   18 1    
    35   17   76 1    
    36   17   77 1    
    37   18   19 1    
    38   18   27 1    
    39   18   78 1    
    40   19   20 am   BACKBONE|DICT|INTERRES
    41   19   79 1    
    42   20   21 2    
    43   20   22 1    
    44   22   23 1    
    45   22   24 1    
    46   22   80 1    
    47   23   81 1    
    48   23   82 1    
    49   23   83 1    
    50   24   25 am   BACKBONE|DICT|INTERRES
    51   24   84 1    
    52   25   26 2    
    53   27   28 2    
    54   27   29 am   BACKBONE|DICT|INTERRES
    55   29   30 1    
    56   29   85 1    
    57   30   31 1    
    58   30   32 1    
    59   30   86 1    
    60   31   87 1    
    61   31   88 1    
    62   31   89 1    
    63   32   33 2    
    64   32   34 am   BACKBONE|DICT|INTERRES
    65   34   35 1    
    66   34   90 1    
    67   35   36 1    
    68   35   37 1    
    69   35   91 1    
    70   36   92 1    
    71   36   93 1    
    72   36   94 1    
    73   37   38 2    
    74   37   39 am   BACKBONE|DICT|INTERRES
    75   39   40 1    
    76   39   95 1    
    77   40   41 1    
    78   40   42 1    
    79   40   96 1    
    80   41   97 1    
    81   41   98 1    
    82   41   99 1    
    83   42   43 2    
    84   42   44 am   BACKBONE|DICT|INTERRES
    85   44   45 1    
    86   44  100 1    
    87   45   46 1    
    88   45   47 1    
    89   45  101 1    
    90   46  102 1    
    91   46  103 1    
    92   46  104 1    
    93   47   48 2    
    94   47   49 am   BACKBONE|DICT|INTERRES
    95   49   50 1    
    96   49  105 1    
    97   50   51 1    
    98   50   52 1    
    99   50  106 1    
   100   51  107 1    
   101   51  108 1    
   102   51  109 1    
   103   52   53 2    
   104   52   54 am   BACKBONE|DICT|INTERRES
   105   54   55 1    
   106   54  110 1    
   107   55   56 1    
   108   55   59 1    
   109   55  111 1    
   110   56   57 am   BACKBONE|DICT|INTERRES
   111   56   58 2    
   112   57  112 1    
   113   57  113 1    
   114   59   60 1    
   115   59  114 1    
   116   59  115 1    
   117   60   61 1    
   118   61  116 1    
   119   61  117 1    
@<TRIPOS>SUBSTRUCTURE
     1 UNK         1 GROUP             0       ****    0 ROOT    
