@<TRIPOS>MOLECULE
3R8
117   119    1
SMALL
USER_CHARGES


@<TRIPOS>ATOM
      1 CA         18.7124  -23.3040  -50.4393 C.3       0 UNK        -0.2013 
      2 C          19.5333  -23.7238  -49.2289 C.2       0 UNK         0.4866 
      3 O          20.4820  -23.0295  -48.8618 O.2       0 UNK        -0.5176 
      4 N          19.1821  -24.8583  -48.6103 N.am      1 UNK        -0.4884 
      5 CA         19.8153  -25.3732  -47.3922 C.3       1 UNK         0.0853 
      6 C6         19.4805  -26.8713  -47.1839 C.3       10 UNK        -0.0849 
      7 S7         20.7112  -27.7275  -46.1445 S.3       10 UNK        -0.2776 
      8 C8         20.0884  -29.4393  -46.1994 C.3       10 UNK         0.0316 
      9 C9         19.2860  -29.7853  -44.9536 C.ar      10 UNK        -0.0863 
     10 C10        19.8637  -30.5622  -43.9445 C.ar      10 UNK        -0.1009 
     11 C11        19.1413  -30.8941  -42.7942 C.ar      10 UNK        -0.0712 
     12 C12        17.8344  -30.4241  -42.6526 C.ar      10 UNK        -0.0894 
     13 C13        17.2587  -29.6097  -43.6326 C.ar      10 UNK        -0.0745 
     14 C14        17.9762  -29.3208  -44.7974 C.ar      10 UNK        -0.0972 
     15 C15        15.8988  -28.9752  -43.3848 C.3       10 UNK         0.0209 
     16 S16        15.9150  -27.9467  -41.8754 S.3       10 UNK        -0.2568 
     17 C17        16.9558  -26.5178  -42.3495 C.3       10 UNK        -0.0983 
     18 CA         18.5020  -26.7304  -42.2896 C.3       3 UNK         0.0876 
     19 N          19.2200  -25.7613  -43.1232 N.am      3 UNK        -0.4424 
     20 C          19.2543  -24.4308  -42.9568 C.2       2 UNK         0.4918 
     21 O          18.6523  -23.8285  -42.0670 O.2       2 UNK        -0.4875 
     22 CA         20.0934  -23.6217  -43.9659 C.3       2 UNK         0.0481 
     23 CB         21.4397  -23.2104  -43.3487 C.3       2 UNK        -0.1831 
     24 N          20.3322  -24.3285  -45.2294 N.am      2 UNK        -0.4498 
     25 C          19.3970  -24.5323  -46.1679 C.2       1 UNK         0.5027 
     26 O          18.2372  -24.1195  -46.0801 O.2       1 UNK        -0.4969 
     27 C          19.1156  -26.8485  -40.8730 C.2       3 UNK         0.5005 
     28 O          20.2492  -26.4109  -40.6534 O.2       3 UNK        -0.5279 
     29 N          18.3910  -27.4954  -39.9505 N.am      4 UNK        -0.4463 
     30 CA         18.7875  -27.8277  -38.5785 C.3       4 UNK         0.0283 
     31 CB         18.8767  -26.5536  -37.7077 C.3       4 UNK        -0.1875 
     32 C          20.0602  -28.6974  -38.5443 C.2       4 UNK         0.4949 
     33 O          19.9654  -29.9054  -38.7582 O.2       4 UNK        -0.5039 
     34 N          21.2154  -28.0756  -38.2774 N.am      5 UNK        -0.4663 
     35 CA         22.5259  -28.7258  -38.2027 C.3       5 UNK         0.0242 
     36 CB         23.3862  -27.9698  -37.1752 C.3       5 UNK        -0.1982 
     37 C          23.2553  -28.8115  -39.5575 C.2       5 UNK         0.5017 
     38 O          24.3168  -29.4371  -39.6122 O.2       5 UNK        -0.5012 
     39 N          22.7155  -28.1745  -40.6102 N.am      6 UNK        -0.4439 
     40 CA         23.2880  -28.1423  -41.9627 C.3       6 UNK         0.0297 
     41 CB         22.3826  -27.3086  -42.8794 C.3       6 UNK        -0.2006 
     42 C          23.4938  -29.5390  -42.5732 C.2       6 UNK         0.4892 
     43 O          22.7407  -30.4608  -42.2650 O.2       6 UNK        -0.5089 
     44 N          24.5232  -29.6666  -43.4222 N.am      7 UNK        -0.4243 
     45 CA         24.9282  -30.8804  -44.1518 C.3       7 UNK         0.0196 
     46 CB         23.8468  -31.2794  -45.1786 C.3       7 UNK        -0.2007 
     47 C          25.3368  -32.0783  -43.2638 C.2       7 UNK         0.5020 
     48 O          25.5422  -33.1698  -43.7961 O.2       7 UNK        -0.5147 
     49 N          25.4698  -31.8570  -41.9465 N.am      8 UNK        -0.4734 
     50 CA         25.8074  -32.8291  -40.9025 C.3       8 UNK         0.0238 
     51 CB         27.2731  -33.2945  -41.0463 C.3       8 UNK        -0.1912 
     52 C          24.8050  -33.9984  -40.8159 C.2       8 UNK         0.5038 
     53 O          25.2239  -35.1575  -40.7680 O.2       8 UNK        -0.5046 
     54 N          23.5021  -33.6749  -40.7938 N.am      9 UNK        -0.4200 
     55 CA         22.4032  -34.6309  -40.5622 C.3       9 UNK         0.0839 
     56 C          22.5539  -35.4158  -39.2275 C.2       9 UNK         0.5513 
     57 N          22.2178  -36.6985  -39.2197 N.am      9 UNK        -0.7519 
     58 O          22.9229  -34.8593  -38.1950 O.2       9 UNK        -0.4960 
     59 C59        21.0133  -33.9442  -40.5940 C.3       10 UNK        -0.0876 
     60 S60        20.5803  -33.2300  -42.2144 S.3       10 UNK        -0.2414 
     61 C61        19.7805  -31.6889  -41.6623 C.3       10 UNK         0.0169 
     62 H62        18.2579  -22.3292  -50.2640 H         1 UNK         0.0903 
     63 H63        19.3517  -23.2290  -51.3186 H         1 UNK         0.0903 
     64 H64        17.9159  -24.0147  -50.6591 H         1 UNK         0.0903 
     65 H65        18.3717  -25.3674  -48.9340 H         1 UNK         0.3096 
     66 H66        20.8952  -25.2740  -47.5281 H         1 UNK         0.1121 
     67 H67        19.4730  -27.3827  -48.1482 H         1 UNK         0.0849 
     68 H68        18.4800  -27.0008  -46.7683 H         1 UNK         0.0849 
     69 H69        19.4803  -29.5998  -47.0908 H         1 UNK         0.0865 
     70 H70        20.9411  -30.1133  -46.2953 H         1 UNK         0.0865 
     71 H71        20.8830  -30.9055  -44.0452 H         1 UNK         0.1346 
     72 H72        17.2799  -30.6424  -41.7499 H         1 UNK         0.1412 
     73 H73        17.5306  -28.7004  -45.5617 H         1 UNK         0.1426 
     74 H74        15.1546  -29.7643  -43.2694 H         1 UNK         0.0716 
     75 H75        15.5810  -28.3686  -44.2344 H         1 UNK         0.0716 
     76 H76        16.6696  -25.6719  -41.7223 H         1 UNK         0.0695 
     77 H77        16.6656  -26.2370  -43.3635 H         1 UNK         0.0695 
     78 H78        18.7385  -27.6843  -42.7506 H         1 UNK         0.0983 
     79 H79        19.7675  -26.1545  -43.8742 H         1 UNK         0.3095 
     80 H80        19.5375  -22.7083  -44.1883 H         1 UNK         0.0454 
     81 H81        22.0717  -24.0718  -43.1355 H         1 UNK         0.0851 
     82 H82        21.2911  -22.6768  -42.4088 H         1 UNK         0.0851 
     83 H83        21.9926  -22.5448  -44.0117 H         1 UNK         0.0851 
     84 H84        21.2597  -24.7028  -45.3735 H         1 UNK         0.2976 
     85 H85        17.4869  -27.8469  -40.2443 H         1 UNK         0.3116 
     86 H86        17.9866  -28.4447  -38.1682 H         1 UNK         0.0646 
     87 H87        19.5899  -25.8266  -38.0969 H         1 UNK         0.0847 
     88 H88        19.1750  -26.7961  -36.6868 H         1 UNK         0.0847 
     89 H89        17.9083  -26.0571  -37.6469 H         1 UNK         0.0847 
     90 H90        21.1988  -27.0714  -38.1668 H         1 UNK         0.3040 
     91 H91        22.3969  -29.7510  -37.8478 H         1 UNK         0.1015 
     92 H92        23.5669  -26.9384  -37.4806 H         1 UNK         0.0786 
     93 H93        24.3590  -28.4476  -37.0500 H         1 UNK         0.0786 
     94 H94        22.9094  -27.9521  -36.1949 H         1 UNK         0.0786 
     95 H95        21.8398  -27.6777  -40.4775 H         1 UNK         0.3172 
     96 H96        24.2588  -27.6484  -41.8885 H         1 UNK         0.0595 
     97 H97        22.8203  -27.1990  -43.8723 H         1 UNK         0.0839 
     98 H98        22.2295  -26.3076  -42.4794 H         1 UNK         0.0839 
     99 H99        21.4063  -27.7789  -43.0040 H         1 UNK         0.0839 
    100 H100       25.0984  -28.8526  -43.5924 H         1 UNK         0.2998 
    101 H101       25.8247  -30.6056  -44.7095 H         1 UNK         0.0822 
    102 H102       24.2202  -32.0413  -45.8638 H         1 UNK         0.0787 
    103 H103       22.9639  -31.6922  -44.6907 H         1 UNK         0.0787 
    104 H104       23.5332  -30.4272  -45.7817 H         1 UNK         0.0787 
    105 H105       25.2372  -30.9309  -41.6119 H         1 UNK         0.3055 
    106 H106       25.7259  -32.2974  -39.9526 H         1 UNK         0.1106 
    107 H107       27.5655  -33.9284  -40.2083 H         1 UNK         0.0828 
    108 H108       27.4286  -33.8713  -41.9585 H         1 UNK         0.0828 
    109 H109       27.9587  -32.4475  -41.0639 H         1 UNK         0.0828 
    110 H110       23.2375  -32.7047  -40.8955 H         1 UNK         0.2931 
    111 H111       22.4428  -35.3522  -41.3810 H         1 UNK         0.0412 
    112 H112       22.2918  -37.2203  -38.3600 H         1 UNK         0.3472 
    113 H113       21.9042  -37.1602  -40.0598 H         1 UNK         0.3472 
    114 H114       20.9651  -33.1706  -39.8244 H         1 UNK         0.0970 
    115 H115       20.2266  -34.6602  -40.3469 H         1 UNK         0.0970 
    116 H116       19.0318  -31.9421  -40.9099 H         1 UNK         0.0612 
    117 H117       20.5140  -31.0584  -41.1604 H         1 UNK         0.0612 
@<TRIPOS>BOND
     1    1    2 1    
     2    1   62 1    
     3    1   63 1    
     4    1   64 1    
     5    2    3 2    
     6    2    4 am   BACKBONE|DICT|INTERRES
     7    4    5 1    
     8    4   65 1    
     9    5    6 1    
    10    5   25 1    
    11    5   66 1    
    12    6    7 1    
    13    6   67 1    
    14    6   68 1    
    15    7    8 1    
    16    8    9 1    
    17    8   69 1    
    18    8   70 1    
    19    9   10 ar   
    20    9   14 ar   
    21   10   11 ar   
    22   10   71 1    
    23   11   12 ar   
    24   11   61 1    
    25   12   13 ar   
    26   12   72 1    
    27   13   14 ar   
    28   13   15 1    
    29   14   73 1    
    30   15   16 1    
    31   15   74 1    
    32   15   75 1    
    33   16   17 1    
    34   17   18 1    
    35   17   76 1    
    36   17   77 1    
    37   18   19 1    
    38   18   27 1    
    39   18   78 1    
    40   19   20 am   BACKBONE|DICT|INTERRES
    41   19   79 1    
    42   20   21 2    
    43   20   22 1    
    44   22   23 1    
    45   22   24 1    
    46   22   80 1    
    47   23   81 1    
    48   23   82 1    
    49   23   83 1    
    50   24   25 am   BACKBONE|DICT|INTERRES
    51   24   84 1    
    52   25   26 2    
    53   27   28 2    
    54   27   29 am   BACKBONE|DICT|INTERRES
    55   29   30 1    
    56   29   85 1    
    57   30   31 1    
    58   30   32 1    
    59   30   86 1    
    60   31   87 1    
    61   31   88 1    
    62   31   89 1    
    63   32   33 2    
    64   32   34 am   BACKBONE|DICT|INTERRES
    65   34   35 1    
    66   34   90 1    
    67   35   36 1    
    68   35   37 1    
    69   35   91 1    
    70   36   92 1    
    71   36   93 1    
    72   36   94 1    
    73   37   38 2    
    74   37   39 am   BACKBONE|DICT|INTERRES
    75   39   40 1    
    76   39   95 1    
    77   40   41 1    
    78   40   42 1    
    79   40   96 1    
    80   41   97 1    
    81   41   98 1    
    82   41   99 1    
    83   42   43 2    
    84   42   44 am   BACKBONE|DICT|INTERRES
    85   44   45 1    
    86   44  100 1    
    87   45   46 1    
    88   45   47 1    
    89   45  101 1    
    90   46  102 1    
    91   46  103 1    
    92   46  104 1    
    93   47   48 2    
    94   47   49 am   BACKBONE|DICT|INTERRES
    95   49   50 1    
    96   49  105 1    
    97   50   51 1    
    98   50   52 1    
    99   50  106 1    
   100   51  107 1    
   101   51  108 1    
   102   51  109 1    
   103   52   53 2    
   104   52   54 am   BACKBONE|DICT|INTERRES
   105   54   55 1    
   106   54  110 1    
   107   55   56 1    
   108   55   59 1    
   109   55  111 1    
   110   56   57 am   BACKBONE|DICT|INTERRES
   111   56   58 2    
   112   57  112 1    
   113   57  113 1    
   114   59   60 1    
   115   59  114 1    
   116   59  115 1    
   117   60   61 1    
   118   61  116 1    
   119   61  117 1    
@<TRIPOS>SUBSTRUCTURE
     1 UNK         1 GROUP             0       ****    0 ROOT    
