@<TRIPOS>MOLECULE
3R8
117   119    1
SMALL
USER_CHARGES


@<TRIPOS>ATOM
      1 CA         12.8772  -25.1670  -47.4947 C.3       0 UNK        -0.2013 
      2 C          14.1118  -26.0530  -47.5592 C.2       0 UNK         0.4866 
      3 O          14.5667  -26.3908  -48.6521 O.2       0 UNK        -0.5176 
      4 N          14.6516  -26.4392  -46.3975 N.am      1 UNK        -0.4884 
      5 CA         15.8647  -27.2520  -46.2688 C.3       1 UNK         0.0853 
      6 C6         16.0652  -27.7628  -44.8213 C.3       10 UNK        -0.0849 
      7 S7         14.7558  -28.8950  -44.2564 S.3       10 UNK        -0.2776 
      8 C8         14.7757  -28.5825  -42.4589 C.3       10 UNK         0.0316 
      9 C9         16.1606  -28.7690  -41.8474 C.ar      10 UNK        -0.0863 
     10 C10        16.7160  -30.0475  -41.7348 C.ar      10 UNK        -0.1009 
     11 C11        17.9839  -30.2228  -41.1721 C.ar      10 UNK        -0.0712 
     12 C12        18.6883  -29.1117  -40.7013 C.ar      10 UNK        -0.0894 
     13 C13        18.1494  -27.8274  -40.8139 C.ar      10 UNK        -0.0745 
     14 C14        16.8846  -27.6625  -41.3879 C.ar      10 UNK        -0.0972 
     15 C15        18.9220  -26.6241  -40.2875 C.3       10 UNK         0.0209 
     16 S16        20.5786  -26.4673  -41.0307 S.3       10 UNK        -0.2568 
     17 C17        20.1788  -25.9405  -42.7315 C.3       10 UNK        -0.0983 
     18 CA         21.2225  -26.4202  -43.7734 C.3       3 UNK         0.0876 
     19 N          20.7365  -26.2344  -45.1362 N.am      3 UNK        -0.4424 
     20 C          20.0732  -27.1671  -45.8217 C.2       2 UNK         0.4918 
     21 O          19.8633  -28.3084  -45.4044 O.2       2 UNK        -0.4875 
     22 CA         19.5129  -26.7634  -47.1940 C.3       2 UNK         0.0481 
     23 CB         20.2832  -27.4553  -48.3297 C.3       2 UNK        -0.1831 
     24 N          18.1107  -27.1746  -47.2274 N.am      2 UNK        -0.4498 
     25 C          17.1218  -26.4601  -46.6762 C.2       1 UNK         0.5027 
     26 O          17.2135  -25.2630  -46.3907 O.2       1 UNK        -0.4969 
     27 C          22.5667  -25.6915  -43.6304 C.2       3 UNK         0.5005 
     28 O          22.7255  -24.5871  -44.1574 O.2       3 UNK        -0.5279 
     29 N          23.4883  -26.3190  -42.8947 N.am      4 UNK        -0.4463 
     30 CA         24.7786  -25.7757  -42.4727 C.3       4 UNK         0.0283 
     31 CB         25.8855  -26.3420  -43.3813 C.3       4 UNK        -0.1875 
     32 C          25.0415  -26.0871  -40.9858 C.2       4 UNK         0.4949 
     33 O          26.1865  -25.9836  -40.5450 O.2       4 UNK        -0.5039 
     34 N          23.9892  -26.4831  -40.2478 N.am      5 UNK        -0.4663 
     35 CA         23.9921  -26.9560  -38.8563 C.3       5 UNK         0.0242 
     36 CB         24.3549  -25.8098  -37.8877 C.3       5 UNK        -0.1982 
     37 C          24.8508  -28.2220  -38.6454 C.2       5 UNK         0.5017 
     38 O          25.4651  -28.3788  -37.5882 O.2       5 UNK        -0.5012 
     39 N          24.8811  -29.0979  -39.6575 N.am      6 UNK        -0.4439 
     40 CA         25.6124  -30.3648  -39.6542 C.3       6 UNK         0.0297 
     41 CB         26.2351  -30.5721  -41.0467 C.3       6 UNK        -0.2006 
     42 C          24.6747  -31.5300  -39.3036 C.2       6 UNK         0.4892 
     43 O          23.4514  -31.3751  -39.3343 O.2       6 UNK        -0.5089 
     44 N          25.2674  -32.7003  -39.0265 N.am      7 UNK        -0.4243 
     45 CA         24.5535  -33.9595  -38.7723 C.3       7 UNK         0.0196 
     46 CB         25.5528  -35.0273  -38.2984 C.3       7 UNK        -0.2007 
     47 C          23.7590  -34.4688  -39.9904 C.2       7 UNK         0.5020 
     48 O          22.7174  -35.0995  -39.8141 O.2       7 UNK        -0.5147 
     49 N          24.2420  -34.1492  -41.1985 N.am      8 UNK        -0.4734 
     50 CA         23.5693  -34.3893  -42.4795 C.3       8 UNK         0.0238 
     51 CB         24.6069  -34.9055  -43.4944 C.3       8 UNK        -0.1912 
     52 C          22.8498  -33.1188  -42.9785 C.2       8 UNK         0.5038 
     53 O          22.7716  -32.8964  -44.1886 O.2       8 UNK        -0.5046 
     54 N          22.3720  -32.2920  -42.0384 N.am      9 UNK        -0.4200 
     55 CA         21.7507  -30.9711  -42.2182 C.3       9 UNK         0.0839 
     56 C          22.7736  -29.8934  -42.6588 C.2       9 UNK         0.5513 
     57 N          23.4326  -30.0592  -43.7966 N.am      9 UNK        -0.7519 
     58 O          22.9896  -28.9096  -41.9553 O.2       9 UNK        -0.4960 
     59 C59        20.4804  -30.9603  -43.1155 C.3       10 UNK        -0.0876 
     60 S60        19.2277  -32.2147  -42.6653 S.3       10 UNK        -0.2414 
     61 C61        18.5955  -31.6113  -41.0669 C.3       10 UNK         0.0169 
     62 H62        12.5726  -24.9657  -46.4683 H         1 UNK         0.0903 
     63 H63        13.0741  -24.2130  -47.9825 H         1 UNK         0.0903 
     64 H64        12.0440  -25.6470  -48.0064 H         1 UNK         0.0903 
     65 H65        14.2430  -26.1265  -45.5290 H         1 UNK         0.3096 
     66 H66        15.7656  -28.1117  -46.9352 H         1 UNK         0.1121 
     67 H67        17.0107  -28.3015  -44.7246 H         1 UNK         0.0849 
     68 H68        16.1307  -26.9173  -44.1337 H         1 UNK         0.0849 
     69 H69        14.4017  -27.5752  -42.2691 H         1 UNK         0.0865 
     70 H70        14.0735  -29.2619  -41.9736 H         1 UNK         0.0865 
     71 H71        16.1668  -30.9057  -42.0980 H         1 UNK         0.1346 
     72 H72        19.6648  -29.2412  -40.2552 H         1 UNK         0.1412 
     73 H73        16.4600  -26.6712  -41.4711 H         1 UNK         0.1426 
     74 H74        19.0328  -26.7266  -39.2072 H         1 UNK         0.0716 
     75 H75        18.3697  -25.6978  -40.4534 H         1 UNK         0.0716 
     76 H76        20.0700  -24.8545  -42.7527 H         1 UNK         0.0695 
     77 H77        19.1993  -26.3458  -42.9903 H         1 UNK         0.0695 
     78 H78        21.4030  -27.4846  -43.6142 H         1 UNK         0.0983 
     79 H79        20.9272  -25.3282  -45.5432 H         1 UNK         0.3095 
     80 H80        19.5920  -25.6821  -47.3267 H         1 UNK         0.0454 
     81 H81        20.2594  -28.5418  -48.2349 H         1 UNK         0.0851 
     82 H82        21.3309  -27.1517  -48.3297 H         1 UNK         0.0851 
     83 H83        19.8704  -27.1949  -49.3043 H         1 UNK         0.0851 
     84 H84        17.9552  -28.1596  -47.3893 H         1 UNK         0.2976 
     85 H85        23.2685  -27.2460  -42.5288 H         1 UNK         0.3116 
     86 H86        24.7706  -24.6878  -42.5654 H         1 UNK         0.0646 
     87 H87        25.9704  -27.4248  -43.2818 H         1 UNK         0.0847 
     88 H88        26.8571  -25.9134  -43.1325 H         1 UNK         0.0847 
     89 H89        25.6931  -26.1143  -44.4297 H         1 UNK         0.0847 
     90 H90        23.0856  -26.5134  -40.7026 H         1 UNK         0.3040 
     91 H91        22.9661  -27.2571  -38.6371 H         1 UNK         0.1015 
     92 H92        25.3928  -25.4956  -38.0019 H         1 UNK         0.0786 
     93 H93        24.2213  -26.1171  -36.8498 H         1 UNK         0.0786 
     94 H94        23.7204  -24.9384  -38.0494 H         1 UNK         0.0786 
     95 H95        24.2730  -28.9322  -40.4539 H         1 UNK         0.3172 
     96 H96        26.4162  -30.3323  -38.9158 H         1 UNK         0.0595 
     97 H97        26.8805  -31.4509  -41.0656 H         1 UNK         0.0839 
     98 H98        26.8501  -29.7191  -41.3350 H         1 UNK         0.0839 
     99 H99        25.4770  -30.7100  -41.8173 H         1 UNK         0.0839 
    100 H100       26.2768  -32.7428  -39.0135 H         1 UNK         0.2998 
    101 H101       23.8367  -33.7791  -37.9678 H         1 UNK         0.0822 
    102 H102       25.0437  -35.9671  -38.0785 H         1 UNK         0.0787 
    103 H103       26.3104  -35.2371  -39.0549 H         1 UNK         0.0787 
    104 H104       26.0636  -34.7174  -37.3865 H         1 UNK         0.0787 
    105 H105       25.1011  -33.6196  -41.2376 H         1 UNK         0.3055 
    106 H106       22.8022  -35.1581  -42.3618 H         1 UNK         0.1106 
    107 H107       24.1340  -35.1672  -44.4420 H         1 UNK         0.0828 
    108 H108       25.3714  -34.1572  -43.7070 H         1 UNK         0.0828 
    109 H109       25.1068  -35.8024  -43.1283 H         1 UNK         0.0828 
    110 H110       22.5412  -32.5374  -41.0720 H         1 UNK         0.2931 
    111 H111       21.4314  -30.6832  -41.2165 H         1 UNK         0.0412 
    112 H112       23.2800  -30.9065  -44.3312 H         1 UNK         0.3472 
    113 H113       24.1122  -29.3818  -44.1002 H         1 UNK         0.3472 
    114 H114       20.0119  -29.9747  -43.0998 H         1 UNK         0.0970 
    115 H115       20.7506  -31.1305  -44.1589 H         1 UNK         0.0970 
    116 H116       19.4005  -31.6273  -40.3309 H         1 UNK         0.0612 
    117 H117       17.8410  -32.3106  -40.7040 H         1 UNK         0.0612 
@<TRIPOS>BOND
     1    1    2 1    
     2    1   62 1    
     3    1   63 1    
     4    1   64 1    
     5    2    3 2    
     6    2    4 am   BACKBONE|DICT|INTERRES
     7    4    5 1    
     8    4   65 1    
     9    5    6 1    
    10    5   25 1    
    11    5   66 1    
    12    6    7 1    
    13    6   67 1    
    14    6   68 1    
    15    7    8 1    
    16    8    9 1    
    17    8   69 1    
    18    8   70 1    
    19    9   10 ar   
    20    9   14 ar   
    21   10   11 ar   
    22   10   71 1    
    23   11   12 ar   
    24   11   61 1    
    25   12   13 ar   
    26   12   72 1    
    27   13   14 ar   
    28   13   15 1    
    29   14   73 1    
    30   15   16 1    
    31   15   74 1    
    32   15   75 1    
    33   16   17 1    
    34   17   18 1    
    35   17   76 1    
    36   17   77 1    
    37   18   19 1    
    38   18   27 1    
    39   18   78 1    
    40   19   20 am   BACKBONE|DICT|INTERRES
    41   19   79 1    
    42   20   21 2    
    43   20   22 1    
    44   22   23 1    
    45   22   24 1    
    46   22   80 1    
    47   23   81 1    
    48   23   82 1    
    49   23   83 1    
    50   24   25 am   BACKBONE|DICT|INTERRES
    51   24   84 1    
    52   25   26 2    
    53   27   28 2    
    54   27   29 am   BACKBONE|DICT|INTERRES
    55   29   30 1    
    56   29   85 1    
    57   30   31 1    
    58   30   32 1    
    59   30   86 1    
    60   31   87 1    
    61   31   88 1    
    62   31   89 1    
    63   32   33 2    
    64   32   34 am   BACKBONE|DICT|INTERRES
    65   34   35 1    
    66   34   90 1    
    67   35   36 1    
    68   35   37 1    
    69   35   91 1    
    70   36   92 1    
    71   36   93 1    
    72   36   94 1    
    73   37   38 2    
    74   37   39 am   BACKBONE|DICT|INTERRES
    75   39   40 1    
    76   39   95 1    
    77   40   41 1    
    78   40   42 1    
    79   40   96 1    
    80   41   97 1    
    81   41   98 1    
    82   41   99 1    
    83   42   43 2    
    84   42   44 am   BACKBONE|DICT|INTERRES
    85   44   45 1    
    86   44  100 1    
    87   45   46 1    
    88   45   47 1    
    89   45  101 1    
    90   46  102 1    
    91   46  103 1    
    92   46  104 1    
    93   47   48 2    
    94   47   49 am   BACKBONE|DICT|INTERRES
    95   49   50 1    
    96   49  105 1    
    97   50   51 1    
    98   50   52 1    
    99   50  106 1    
   100   51  107 1    
   101   51  108 1    
   102   51  109 1    
   103   52   53 2    
   104   52   54 am   BACKBONE|DICT|INTERRES
   105   54   55 1    
   106   54  110 1    
   107   55   56 1    
   108   55   59 1    
   109   55  111 1    
   110   56   57 am   BACKBONE|DICT|INTERRES
   111   56   58 2    
   112   57  112 1    
   113   57  113 1    
   114   59   60 1    
   115   59  114 1    
   116   59  115 1    
   117   60   61 1    
   118   61  116 1    
   119   61  117 1    
@<TRIPOS>SUBSTRUCTURE
     1 UNK         1 GROUP             0       ****    0 ROOT    
