@<TRIPOS>MOLECULE
3R8
117   119    1
SMALL
USER_CHARGES


@<TRIPOS>ATOM
      1 CA         13.8732  -22.9467  -45.0458 C.3       0 UNK        -0.2013 
      2 C          14.5538  -24.2965  -45.2140 C.2       0 UNK         0.4866 
      3 O          14.3401  -25.1937  -44.3981 O.2       0 UNK        -0.5176 
      4 N          15.3813  -24.4436  -46.2585 N.am      1 UNK        -0.4884 
      5 CA         16.1505  -25.6385  -46.6448 C.3       1 UNK         0.0853 
      6 C6         15.2676  -26.9006  -46.8565 C.3       10 UNK        -0.0849 
      7 S7         15.9823  -28.0735  -48.0584 S.3       10 UNK        -0.2776 
      8 C8         16.1868  -29.5954  -47.0668 C.3       10 UNK         0.0316 
      9 C9         17.4652  -29.6280  -46.2317 C.ar      10 UNK        -0.0863 
     10 C10        17.4153  -29.9905  -44.8799 C.ar      10 UNK        -0.1009 
     11 C11        18.5878  -30.0997  -44.1223 C.ar      10 UNK        -0.0712 
     12 C12        19.8159  -29.8328  -44.7351 C.ar      10 UNK        -0.0894 
     13 C13        19.8856  -29.4535  -46.0767 C.ar      10 UNK        -0.0745 
     14 C14        18.7065  -29.3621  -46.8215 C.ar      10 UNK        -0.0972 
     15 C15        21.2344  -29.1761  -46.7294 C.3       10 UNK         0.0209 
     16 S16        21.8256  -27.4751  -46.4349 S.3       10 UNK        -0.2568 
     17 C17        22.4739  -27.5587  -44.7279 C.3       10 UNK        -0.0983 
     18 CA         21.7227  -26.6385  -43.7308 C.3       3 UNK         0.0876 
     19 N          20.2679  -26.8322  -43.7720 N.am      3 UNK        -0.4424 
     20 C          19.3566  -25.9614  -43.3210 C.2       2 UNK         0.4918 
     21 O          19.6226  -24.8378  -42.8912 O.2       2 UNK        -0.4875 
     22 CA         17.9043  -26.4692  -43.3025 C.3       2 UNK         0.0481 
     23 CB         17.2184  -26.1356  -41.9668 C.3       2 UNK        -0.1831 
     24 N          17.0572  -26.0039  -44.4003 N.am      2 UNK        -0.4498 
     25 C          17.3405  -25.9297  -45.7082 C.2       1 UNK         0.5027 
     26 O          18.4586  -26.0840  -46.1963 O.2       1 UNK        -0.4969 
     27 C          22.2904  -26.8145  -42.3017 C.2       3 UNK         0.5005 
     28 O          23.4264  -26.4094  -42.0490 O.2       3 UNK        -0.5279 
     29 N          21.4942  -27.4086  -41.3964 N.am      4 UNK        -0.4463 
     30 CA         21.7644  -27.6261  -39.9737 C.3       4 UNK         0.0283 
     31 CB         21.8125  -26.2769  -39.2192 C.3       4 UNK        -0.1875 
     32 C          22.9947  -28.5260  -39.7601 C.2       4 UNK         0.4949 
     33 O          23.0335  -29.6307  -40.3071 O.2       4 UNK        -0.5039 
     34 N          23.9715  -28.0509  -38.9764 N.am      5 UNK        -0.4663 
     35 CA         25.1980  -28.7630  -38.6076 C.3       5 UNK         0.0242 
     36 CB         25.9743  -27.9264  -37.5782 C.3       5 UNK        -0.1982 
     37 C          26.1065  -29.1301  -39.7935 C.2       5 UNK         0.5017 
     38 O          26.8632  -30.0938  -39.6802 O.2       5 UNK        -0.5012 
     39 N          25.9989  -28.3968  -40.9123 N.am      6 UNK        -0.4439 
     40 CA         26.7409  -28.6618  -42.1497 C.3       6 UNK         0.0297 
     41 CB         26.5807  -27.4736  -43.1105 C.3       6 UNK        -0.2006 
     42 C          26.3326  -29.9757  -42.8429 C.2       6 UNK         0.4892 
     43 O          27.1586  -30.5606  -43.5441 O.2       6 UNK        -0.5089 
     44 N          25.0861  -30.4173  -42.6264 N.am      7 UNK        -0.4243 
     45 CA         24.5441  -31.6857  -43.1237 C.3       7 UNK         0.0196 
     46 CB         23.2703  -31.3831  -43.9232 C.3       7 UNK        -0.2007 
     47 C          24.2456  -32.6780  -41.9854 C.2       7 UNK         0.5020 
     48 O          23.7747  -33.7809  -42.2643 O.2       7 UNK        -0.5147 
     49 N          24.5124  -32.2739  -40.7342 N.am      8 UNK        -0.4734 
     50 CA         24.2313  -32.9851  -39.4826 C.3       8 UNK         0.0238 
     51 CB         25.1001  -34.2561  -39.3650 C.3       8 UNK        -0.1912 
     52 C          22.7277  -33.2541  -39.2643 C.2       8 UNK         0.5038 
     53 O          22.3627  -34.3336  -38.7933 O.2       8 UNK        -0.5046 
     54 N          21.8824  -32.2664  -39.5962 N.am      9 UNK        -0.4200 
     55 CA         20.4241  -32.3199  -39.3796 C.3       9 UNK         0.0839 
     56 C          19.9923  -32.2281  -37.8858 C.2       9 UNK         0.5513 
     57 N          20.8527  -31.8083  -36.9653 N.am      9 UNK        -0.7519 
     58 O          18.8522  -32.5462  -37.5579 O.2       9 UNK        -0.4960 
     59 C59        19.6595  -31.2653  -40.2215 C.3       10 UNK        -0.0876 
     60 S60        19.9005  -31.4516  -42.0173 S.3       10 UNK        -0.2414 
     61 C61        18.5045  -30.4478  -42.6354 C.3       10 UNK         0.0169 
     62 H62        14.1500  -22.2475  -45.8346 H         1 UNK         0.0903 
     63 H63        12.7906  -23.0686  -45.0656 H         1 UNK         0.0903 
     64 H64        14.1487  -22.5048  -44.0886 H         1 UNK         0.0903 
     65 H65        15.5263  -23.6468  -46.8646 H         1 UNK         0.3096 
     66 H66        16.5851  -25.3760  -47.6114 H         1 UNK         0.1121 
     67 H67        14.2959  -26.6057  -47.2557 H         1 UNK         0.0849 
     68 H68        15.0525  -27.4027  -45.9113 H         1 UNK         0.0849 
     69 H69        15.3040  -29.7419  -46.4426 H         1 UNK         0.0865 
     70 H70        16.2125  -30.4450  -47.7504 H         1 UNK         0.0865 
     71 H71        16.4602  -30.1961  -44.4157 H         1 UNK         0.1346 
     72 H72        20.7239  -29.9143  -44.1613 H         1 UNK         0.1412 
     73 H73        18.7539  -29.0854  -47.8660 H         1 UNK         0.1426 
     74 H74        21.1576  -29.3275  -47.8071 H         1 UNK         0.0716 
     75 H75        21.9778  -29.8943  -46.3835 H         1 UNK         0.0716 
     76 H76        23.5250  -27.2695  -44.7738 H         1 UNK         0.0695 
     77 H77        22.4743  -28.5907  -44.3822 H         1 UNK         0.0695 
     78 H78        21.9234  -25.6046  -44.0202 H         1 UNK         0.0983 
     79 H79        19.9457  -27.6788  -44.2220 H         1 UNK         0.3095 
     80 H80        17.9292  -27.5541  -43.3824 H         1 UNK         0.0454 
     81 H81        17.8176  -26.4750  -41.1207 H         1 UNK         0.0851 
     82 H82        16.2450  -26.6201  -41.8876 H         1 UNK         0.0851 
     83 H83        17.0675  -25.0617  -41.8498 H         1 UNK         0.0851 
     84 H84        16.0896  -25.8042  -44.1579 H         1 UNK         0.2976 
     85 H85        20.6039  -27.7497  -41.7255 H         1 UNK         0.3116 
     86 H86        20.9141  -28.1818  -39.5793 H         1 UNK         0.0646 
     87 H87        22.6466  -25.6510  -39.5390 H         1 UNK         0.0847 
     88 H88        21.8976  -26.4259  -38.1419 H         1 UNK         0.0847 
     89 H89        20.8980  -25.7072  -39.3852 H         1 UNK         0.0847 
     90 H90        23.8558  -27.1263  -38.5867 H         1 UNK         0.3040 
     91 H91        24.9013  -29.7001  -38.1316 H         1 UNK         0.1015 
     92 H92        26.2752  -26.9607  -37.9866 H         1 UNK         0.0786 
     93 H93        26.8816  -28.4419  -37.2592 H         1 UNK         0.0786 
     94 H94        25.3786  -27.7432  -36.6837 H         1 UNK         0.0786 
     95 H95        25.3323  -27.6349  -40.9294 H         1 UNK         0.3172 
     96 H96        27.7986  -28.7449  -41.8905 H         1 UNK         0.0595 
     97 H97        25.5439  -27.3399  -43.4177 H         1 UNK         0.0839 
     98 H98        27.1705  -27.6225  -44.0161 H         1 UNK         0.0839 
     99 H99        26.9185  -26.5429  -42.6544 H         1 UNK         0.0839 
    100 H100       24.4743  -29.8742  -42.0285 H         1 UNK         0.2998 
    101 H101       25.2568  -32.1769  -43.7893 H         1 UNK         0.0822 
    102 H102       23.4904  -30.7465  -44.7790 H         1 UNK         0.0787 
    103 H103       22.8100  -32.2949  -44.3063 H         1 UNK         0.0787 
    104 H104       22.5346  -30.8801  -43.2976 H         1 UNK         0.0787 
    105 H105       24.9090  -31.3513  -40.6250 H         1 UNK         0.3055 
    106 H106       24.5311  -32.3128  -38.6773 H         1 UNK         0.1106 
    107 H107       24.9942  -34.7126  -38.3800 H         1 UNK         0.0828 
    108 H108       24.8207  -35.0093  -40.1023 H         1 UNK         0.0828 
    109 H109       26.1570  -34.0278  -39.5020 H         1 UNK         0.0828 
    110 H110       22.2557  -31.4034  -39.9800 H         1 UNK         0.2931 
    111 H111       20.0902  -33.3012  -39.7228 H         1 UNK         0.0412 
    112 H112       20.5589  -31.7580  -36.0023 H         1 UNK         0.3472 
    113 H113       21.7892  -31.5425  -37.2217 H         1 UNK         0.3472 
    114 H114       18.5876  -31.3312  -40.0229 H         1 UNK         0.0970 
    115 H115       19.9605  -30.2585  -39.9330 H         1 UNK         0.0970 
    116 H116       17.5786  -30.9856  -42.4258 H         1 UNK         0.0612 
    117 H117       18.4607  -29.5178  -42.0679 H         1 UNK         0.0612 
@<TRIPOS>BOND
     1    1    2 1    
     2    1   62 1    
     3    1   63 1    
     4    1   64 1    
     5    2    3 2    
     6    2    4 am   BACKBONE|DICT|INTERRES
     7    4    5 1    
     8    4   65 1    
     9    5    6 1    
    10    5   25 1    
    11    5   66 1    
    12    6    7 1    
    13    6   67 1    
    14    6   68 1    
    15    7    8 1    
    16    8    9 1    
    17    8   69 1    
    18    8   70 1    
    19    9   10 ar   
    20    9   14 ar   
    21   10   11 ar   
    22   10   71 1    
    23   11   12 ar   
    24   11   61 1    
    25   12   13 ar   
    26   12   72 1    
    27   13   14 ar   
    28   13   15 1    
    29   14   73 1    
    30   15   16 1    
    31   15   74 1    
    32   15   75 1    
    33   16   17 1    
    34   17   18 1    
    35   17   76 1    
    36   17   77 1    
    37   18   19 1    
    38   18   27 1    
    39   18   78 1    
    40   19   20 am   BACKBONE|DICT|INTERRES
    41   19   79 1    
    42   20   21 2    
    43   20   22 1    
    44   22   23 1    
    45   22   24 1    
    46   22   80 1    
    47   23   81 1    
    48   23   82 1    
    49   23   83 1    
    50   24   25 am   BACKBONE|DICT|INTERRES
    51   24   84 1    
    52   25   26 2    
    53   27   28 2    
    54   27   29 am   BACKBONE|DICT|INTERRES
    55   29   30 1    
    56   29   85 1    
    57   30   31 1    
    58   30   32 1    
    59   30   86 1    
    60   31   87 1    
    61   31   88 1    
    62   31   89 1    
    63   32   33 2    
    64   32   34 am   BACKBONE|DICT|INTERRES
    65   34   35 1    
    66   34   90 1    
    67   35   36 1    
    68   35   37 1    
    69   35   91 1    
    70   36   92 1    
    71   36   93 1    
    72   36   94 1    
    73   37   38 2    
    74   37   39 am   BACKBONE|DICT|INTERRES
    75   39   40 1    
    76   39   95 1    
    77   40   41 1    
    78   40   42 1    
    79   40   96 1    
    80   41   97 1    
    81   41   98 1    
    82   41   99 1    
    83   42   43 2    
    84   42   44 am   BACKBONE|DICT|INTERRES
    85   44   45 1    
    86   44  100 1    
    87   45   46 1    
    88   45   47 1    
    89   45  101 1    
    90   46  102 1    
    91   46  103 1    
    92   46  104 1    
    93   47   48 2    
    94   47   49 am   BACKBONE|DICT|INTERRES
    95   49   50 1    
    96   49  105 1    
    97   50   51 1    
    98   50   52 1    
    99   50  106 1    
   100   51  107 1    
   101   51  108 1    
   102   51  109 1    
   103   52   53 2    
   104   52   54 am   BACKBONE|DICT|INTERRES
   105   54   55 1    
   106   54  110 1    
   107   55   56 1    
   108   55   59 1    
   109   55  111 1    
   110   56   57 am   BACKBONE|DICT|INTERRES
   111   56   58 2    
   112   57  112 1    
   113   57  113 1    
   114   59   60 1    
   115   59  114 1    
   116   59  115 1    
   117   60   61 1    
   118   61  116 1    
   119   61  117 1    
@<TRIPOS>SUBSTRUCTURE
     1 UNK         1 GROUP             0       ****    0 ROOT    
