@<TRIPOS>MOLECULE
3R8
117   119    1
SMALL
USER_CHARGES


@<TRIPOS>ATOM
      1 CA         16.7289  -22.9252  -42.2406 C.3       0 UNK        -0.2013 
      2 C          17.1657  -24.1613  -43.0131 C.2       0 UNK         0.4866 
      3 O          16.8287  -25.2758  -42.6154 O.2       0 UNK        -0.5176 
      4 N          17.9087  -23.9647  -44.1119 N.am      1 UNK        -0.4884 
      5 CA         18.4819  -25.0047  -44.9785 C.3       1 UNK         0.0853 
      6 C6         17.3942  -25.9100  -45.6230 C.3       10 UNK        -0.0849 
      7 S7         17.9131  -26.6866  -47.1969 S.3       10 UNK        -0.2776 
      8 C8         16.8752  -28.1850  -47.2536 C.3       10 UNK         0.0316 
      9 C9         17.2679  -29.2073  -46.1947 C.ar      10 UNK        -0.0863 
     10 C10        18.2973  -30.1250  -46.4344 C.ar      10 UNK        -0.1009 
     11 C11        18.6507  -31.0716  -45.4638 C.ar      10 UNK        -0.0712 
     12 C12        17.9492  -31.0969  -44.2552 C.ar      10 UNK        -0.0894 
     13 C13        16.9489  -30.1610  -43.9884 C.ar      10 UNK        -0.0745 
     14 C14        16.5924  -29.2392  -44.9722 C.ar      10 UNK        -0.0972 
     15 C15        16.2737  -30.1194  -42.6279 C.3       10 UNK         0.0209 
     16 S16        17.1244  -28.9540  -41.5130 S.3       10 UNK        -0.2568 
     17 C17        18.6158  -29.9009  -41.0466 C.3       10 UNK        -0.0983 
     18 CA         19.9634  -29.1784  -41.3021 C.3       3 UNK         0.0876 
     19 N          20.1216  -28.6589  -42.6686 N.am      3 UNK        -0.4424 
     20 C          21.2923  -28.2212  -43.1582 C.2       2 UNK         0.4918 
     21 O          22.3427  -28.2401  -42.5189 O.2       2 UNK        -0.4875 
     22 CA         21.3153  -27.5879  -44.5563 C.3       2 UNK         0.0481 
     23 CB         21.6507  -28.6278  -45.6319 C.3       2 UNK        -0.1831 
     24 N          20.1028  -26.8542  -44.9209 N.am      2 UNK        -0.4498 
     25 C          19.6234  -25.7824  -44.2762 C.2       1 UNK         0.5027 
     26 O          20.0898  -25.3797  -43.2060 O.2       1 UNK        -0.4969 
     27 C          20.2641  -28.1292  -40.2088 C.2       3 UNK         0.5005 
     28 O          20.7361  -28.5082  -39.1358 O.2       3 UNK        -0.5279 
     29 N          20.0207  -26.8440  -40.5007 N.am      4 UNK        -0.4463 
     30 CA         20.3748  -25.7265  -39.6281 C.3       4 UNK         0.0283 
     31 CB         19.3502  -24.5940  -39.8048 C.3       4 UNK        -0.1875 
     32 C          21.7943  -25.2176  -39.9205 C.2       4 UNK         0.4949 
     33 O          22.5453  -24.9516  -38.9822 O.2       4 UNK        -0.5039 
     34 N          22.1243  -25.0582  -41.2099 N.am      5 UNK        -0.4663 
     35 CA         23.3525  -24.4068  -41.6693 C.3       5 UNK         0.0242 
     36 CB         23.1762  -23.9714  -43.1331 C.3       5 UNK        -0.1982 
     37 C          24.6267  -25.2526  -41.5126 C.2       5 UNK         0.5017 
     38 O          25.6813  -24.6801  -41.2335 O.2       5 UNK        -0.5012 
     39 N          24.5260  -26.5712  -41.7249 N.am      6 UNK        -0.4439 
     40 CA         25.6687  -27.4916  -41.7657 C.3       6 UNK         0.0297 
     41 CB         25.9192  -27.9127  -43.2241 C.3       6 UNK        -0.2006 
     42 C          25.4802  -28.7330  -40.8808 C.2       6 UNK         0.4892 
     43 O          26.4747  -29.2441  -40.3637 O.2       6 UNK        -0.5089 
     44 N          24.2303  -29.1955  -40.7333 N.am      7 UNK        -0.4243 
     45 CA         23.8103  -30.4493  -40.0981 C.3       7 UNK         0.0196 
     46 CB         24.2348  -30.5069  -38.6125 C.3       7 UNK        -0.2007 
     47 C          24.2438  -31.6820  -40.9195 C.2       7 UNK         0.5020 
     48 O          24.5582  -31.5549  -42.1043 O.2       7 UNK        -0.5147 
     49 N          24.2021  -32.8637  -40.2870 N.am      8 UNK        -0.4734 
     50 CA         24.5663  -34.1859  -40.8263 C.3       8 UNK         0.0238 
     51 CB         26.0538  -34.2264  -41.2399 C.3       8 UNK        -0.1912 
     52 C          23.6389  -34.7269  -41.9373 C.2       8 UNK         0.5038 
     53 O          23.9676  -35.7478  -42.5447 O.2       8 UNK        -0.5046 
     54 N          22.4920  -34.0737  -42.1649 N.am      9 UNK        -0.4200 
     55 CA         21.4086  -34.5471  -43.0393 C.3       9 UNK         0.0839 
     56 C          20.7197  -35.8168  -42.4676 C.2       9 UNK         0.5513 
     57 N          20.2974  -36.7331  -43.3276 N.am      9 UNK        -0.7519 
     58 O          20.5260  -35.9548  -41.2612 O.2       9 UNK        -0.4960 
     59 C59        20.3641  -33.4304  -43.2957 C.3       10 UNK        -0.0876 
     60 S60        21.0198  -32.1022  -44.3660 S.3       10 UNK        -0.2414 
     61 C61        19.7917  -32.0543  -45.7233 C.3       10 UNK         0.0169 
     62 H62        15.6429  -22.8377  -42.2582 H         1 UNK         0.0903 
     63 H63        17.1506  -22.0113  -42.6585 H         1 UNK         0.0903 
     64 H64        17.0467  -22.9995  -41.2011 H         1 UNK         0.0903 
     65 H65        18.1705  -23.0195  -44.3565 H         1 UNK         0.3096 
     66 H66        18.9694  -24.4525  -45.7837 H         1 UNK         0.1121 
     67 H67        17.0689  -26.6582  -44.9040 H         1 UNK         0.0849 
     68 H68        16.5063  -25.3171  -45.8482 H         1 UNK         0.0849 
     69 H69        15.8265  -27.9035  -47.1444 H         1 UNK         0.0865 
     70 H70        16.9629  -28.6353  -48.2435 H         1 UNK         0.0865 
     71 H71        18.8265  -30.0965  -47.3773 H         1 UNK         0.1346 
     72 H72        18.2013  -31.8290  -43.5052 H         1 UNK         0.1412 
     73 H73        15.7995  -28.5310  -44.7728 H         1 UNK         0.1426 
     74 H74        16.2433  -31.1127  -42.1773 H         1 UNK         0.0716 
     75 H75        15.2351  -29.8044  -42.7401 H         1 UNK         0.0716 
     76 H76        18.5219  -30.1745  -39.9937 H         1 UNK         0.0695 
     77 H77        18.6226  -30.8535  -41.5713 H         1 UNK         0.0695 
     78 H78        20.7350  -29.9416  -41.1888 H         1 UNK         0.0983 
     79 H79        19.2878  -28.6076  -43.2372 H         1 UNK         0.3095 
     80 H80        22.1293  -26.8614  -44.5538 H         1 UNK         0.0454 
     81 H81        22.5589  -29.1763  -45.3771 H         1 UNK         0.0851 
     82 H82        20.8538  -29.3579  -45.7436 H         1 UNK         0.0851 
     83 H83        21.8161  -28.1596  -46.6021 H         1 UNK         0.0851 
     84 H84        19.6427  -27.1277  -45.7810 H         1 UNK         0.2976 
     85 H85        19.6608  -26.6102  -41.4186 H         1 UNK         0.3116 
     86 H86        20.3372  -26.0485  -38.5851 H         1 UNK         0.0646 
     87 H87        19.5649  -23.7659  -39.1283 H         1 UNK         0.0847 
     88 H88        18.3383  -24.9371  -39.5885 H         1 UNK         0.0847 
     89 H89        19.3576  -24.1950  -40.8195 H         1 UNK         0.0847 
     90 H90        21.4252  -25.2645  -41.9203 H         1 UNK         0.3040 
     91 H91        23.4930  -23.5038  -41.0703 H         1 UNK         0.1015 
     92 H92        22.3212  -23.3048  -43.2486 H         1 UNK         0.0786 
     93 H93        23.0256  -24.8250  -43.7935 H         1 UNK         0.0786 
     94 H94        24.0562  -23.4345  -43.4900 H         1 UNK         0.0786 
     95 H95        23.6155  -26.9637  -41.9470 H         1 UNK         0.3172 
     96 H96        26.5691  -26.9915  -41.4030 H         1 UNK         0.0595 
     97 H97        26.7660  -28.5970  -43.2937 H         1 UNK         0.0839 
     98 H98        26.1452  -27.0514  -43.8527 H         1 UNK         0.0839 
     99 H99        25.0533  -28.4220  -43.6499 H         1 UNK         0.0839 
    100 H100       23.5077  -28.7566  -41.2992 H         1 UNK         0.2998 
    101 H101       22.7214  -30.4383  -40.1217 H         1 UNK         0.0822 
    102 H102       25.3030  -30.6952  -38.4989 H         1 UNK         0.0787 
    103 H103       24.0052  -29.5709  -38.1027 H         1 UNK         0.0787 
    104 H104       23.7046  -31.2943  -38.0765 H         1 UNK         0.0787 
    105 H105       23.9068  -32.8634  -39.3197 H         1 UNK         0.3055 
    106 H106       24.4470  -34.8837  -39.9958 H         1 UNK         0.1106 
    107 H107       26.2476  -33.6144  -42.1212 H         1 UNK         0.0828 
    108 H108       26.6997  -33.8722  -40.4366 H         1 UNK         0.0828 
    109 H109       26.3675  -35.2432  -41.4792 H         1 UNK         0.0828 
    110 H110       22.3035  -33.2441  -41.6253 H         1 UNK         0.2931 
    111 H111       21.8584  -34.8188  -43.9970 H         1 UNK         0.0412 
    112 H112       19.8333  -37.5573  -42.9780 H         1 UNK         0.3472 
    113 H113       20.4453  -36.6251  -44.3194 H         1 UNK         0.3472 
    114 H114       20.0297  -32.9937  -42.3531 H         1 UNK         0.0970 
    115 H115       19.4708  -33.8494  -43.7625 H         1 UNK         0.0970 
    116 H116       19.3851  -33.0489  -45.9088 H         1 UNK         0.0612 
    117 H117       20.3228  -31.7732  -46.6339 H         1 UNK         0.0612 
@<TRIPOS>BOND
     1    1    2 1    
     2    1   62 1    
     3    1   63 1    
     4    1   64 1    
     5    2    3 2    
     6    2    4 am   BACKBONE|DICT|INTERRES
     7    4    5 1    
     8    4   65 1    
     9    5    6 1    
    10    5   25 1    
    11    5   66 1    
    12    6    7 1    
    13    6   67 1    
    14    6   68 1    
    15    7    8 1    
    16    8    9 1    
    17    8   69 1    
    18    8   70 1    
    19    9   10 ar   
    20    9   14 ar   
    21   10   11 ar   
    22   10   71 1    
    23   11   12 ar   
    24   11   61 1    
    25   12   13 ar   
    26   12   72 1    
    27   13   14 ar   
    28   13   15 1    
    29   14   73 1    
    30   15   16 1    
    31   15   74 1    
    32   15   75 1    
    33   16   17 1    
    34   17   18 1    
    35   17   76 1    
    36   17   77 1    
    37   18   19 1    
    38   18   27 1    
    39   18   78 1    
    40   19   20 am   BACKBONE|DICT|INTERRES
    41   19   79 1    
    42   20   21 2    
    43   20   22 1    
    44   22   23 1    
    45   22   24 1    
    46   22   80 1    
    47   23   81 1    
    48   23   82 1    
    49   23   83 1    
    50   24   25 am   BACKBONE|DICT|INTERRES
    51   24   84 1    
    52   25   26 2    
    53   27   28 2    
    54   27   29 am   BACKBONE|DICT|INTERRES
    55   29   30 1    
    56   29   85 1    
    57   30   31 1    
    58   30   32 1    
    59   30   86 1    
    60   31   87 1    
    61   31   88 1    
    62   31   89 1    
    63   32   33 2    
    64   32   34 am   BACKBONE|DICT|INTERRES
    65   34   35 1    
    66   34   90 1    
    67   35   36 1    
    68   35   37 1    
    69   35   91 1    
    70   36   92 1    
    71   36   93 1    
    72   36   94 1    
    73   37   38 2    
    74   37   39 am   BACKBONE|DICT|INTERRES
    75   39   40 1    
    76   39   95 1    
    77   40   41 1    
    78   40   42 1    
    79   40   96 1    
    80   41   97 1    
    81   41   98 1    
    82   41   99 1    
    83   42   43 2    
    84   42   44 am   BACKBONE|DICT|INTERRES
    85   44   45 1    
    86   44  100 1    
    87   45   46 1    
    88   45   47 1    
    89   45  101 1    
    90   46  102 1    
    91   46  103 1    
    92   46  104 1    
    93   47   48 2    
    94   47   49 am   BACKBONE|DICT|INTERRES
    95   49   50 1    
    96   49  105 1    
    97   50   51 1    
    98   50   52 1    
    99   50  106 1    
   100   51  107 1    
   101   51  108 1    
   102   51  109 1    
   103   52   53 2    
   104   52   54 am   BACKBONE|DICT|INTERRES
   105   54   55 1    
   106   54  110 1    
   107   55   56 1    
   108   55   59 1    
   109   55  111 1    
   110   56   57 am   BACKBONE|DICT|INTERRES
   111   56   58 2    
   112   57  112 1    
   113   57  113 1    
   114   59   60 1    
   115   59  114 1    
   116   59  115 1    
   117   60   61 1    
   118   61  116 1    
   119   61  117 1    
@<TRIPOS>SUBSTRUCTURE
     1 UNK         1 GROUP             0       ****    0 ROOT    
