@<TRIPOS>MOLECULE
3R8
117   119    1
SMALL
USER_CHARGES


@<TRIPOS>ATOM
      1 CA         16.5978  -22.6745  -45.1941 C.3       0 UNK        -0.2013 
      2 C          16.7553  -24.1680  -44.9528 C.2       0 UNK         0.4866 
      3 O          17.6817  -24.7796  -45.4868 O.2       0 UNK        -0.5176 
      4 N          15.8589  -24.7605  -44.1526 N.am      1 UNK        -0.4884 
      5 CA         15.8596  -26.1806  -43.7868 C.3       1 UNK         0.0853 
      6 C6         14.4612  -26.6571  -43.3102 C.3       10 UNK        -0.0849 
      7 S7         13.4029  -27.0683  -44.7391 S.3       10 UNK        -0.2776 
      8 C8         13.5696  -28.8874  -44.8180 C.3       10 UNK         0.0316 
      9 C9         15.0253  -29.3381  -44.8782 C.ar      10 UNK        -0.0863 
     10 C10        15.6401  -29.8819  -43.7449 C.ar      10 UNK        -0.1009 
     11 C11        16.9876  -30.2502  -43.7759 C.ar      10 UNK        -0.0712 
     12 C12        17.7157  -30.0916  -44.9573 C.ar      10 UNK        -0.0894 
     13 C13        17.1127  -29.5630  -46.1010 C.ar      10 UNK        -0.0745 
     14 C14        15.7649  -29.1899  -46.0565 C.ar      10 UNK        -0.0972 
     15 C15        17.9135  -29.4011  -47.3846 C.3       10 UNK         0.0209 
     16 S16        18.9416  -27.8984  -47.3580 S.3       10 UNK        -0.2568 
     17 C17        20.5484  -28.5416  -46.7741 C.3       10 UNK        -0.0983 
     18 CA         21.3255  -27.4978  -45.9302 C.3       3 UNK         0.0876 
     19 N          20.6159  -27.0765  -44.7100 N.am      3 UNK        -0.4424 
     20 C          20.2836  -27.8022  -43.6299 C.2       2 UNK         0.4918 
     21 O          20.6131  -28.9736  -43.4453 O.2       2 UNK        -0.4875 
     22 CA         19.3885  -27.1058  -42.6033 C.3       2 UNK         0.0481 
     23 CB         20.1105  -25.9489  -41.8902 C.3       2 UNK        -0.1831 
     24 N          18.1945  -26.6390  -43.2959 N.am      2 UNK        -0.4498 
     25 C          16.9768  -26.4892  -42.7702 C.2       1 UNK         0.5027 
     26 O          16.7241  -26.5805  -41.5673 O.2       1 UNK        -0.4969 
     27 C          22.7843  -27.9449  -45.6906 C.2       3 UNK         0.5005 
     28 O          23.6971  -27.3973  -46.3102 O.2       3 UNK        -0.5279 
     29 N          22.9805  -28.9112  -44.7871 N.am      4 UNK        -0.4463 
     30 CA         24.2746  -29.4443  -44.3566 C.3       4 UNK         0.0283 
     31 CB         24.0825  -30.9137  -43.9466 C.3       4 UNK        -0.1875 
     32 C          24.9117  -28.6192  -43.2183 C.2       4 UNK         0.4949 
     33 O          26.0160  -28.9498  -42.7841 O.2       4 UNK        -0.5039 
     34 N          24.2137  -27.5678  -42.7583 N.am      5 UNK        -0.4663 
     35 CA         24.6280  -26.5789  -41.7572 C.3       5 UNK         0.0242 
     36 CB         25.7151  -25.6512  -42.3477 C.3       5 UNK        -0.1982 
     37 C          25.0137  -27.2341  -40.4182 C.2       5 UNK         0.5017 
     38 O          24.1494  -27.8337  -39.7767 O.2       5 UNK        -0.5012 
     39 N          26.2937  -27.1311  -40.0324 N.am      6 UNK        -0.4439 
     40 CA         26.8721  -27.6532  -38.7891 C.3       6 UNK         0.0297 
     41 CB         28.3436  -27.2170  -38.6998 C.3       6 UNK        -0.2006 
     42 C          26.7533  -29.1783  -38.6039 C.2       6 UNK         0.4892 
     43 O          26.8418  -29.6464  -37.4683 O.2       6 UNK        -0.5089 
     44 N          26.5337  -29.9230  -39.6976 N.am      7 UNK        -0.4243 
     45 CA         26.2489  -31.3598  -39.6734 C.3       7 UNK         0.0196 
     46 CB         26.5451  -31.9547  -41.0570 C.3       7 UNK        -0.2007 
     47 C          24.8126  -31.6988  -39.2233 C.2       7 UNK         0.5020 
     48 O          24.5245  -32.8804  -39.0340 O.2       7 UNK        -0.5147 
     49 N          23.9412  -30.6869  -39.0642 N.am      8 UNK        -0.4734 
     50 CA         22.5732  -30.7636  -38.5309 C.3       8 UNK         0.0238 
     51 CB         22.6074  -31.0768  -37.0197 C.3       8 UNK        -0.1912 
     52 C          21.6768  -31.7333  -39.3227 C.2       8 UNK         0.5038 
     53 O          21.1165  -32.6711  -38.7520 O.2       8 UNK        -0.5046 
     54 N          21.5899  -31.4932  -40.6369 N.am      9 UNK        -0.4200 
     55 CA         20.8991  -32.3300  -41.6333 C.3       9 UNK         0.0839 
     56 C          21.6567  -33.6369  -42.0232 C.2       9 UNK         0.5513 
     57 N          22.8266  -33.9305  -41.4664 N.am      9 UNK        -0.7519 
     58 O          21.1928  -34.3879  -42.8764 O.2       9 UNK        -0.4960 
     59 C59        19.3977  -32.5805  -41.2848 C.3       10 UNK        -0.0876 
     60 S60        18.3002  -32.4668  -42.7368 S.3       10 UNK        -0.2414 
     61 C61        17.6760  -30.7720  -42.5243 C.3       10 UNK         0.0169 
     62 H62        16.4718  -22.4787  -46.2586 H         1 UNK         0.0903 
     63 H63        15.7352  -22.2642  -44.6694 H         1 UNK         0.0903 
     64 H64        17.4866  -22.1442  -44.8530 H         1 UNK         0.0903 
     65 H65        15.1282  -24.2033  -43.7327 H         1 UNK         0.3096 
     66 H66        16.1154  -26.7494  -44.6836 H         1 UNK         0.1121 
     67 H67        13.9715  -25.8925  -42.7050 H         1 UNK         0.0849 
     68 H68        14.5241  -27.5364  -42.6672 H         1 UNK         0.0849 
     69 H69        13.0660  -29.3290  -43.9565 H         1 UNK         0.0865 
     70 H70        13.0393  -29.2545  -45.6979 H         1 UNK         0.0865 
     71 H71        15.0759  -29.9943  -42.8290 H         1 UNK         0.1346 
     72 H72        18.7573  -30.3784  -44.9763 H         1 UNK         0.1412 
     73 H73        15.2932  -28.7671  -46.9334 H         1 UNK         0.1426 
     74 H74        18.5344  -30.2815  -47.5567 H         1 UNK         0.0716 
     75 H75        17.2378  -29.3403  -48.2390 H         1 UNK         0.0716 
     76 H76        21.1226  -28.8220  -47.6594 H         1 UNK         0.0695 
     77 H77        20.4027  -29.4607  -46.2069 H         1 UNK         0.0695 
     78 H78        21.3984  -26.5933  -46.5373 H         1 UNK         0.0983 
     79 H79        20.3118  -26.1132  -44.7311 H         1 UNK         0.3095 
     80 H80        19.0993  -27.8466  -41.8555 H         1 UNK         0.0454 
     81 H81        19.4823  -25.5154  -41.1119 H         1 UNK         0.0851 
     82 H82        21.0245  -26.2981  -41.4080 H         1 UNK         0.0851 
     83 H83        20.3845  -25.1481  -42.5774 H         1 UNK         0.0851 
     84 H84        18.2839  -26.4969  -44.2966 H         1 UNK         0.2976 
     85 H85        22.1551  -29.2430  -44.2886 H         1 UNK         0.3116 
     86 H86        24.9629  -29.4173  -45.2039 H         1 UNK         0.0646 
     87 H87        23.4978  -31.4634  -44.6845 H         1 UNK         0.0847 
     88 H88        25.0449  -31.4192  -43.8734 H         1 UNK         0.0847 
     89 H89        23.5799  -31.0078  -42.9836 H         1 UNK         0.0847 
     90 H90        23.3028  -27.4187  -43.1655 H         1 UNK         0.3040 
     91 H91        23.7524  -25.9634  -41.5440 H         1 UNK         0.1015 
     92 H92        26.6170  -26.1951  -42.6315 H         1 UNK         0.0786 
     93 H93        26.0001  -24.8713  -41.6398 H         1 UNK         0.0786 
     94 H94        25.3481  -25.1456  -43.2411 H         1 UNK         0.0786 
     95 H95        26.9274  -26.6474  -40.6526 H         1 UNK         0.3172 
     96 H96        26.3291  -27.1901  -37.9627 H         1 UNK         0.0595 
     97 H97        28.9361  -27.6250  -39.5198 H         1 UNK         0.0839 
     98 H98        28.7976  -27.5604  -37.7689 H         1 UNK         0.0839 
     99 H99        28.4401  -26.1312  -38.7210 H         1 UNK         0.0839 
    100 H100       26.4746  -29.4611  -40.5979 H         1 UNK         0.2998 
    101 H101       26.9241  -31.8318  -38.9563 H         1 UNK         0.0822 
    102 H102       26.3868  -33.0341  -41.0662 H         1 UNK         0.0787 
    103 H103       25.8968  -31.5227  -41.8148 H         1 UNK         0.0787 
    104 H104       27.5780  -31.7752  -41.3558 H         1 UNK         0.0787 
    105 H105       24.2549  -29.7467  -39.2906 H         1 UNK         0.3055 
    106 H106       22.1352  -29.7708  -38.6499 H         1 UNK         0.1106 
    107 H107       21.6044  -31.0495  -36.5920 H         1 UNK         0.0828 
    108 H108       23.0193  -32.0666  -36.8194 H         1 UNK         0.0828 
    109 H109       23.2103  -30.3479  -36.4781 H         1 UNK         0.0828 
    110 H110       22.0988  -30.7059  -41.0109 H         1 UNK         0.2931 
    111 H111       20.9343  -31.7159  -42.5344 H         1 UNK         0.0412 
    112 H112       23.2997  -34.7747  -41.7469 H         1 UNK         0.3472 
    113 H113       23.2088  -33.3692  -40.7171 H         1 UNK         0.3472 
    114 H114       19.2603  -33.5548  -40.8119 H         1 UNK         0.0970 
    115 H115       19.0475  -31.8595  -40.5448 H         1 UNK         0.0970 
    116 H116       17.0009  -30.7471  -41.6675 H         1 UNK         0.0612 
    117 H117       18.5084  -30.1128  -42.2811 H         1 UNK         0.0612 
@<TRIPOS>BOND
     1    1    2 1    
     2    1   62 1    
     3    1   63 1    
     4    1   64 1    
     5    2    3 2    
     6    2    4 am   BACKBONE|DICT|INTERRES
     7    4    5 1    
     8    4   65 1    
     9    5    6 1    
    10    5   25 1    
    11    5   66 1    
    12    6    7 1    
    13    6   67 1    
    14    6   68 1    
    15    7    8 1    
    16    8    9 1    
    17    8   69 1    
    18    8   70 1    
    19    9   10 ar   
    20    9   14 ar   
    21   10   11 ar   
    22   10   71 1    
    23   11   12 ar   
    24   11   61 1    
    25   12   13 ar   
    26   12   72 1    
    27   13   14 ar   
    28   13   15 1    
    29   14   73 1    
    30   15   16 1    
    31   15   74 1    
    32   15   75 1    
    33   16   17 1    
    34   17   18 1    
    35   17   76 1    
    36   17   77 1    
    37   18   19 1    
    38   18   27 1    
    39   18   78 1    
    40   19   20 am   BACKBONE|DICT|INTERRES
    41   19   79 1    
    42   20   21 2    
    43   20   22 1    
    44   22   23 1    
    45   22   24 1    
    46   22   80 1    
    47   23   81 1    
    48   23   82 1    
    49   23   83 1    
    50   24   25 am   BACKBONE|DICT|INTERRES
    51   24   84 1    
    52   25   26 2    
    53   27   28 2    
    54   27   29 am   BACKBONE|DICT|INTERRES
    55   29   30 1    
    56   29   85 1    
    57   30   31 1    
    58   30   32 1    
    59   30   86 1    
    60   31   87 1    
    61   31   88 1    
    62   31   89 1    
    63   32   33 2    
    64   32   34 am   BACKBONE|DICT|INTERRES
    65   34   35 1    
    66   34   90 1    
    67   35   36 1    
    68   35   37 1    
    69   35   91 1    
    70   36   92 1    
    71   36   93 1    
    72   36   94 1    
    73   37   38 2    
    74   37   39 am   BACKBONE|DICT|INTERRES
    75   39   40 1    
    76   39   95 1    
    77   40   41 1    
    78   40   42 1    
    79   40   96 1    
    80   41   97 1    
    81   41   98 1    
    82   41   99 1    
    83   42   43 2    
    84   42   44 am   BACKBONE|DICT|INTERRES
    85   44   45 1    
    86   44  100 1    
    87   45   46 1    
    88   45   47 1    
    89   45  101 1    
    90   46  102 1    
    91   46  103 1    
    92   46  104 1    
    93   47   48 2    
    94   47   49 am   BACKBONE|DICT|INTERRES
    95   49   50 1    
    96   49  105 1    
    97   50   51 1    
    98   50   52 1    
    99   50  106 1    
   100   51  107 1    
   101   51  108 1    
   102   51  109 1    
   103   52   53 2    
   104   52   54 am   BACKBONE|DICT|INTERRES
   105   54   55 1    
   106   54  110 1    
   107   55   56 1    
   108   55   59 1    
   109   55  111 1    
   110   56   57 am   BACKBONE|DICT|INTERRES
   111   56   58 2    
   112   57  112 1    
   113   57  113 1    
   114   59   60 1    
   115   59  114 1    
   116   59  115 1    
   117   60   61 1    
   118   61  116 1    
   119   61  117 1    
@<TRIPOS>SUBSTRUCTURE
     1 UNK         1 GROUP             0       ****    0 ROOT    
