@<TRIPOS>MOLECULE
3R8
117   119    1
SMALL
USER_CHARGES


@<TRIPOS>ATOM
      1 CA         17.1305  -25.3507  -42.3770 C.3       0 UNK        -0.2013 
      2 C          17.7650  -25.4198  -43.7577 C.2       0 UNK         0.4866 
      3 O          18.4596  -24.4850  -44.1548 O.2       0 UNK        -0.5176 
      4 N          17.5359  -26.5170  -44.4931 N.am      1 UNK        -0.4884 
      5 CA         18.1094  -26.7633  -45.8233 C.3       1 UNK         0.0853 
      6 C6         17.4355  -27.9496  -46.5558 C.3       10 UNK        -0.0849 
      7 S7         15.6110  -27.8670  -46.6888 S.3       10 UNK        -0.2776 
      8 C8         14.9268  -28.4251  -45.0763 C.3       10 UNK         0.0316 
      9 C9         15.7771  -29.4267  -44.2960 C.ar      10 UNK        -0.0863 
     10 C10        16.2834  -30.5760  -44.9126 C.ar      10 UNK        -0.1009 
     11 C11        17.1155  -31.4511  -44.2099 C.ar      10 UNK        -0.0712 
     12 C12        17.3718  -31.2193  -42.8568 C.ar      10 UNK        -0.0894 
     13 C13        16.8243  -30.1087  -42.2083 C.ar      10 UNK        -0.0745 
     14 C14        16.0356  -29.2116  -42.9361 C.ar      10 UNK        -0.0972 
     15 C15        17.0393  -29.9189  -40.7114 C.3       10 UNK         0.0209 
     16 S16        18.8016  -29.8714  -40.2489 S.3       10 UNK        -0.2568 
     17 C17        19.1342  -28.0841  -40.1401 C.3       10 UNK        -0.0983 
     18 CA         20.5597  -27.7503  -40.6406 C.3       3 UNK         0.0876 
     19 N          20.6374  -27.7229  -42.0969 N.am      3 UNK        -0.4424 
     20 C          21.3349  -28.5645  -42.8643 C.2       2 UNK         0.4918 
     21 O          21.9285  -29.5534  -42.4414 O.2       2 UNK        -0.4875 
     22 CA         21.3429  -28.2394  -44.3648 C.3       2 UNK         0.0481 
     23 CB         21.8796  -29.3914  -45.2338 C.3       2 UNK        -0.1831 
     24 N          19.9832  -27.8905  -44.7616 N.am      2 UNK        -0.4498 
     25 C          19.6250  -27.0271  -45.7187 C.2       1 UNK         0.5027 
     26 O          20.4126  -26.4503  -46.4694 O.2       1 UNK        -0.4969 
     27 C          21.0090  -26.3602  -40.1672 C.2       3 UNK         0.5005 
     28 O          20.7766  -25.3749  -40.8748 O.2       3 UNK        -0.5279 
     29 N          21.6829  -26.3066  -39.0097 N.am      4 UNK        -0.4463 
     30 CA         22.3520  -25.1496  -38.3897 C.3       4 UNK         0.0283 
     31 CB         21.3821  -23.9798  -38.1300 C.3       4 UNK        -0.1875 
     32 C          23.6055  -24.6881  -39.1573 C.2       4 UNK         0.4949 
     33 O          24.6589  -24.5137  -38.5454 O.2       4 UNK        -0.5039 
     34 N          23.4885  -24.5501  -40.4839 N.am      5 UNK        -0.4663 
     35 CA         24.5975  -24.3300  -41.4187 C.3       5 UNK         0.0242 
     36 CB         24.0260  -23.8039  -42.7455 C.3       5 UNK        -0.1982 
     37 C          25.4389  -25.5995  -41.6633 C.2       5 UNK         0.5017 
     38 O          26.5630  -25.4951  -42.1548 O.2       5 UNK        -0.5012 
     39 N          24.8820  -26.7649  -41.3193 N.am      6 UNK        -0.4439 
     40 CA         25.4869  -28.0902  -41.3692 C.3       6 UNK         0.0297 
     41 CB         25.4025  -28.6580  -42.7988 C.3       6 UNK        -0.2006 
     42 C          24.7537  -28.9721  -40.3466 C.2       6 UNK         0.4892 
     43 O          23.7777  -28.5185  -39.7409 O.2       6 UNK        -0.5089 
     44 N          25.2468  -30.2008  -40.1481 N.am      7 UNK        -0.4243 
     45 CA         24.6713  -31.1678  -39.2088 C.3       7 UNK         0.0196 
     46 CB         25.6911  -32.2844  -38.9281 C.3       7 UNK        -0.2007 
     47 C          23.3372  -31.7589  -39.6966 C.2       7 UNK         0.5020 
     48 O          22.3980  -31.8595  -38.9070 O.2       7 UNK        -0.5147 
     49 N          23.2871  -32.1443  -40.9763 N.am      8 UNK        -0.4734 
     50 CA         22.1399  -32.7306  -41.6688 C.3       8 UNK         0.0238 
     51 CB         21.8336  -34.1406  -41.1176 C.3       8 UNK        -0.1912 
     52 C          22.4575  -32.7968  -43.1702 C.2       8 UNK         0.5038 
     53 O          23.6106  -32.5852  -43.5603 O.2       8 UNK        -0.5046 
     54 N          21.4387  -33.1195  -43.9777 N.am      9 UNK        -0.4200 
     55 CA         21.5598  -33.3912  -45.4194 C.3       9 UNK         0.0839 
     56 C          22.4423  -34.6347  -45.7169 C.2       9 UNK         0.5513 
     57 N          23.2225  -34.6002  -46.7884 N.am      9 UNK        -0.7519 
     58 O          22.3880  -35.6423  -45.0144 O.2       9 UNK        -0.4960 
     59 C59        20.1722  -33.5472  -46.0975 C.3       10 UNK        -0.0876 
     60 S60        19.1515  -32.0439  -45.9464 S.3       10 UNK        -0.2414 
     61 C61        17.7674  -32.6254  -44.9190 C.3       10 UNK         0.0169 
     62 H62        16.6234  -26.2756  -42.1091 H         1 UNK         0.0903 
     63 H63        17.8945  -25.1534  -41.6248 H         1 UNK         0.0903 
     64 H64        16.4022  -24.5410  -42.3405 H         1 UNK         0.0903 
     65 H65        16.9434  -27.2529  -44.1366 H         1 UNK         0.3096 
     66 H66        17.9670  -25.8623  -46.4247 H         1 UNK         0.1121 
     67 H67        17.7410  -28.9008  -46.1254 H         1 UNK         0.0849 
     68 H68        17.8114  -27.9867  -47.5802 H         1 UNK         0.0849 
     69 H69        14.7350  -27.5375  -44.4715 H         1 UNK         0.0865 
     70 H70        13.9485  -28.8725  -45.2569 H         1 UNK         0.0865 
     71 H71        16.0806  -30.7576  -45.9596 H         1 UNK         0.1346 
     72 H72        17.9974  -31.9050  -42.3019 H         1 UNK         0.1412 
     73 H73        15.6006  -28.3592  -42.4332 H         1 UNK         0.1426 
     74 H74        16.5736  -30.7579  -40.1926 H         1 UNK         0.0716 
     75 H75        16.5345  -29.0232  -40.3464 H         1 UNK         0.0716 
     76 H76        19.0082  -27.8010  -39.0930 H         1 UNK         0.0695 
     77 H77        18.3846  -27.5260  -40.7028 H         1 UNK         0.0695 
     78 H78        21.2596  -28.4865  -40.2399 H         1 UNK         0.0983 
     79 H79        20.2674  -26.8792  -42.5135 H         1 UNK         0.3095 
     80 H80        21.9913  -27.3708  -44.4972 H         1 UNK         0.0454 
     81 H81        21.2967  -30.2988  -45.0861 H         1 UNK         0.0851 
     82 H82        22.9136  -29.6274  -44.9804 H         1 UNK         0.0851 
     83 H83        21.8526  -29.1415  -46.2942 H         1 UNK         0.0851 
     84 H84        19.2522  -28.3103  -44.2028 H         1 UNK         0.2976 
     85 H85        21.8711  -27.1884  -38.5491 H         1 UNK         0.3116 
     86 H86        22.6963  -25.5034  -37.4164 H         1 UNK         0.0646 
     87 H87        21.0234  -23.5257  -39.0539 H         1 UNK         0.0847 
     88 H88        21.8729  -23.1924  -37.5568 H         1 UNK         0.0847 
     89 H89        20.5138  -24.3043  -37.5568 H         1 UNK         0.0847 
     90 H90        22.5638  -24.6974  -40.8821 H         1 UNK         0.3040 
     91 H91        25.2625  -23.5714  -40.9998 H         1 UNK         0.1015 
     92 H92        23.3458  -24.5224  -43.2053 H         1 UNK         0.0786 
     93 H93        24.8232  -23.6032  -43.4628 H         1 UNK         0.0786 
     94 H94        23.4806  -22.8712  -42.6001 H         1 UNK         0.0786 
     95 H95        23.9886  -26.7536  -40.8432 H         1 UNK         0.3172 
     96 H96        26.5325  -28.0174  -41.0632 H         1 UNK         0.0595 
     97 H97        25.8482  -29.6511  -42.8622 H         1 UNK         0.0839 
     98 H98        25.9328  -28.0238  -43.5092 H         1 UNK         0.0839 
     99 H99        24.3709  -28.7430  -43.1369 H         1 UNK         0.0839 
    100 H100       26.0570  -30.4966  -40.6733 H         1 UNK         0.2998 
    101 H101       24.4755  -30.6498  -38.2669 H         1 UNK         0.0822 
    102 H102       25.2887  -33.0091  -38.2188 H         1 UNK         0.0787 
    103 H103       25.9571  -32.8297  -39.8346 H         1 UNK         0.0787 
    104 H104       26.6081  -31.8844  -38.4948 H         1 UNK         0.0787 
    105 H105       24.0839  -31.9865  -41.5816 H         1 UNK         0.3055 
    106 H106       21.2773  -32.0754  -41.5258 H         1 UNK         0.1106 
    107 H107       20.9976  -34.6017  -41.6445 H         1 UNK         0.0828 
    108 H108       22.6913  -34.8058  -41.2242 H         1 UNK         0.0828 
    109 H109       21.5616  -34.1134  -40.0628 H         1 UNK         0.0828 
    110 H110       20.5297  -33.2851  -43.5755 H         1 UNK         0.2931 
    111 H111       22.0530  -32.5234  -45.8623 H         1 UNK         0.0412 
    112 H112       23.7900  -35.4042  -47.0081 H         1 UNK         0.3472 
    113 H113       23.2658  -33.7817  -47.3760 H         1 UNK         0.3472 
    114 H114       19.6378  -34.4094  -45.6940 H         1 UNK         0.0970 
    115 H115       20.2939  -33.7461  -47.1641 H         1 UNK         0.0970 
    116 H116       18.1243  -33.3539  -44.1896 H         1 UNK         0.0612 
    117 H117       17.0382  -33.1400  -45.5464 H         1 UNK         0.0612 
@<TRIPOS>BOND
     1    1    2 1    
     2    1   62 1    
     3    1   63 1    
     4    1   64 1    
     5    2    3 2    
     6    2    4 am   BACKBONE|DICT|INTERRES
     7    4    5 1    
     8    4   65 1    
     9    5    6 1    
    10    5   25 1    
    11    5   66 1    
    12    6    7 1    
    13    6   67 1    
    14    6   68 1    
    15    7    8 1    
    16    8    9 1    
    17    8   69 1    
    18    8   70 1    
    19    9   10 ar   
    20    9   14 ar   
    21   10   11 ar   
    22   10   71 1    
    23   11   12 ar   
    24   11   61 1    
    25   12   13 ar   
    26   12   72 1    
    27   13   14 ar   
    28   13   15 1    
    29   14   73 1    
    30   15   16 1    
    31   15   74 1    
    32   15   75 1    
    33   16   17 1    
    34   17   18 1    
    35   17   76 1    
    36   17   77 1    
    37   18   19 1    
    38   18   27 1    
    39   18   78 1    
    40   19   20 am   BACKBONE|DICT|INTERRES
    41   19   79 1    
    42   20   21 2    
    43   20   22 1    
    44   22   23 1    
    45   22   24 1    
    46   22   80 1    
    47   23   81 1    
    48   23   82 1    
    49   23   83 1    
    50   24   25 am   BACKBONE|DICT|INTERRES
    51   24   84 1    
    52   25   26 2    
    53   27   28 2    
    54   27   29 am   BACKBONE|DICT|INTERRES
    55   29   30 1    
    56   29   85 1    
    57   30   31 1    
    58   30   32 1    
    59   30   86 1    
    60   31   87 1    
    61   31   88 1    
    62   31   89 1    
    63   32   33 2    
    64   32   34 am   BACKBONE|DICT|INTERRES
    65   34   35 1    
    66   34   90 1    
    67   35   36 1    
    68   35   37 1    
    69   35   91 1    
    70   36   92 1    
    71   36   93 1    
    72   36   94 1    
    73   37   38 2    
    74   37   39 am   BACKBONE|DICT|INTERRES
    75   39   40 1    
    76   39   95 1    
    77   40   41 1    
    78   40   42 1    
    79   40   96 1    
    80   41   97 1    
    81   41   98 1    
    82   41   99 1    
    83   42   43 2    
    84   42   44 am   BACKBONE|DICT|INTERRES
    85   44   45 1    
    86   44  100 1    
    87   45   46 1    
    88   45   47 1    
    89   45  101 1    
    90   46  102 1    
    91   46  103 1    
    92   46  104 1    
    93   47   48 2    
    94   47   49 am   BACKBONE|DICT|INTERRES
    95   49   50 1    
    96   49  105 1    
    97   50   51 1    
    98   50   52 1    
    99   50  106 1    
   100   51  107 1    
   101   51  108 1    
   102   51  109 1    
   103   52   53 2    
   104   52   54 am   BACKBONE|DICT|INTERRES
   105   54   55 1    
   106   54  110 1    
   107   55   56 1    
   108   55   59 1    
   109   55  111 1    
   110   56   57 am   BACKBONE|DICT|INTERRES
   111   56   58 2    
   112   57  112 1    
   113   57  113 1    
   114   59   60 1    
   115   59  114 1    
   116   59  115 1    
   117   60   61 1    
   118   61  116 1    
   119   61  117 1    
@<TRIPOS>SUBSTRUCTURE
     1 UNK         1 GROUP             0       ****    0 ROOT    
