@<TRIPOS>MOLECULE
3R8
117   119    1
SMALL
USER_CHARGES


@<TRIPOS>ATOM
      1 CA         15.2203  -27.4978  -41.2427 C.3       0 UNK        -0.2013 
      2 C          15.3649  -26.8175  -42.5953 C.2       0 UNK         0.4866 
      3 O          14.7526  -25.7739  -42.8263 O.2       0 UNK        -0.5176 
      4 N          16.1599  -27.4089  -43.4942 N.am      1 UNK        -0.4884 
      5 CA         16.4456  -26.8872  -44.8362 C.3       1 UNK         0.0853 
      6 C6         16.9506  -28.0018  -45.7946 C.3       10 UNK        -0.0849 
      7 S7         15.8629  -29.4742  -45.8085 S.3       10 UNK        -0.2776 
      8 C8         17.0300  -30.8609  -45.5755 C.3       10 UNK         0.0316 
      9 C9         17.9303  -30.6905  -44.3574 C.ar      10 UNK        -0.0863 
     10 C10        17.3906  -30.6769  -43.0675 C.ar      10 UNK        -0.1009 
     11 C11        18.2187  -30.4909  -41.9560 C.ar      10 UNK        -0.0712 
     12 C12        19.5921  -30.3038  -42.1461 C.ar      10 UNK        -0.0894 
     13 C13        20.1505  -30.3510  -43.4257 C.ar      10 UNK        -0.0745 
     14 C14        19.3119  -30.5521  -44.5265 C.ar      10 UNK        -0.0972 
     15 C15        21.6604  -30.2109  -43.6025 C.3       10 UNK         0.0209 
     16 S16        22.1357  -29.0222  -44.9012 S.3       10 UNK        -0.2568 
     17 C17        21.3192  -27.5121  -44.2934 C.3       10 UNK        -0.0983 
     18 CA         21.6815  -26.2557  -45.1321 C.3       3 UNK         0.0876 
     19 N          20.5314  -25.3595  -45.1925 N.am      3 UNK        -0.4424 
     20 C          20.0932  -24.6952  -46.2634 C.2       2 UNK         0.4918 
     21 O          20.6831  -24.6615  -47.3449 O.2       2 UNK        -0.4875 
     22 CA         18.7129  -24.0214  -46.0992 C.3       2 UNK         0.0481 
     23 CB         18.3404  -23.1366  -47.3030 C.3       2 UNK        -0.1831 
     24 N          17.6580  -25.0251  -45.8959 N.am      2 UNK        -0.4498 
     25 C          17.4627  -25.7258  -44.7681 C.2       1 UNK         0.5027 
     26 O          18.0996  -25.5164  -43.7300 O.2       1 UNK        -0.4969 
     27 C          22.9271  -25.5355  -44.5779 C.2       3 UNK         0.5005 
     28 O          22.8830  -24.3428  -44.2599 O.2       3 UNK        -0.5279 
     29 N          24.0181  -26.3003  -44.4560 N.am      4 UNK        -0.4463 
     30 CA         25.2509  -25.9247  -43.7642 C.3       4 UNK         0.0283 
     31 CB         26.3654  -26.8883  -44.2126 C.3       4 UNK        -0.1875 
     32 C          25.0764  -25.9679  -42.2331 C.2       4 UNK         0.4949 
     33 O          24.0390  -26.4085  -41.7328 O.2       4 UNK        -0.5039 
     34 N          26.1217  -25.5425  -41.5091 N.am      5 UNK        -0.4663 
     35 CA         26.1933  -25.5830  -40.0416 C.3       5 UNK         0.0242 
     36 CB         27.4538  -24.8374  -39.5743 C.3       5 UNK        -0.1982 
     37 C          26.1609  -27.0086  -39.4555 C.2       5 UNK         0.5017 
     38 O          25.7139  -27.1849  -38.3214 O.2       5 UNK        -0.5012 
     39 N          26.6145  -27.9964  -40.2396 N.am      6 UNK        -0.4439 
     40 CA         26.4626  -29.4221  -39.9619 C.3       6 UNK         0.0297 
     41 CB         27.4868  -30.2139  -40.7939 C.3       6 UNK        -0.2006 
     42 C          25.0210  -29.8462  -40.2839 C.2       6 UNK         0.4892 
     43 O          24.6934  -30.0549  -41.4545 O.2       6 UNK        -0.5089 
     44 N          24.1804  -29.9375  -39.2459 N.am      7 UNK        -0.4243 
     45 CA         22.7564  -30.2718  -39.3298 C.3       7 UNK         0.0196 
     46 CB         22.0510  -29.7829  -38.0515 C.3       7 UNK        -0.2007 
     47 C          22.5184  -31.7707  -39.5996 C.2       7 UNK         0.5020 
     48 O          21.9351  -32.4711  -38.7705 O.2       7 UNK        -0.5147 
     49 N          22.9774  -32.2453  -40.7618 N.am      8 UNK        -0.4734 
     50 CA         22.8099  -33.6138  -41.2556 C.3       8 UNK         0.0238 
     51 CB         23.9297  -33.9075  -42.2718 C.3       8 UNK        -0.1912 
     52 C          21.4009  -33.8313  -41.8429 C.2       8 UNK         0.5038 
     53 O          21.2681  -34.0944  -43.0398 O.2       8 UNK        -0.5046 
     54 N          20.3774  -33.6759  -40.9947 N.am      9 UNK        -0.4200 
     55 CA         18.9547  -33.7898  -41.3455 C.3       9 UNK         0.0839 
     56 C          18.5535  -35.2159  -41.8093 C.2       9 UNK         0.5513 
     57 N          17.6207  -35.3238  -42.7456 N.am      9 UNK        -0.7519 
     58 O          19.0424  -36.2203  -41.2952 O.2       9 UNK        -0.4960 
     59 C59        18.0237  -33.3109  -40.1959 C.3       10 UNK        -0.0876 
     60 S60        18.4842  -31.7017  -39.4600 S.3       10 UNK        -0.2414 
     61 C61        17.6352  -30.5113  -40.5490 C.3       10 UNK         0.0169 
     62 H62        15.5704  -28.5284  -41.2716 H         1 UNK         0.0903 
     63 H63        15.7936  -26.9600  -40.4882 H         1 UNK         0.0903 
     64 H64        14.1750  -27.5086  -40.9349 H         1 UNK         0.0903 
     65 H65        16.6549  -28.2552  -43.2503 H         1 UNK         0.3096 
     66 H66        15.5163  -26.4831  -45.2445 H         1 UNK         0.1121 
     67 H67        17.0041  -27.6282  -46.8185 H         1 UNK         0.0849 
     68 H68        17.9694  -28.2928  -45.5366 H         1 UNK         0.0849 
     69 H69        16.4623  -31.7865  -45.4720 H         1 UNK         0.0865 
     70 H70        17.6249  -30.9711  -46.4836 H         1 UNK         0.0865 
     71 H71        16.3255  -30.8113  -42.9343 H         1 UNK         0.1346 
     72 H72        20.2293  -30.1584  -41.2860 H         1 UNK         0.1412 
     73 H73        19.7390  -30.5856  -45.5195 H         1 UNK         0.1426 
     74 H74        22.0762  -31.1888  -43.8488 H         1 UNK         0.0716 
     75 H75        22.1321  -29.9016  -42.6689 H         1 UNK         0.0716 
     76 H76        21.5370  -27.3737  -43.2316 H         1 UNK         0.0695 
     77 H77        20.2457  -27.7028  -44.3471 H         1 UNK         0.0695 
     78 H78        21.9211  -26.5664  -46.1518 H         1 UNK         0.0983 
     79 H79        19.9524  -25.3240  -44.3596 H         1 UNK         0.3095 
     80 H80        18.7624  -23.3781  -45.2181 H         1 UNK         0.0454 
     81 H81        18.2556  -23.7163  -48.2230 H         1 UNK         0.0851 
     82 H82        19.0968  -22.3688  -47.4707 H         1 UNK         0.0851 
     83 H83        17.3922  -22.6240  -47.1405 H         1 UNK         0.0851 
     84 H84        17.1155  -25.2647  -46.7138 H         1 UNK         0.2976 
     85 H85        23.9199  -27.2804  -44.6868 H         1 UNK         0.3116 
     86 H86        25.5211  -24.9067  -44.0524 H         1 UNK         0.0646 
     87 H87        26.1617  -27.9139  -43.9002 H         1 UNK         0.0847 
     88 H88        27.3322  -26.6055  -43.7949 H         1 UNK         0.0847 
     89 H89        26.4778  -26.8865  -45.2970 H         1 UNK         0.0847 
     90 H90        26.9330  -25.1812  -41.9911 H         1 UNK         0.3040 
     91 H91        25.3187  -25.0573  -39.6517 H         1 UNK         0.1015 
     92 H92        27.4464  -23.7982  -39.9039 H         1 UNK         0.0786 
     93 H93        28.3641  -25.3048  -39.9521 H         1 UNK         0.0786 
     94 H94        27.5204  -24.8284  -38.4852 H         1 UNK         0.0786 
     95 H95        26.9322  -27.7488  -41.1646 H         1 UNK         0.3172 
     96 H96        26.6666  -29.6101  -38.9054 H         1 UNK         0.0595 
     97 H97        27.3609  -30.0470  -41.8647 H         1 UNK         0.0839 
     98 H98        27.3837  -31.2855  -40.6184 H         1 UNK         0.0839 
     99 H99        28.5084  -29.9395  -40.5304 H         1 UNK         0.0839 
    100 H100       24.5382  -29.7332  -38.3232 H         1 UNK         0.2998 
    101 H101       22.3280  -29.7204  -40.1690 H         1 UNK         0.0822 
    102 H102       22.1716  -28.7076  -37.9185 H         1 UNK         0.0787 
    103 H103       20.9794  -29.9840  -38.0966 H         1 UNK         0.0787 
    104 H104       22.4389  -30.2781  -37.1604 H         1 UNK         0.0787 
    105 H105       23.4887  -31.5986  -41.3563 H         1 UNK         0.3055 
    106 H106       22.9241  -34.3104  -40.4217 H         1 UNK         0.1106 
    107 H107       23.8572  -34.9282  -42.6496 H         1 UNK         0.0828 
    108 H108       23.8826  -33.2364  -43.1305 H         1 UNK         0.0828 
    109 H109       24.9151  -33.8006  -41.8178 H         1 UNK         0.0828 
    110 H110       20.5852  -33.4169  -40.0371 H         1 UNK         0.2931 
    111 H111       18.8029  -33.1281  -42.1986 H         1 UNK         0.0412 
    112 H112       17.2099  -34.5054  -43.1674 H         1 UNK         0.3472 
    113 H113       17.3329  -36.2415  -43.0485 H         1 UNK         0.3472 
    114 H114       16.9908  -33.2542  -40.5444 H         1 UNK         0.0970 
    115 H115       18.0244  -34.0431  -39.3861 H         1 UNK         0.0970 
    116 H116       16.5700  -30.7461  -40.5668 H         1 UNK         0.0612 
    117 H117       17.7282  -29.5143  -40.1167 H         1 UNK         0.0612 
@<TRIPOS>BOND
     1    1    2 1    
     2    1   62 1    
     3    1   63 1    
     4    1   64 1    
     5    2    3 2    
     6    2    4 am   BACKBONE|DICT|INTERRES
     7    4    5 1    
     8    4   65 1    
     9    5    6 1    
    10    5   25 1    
    11    5   66 1    
    12    6    7 1    
    13    6   67 1    
    14    6   68 1    
    15    7    8 1    
    16    8    9 1    
    17    8   69 1    
    18    8   70 1    
    19    9   10 ar   
    20    9   14 ar   
    21   10   11 ar   
    22   10   71 1    
    23   11   12 ar   
    24   11   61 1    
    25   12   13 ar   
    26   12   72 1    
    27   13   14 ar   
    28   13   15 1    
    29   14   73 1    
    30   15   16 1    
    31   15   74 1    
    32   15   75 1    
    33   16   17 1    
    34   17   18 1    
    35   17   76 1    
    36   17   77 1    
    37   18   19 1    
    38   18   27 1    
    39   18   78 1    
    40   19   20 am   BACKBONE|DICT|INTERRES
    41   19   79 1    
    42   20   21 2    
    43   20   22 1    
    44   22   23 1    
    45   22   24 1    
    46   22   80 1    
    47   23   81 1    
    48   23   82 1    
    49   23   83 1    
    50   24   25 am   BACKBONE|DICT|INTERRES
    51   24   84 1    
    52   25   26 2    
    53   27   28 2    
    54   27   29 am   BACKBONE|DICT|INTERRES
    55   29   30 1    
    56   29   85 1    
    57   30   31 1    
    58   30   32 1    
    59   30   86 1    
    60   31   87 1    
    61   31   88 1    
    62   31   89 1    
    63   32   33 2    
    64   32   34 am   BACKBONE|DICT|INTERRES
    65   34   35 1    
    66   34   90 1    
    67   35   36 1    
    68   35   37 1    
    69   35   91 1    
    70   36   92 1    
    71   36   93 1    
    72   36   94 1    
    73   37   38 2    
    74   37   39 am   BACKBONE|DICT|INTERRES
    75   39   40 1    
    76   39   95 1    
    77   40   41 1    
    78   40   42 1    
    79   40   96 1    
    80   41   97 1    
    81   41   98 1    
    82   41   99 1    
    83   42   43 2    
    84   42   44 am   BACKBONE|DICT|INTERRES
    85   44   45 1    
    86   44  100 1    
    87   45   46 1    
    88   45   47 1    
    89   45  101 1    
    90   46  102 1    
    91   46  103 1    
    92   46  104 1    
    93   47   48 2    
    94   47   49 am   BACKBONE|DICT|INTERRES
    95   49   50 1    
    96   49  105 1    
    97   50   51 1    
    98   50   52 1    
    99   50  106 1    
   100   51  107 1    
   101   51  108 1    
   102   51  109 1    
   103   52   53 2    
   104   52   54 am   BACKBONE|DICT|INTERRES
   105   54   55 1    
   106   54  110 1    
   107   55   56 1    
   108   55   59 1    
   109   55  111 1    
   110   56   57 am   BACKBONE|DICT|INTERRES
   111   56   58 2    
   112   57  112 1    
   113   57  113 1    
   114   59   60 1    
   115   59  114 1    
   116   59  115 1    
   117   60   61 1    
   118   61  116 1    
   119   61  117 1    
@<TRIPOS>SUBSTRUCTURE
     1 UNK         1 GROUP             0       ****    0 ROOT    
