@<TRIPOS>MOLECULE
3R8
117   119    1
SMALL
USER_CHARGES


@<TRIPOS>ATOM
      1 CA         15.7566  -23.6303  -43.3987 C.3       0 UNK        -0.2013 
      2 C          15.5831  -24.7834  -42.4122 C.2       0 UNK         0.4866 
      3 O          14.9447  -24.5967  -41.3780 O.2       0 UNK        -0.5176 
      4 N          16.1059  -25.9885  -42.6804 N.am      1 UNK        -0.4884 
      5 CA         16.9514  -26.3697  -43.8189 C.3       1 UNK         0.0853 
      6 C6         17.1718  -27.9013  -43.8736 C.3       10 UNK        -0.0849 
      7 S7         15.6166  -28.8477  -44.0300 S.3       10 UNK        -0.2776 
      8 C8         15.8065  -29.6705  -45.6492 C.3       10 UNK         0.0316 
      9 C9         17.0798  -30.5041  -45.7363 C.ar      10 UNK        -0.0863 
     10 C10        17.3063  -31.5507  -44.8357 C.ar      10 UNK        -0.1009 
     11 C11        18.4988  -32.2787  -44.8801 C.ar      10 UNK        -0.0712 
     12 C12        19.4565  -31.9707  -45.8498 C.ar      10 UNK        -0.0894 
     13 C13        19.2446  -30.9246  -46.7512 C.ar      10 UNK        -0.0745 
     14 C14        18.0484  -30.2038  -46.6999 C.ar      10 UNK        -0.0972 
     15 C15        20.3362  -30.5399  -47.7398 C.3       10 UNK         0.0209 
     16 S16        21.1008  -28.9343  -47.3309 S.3       10 UNK        -0.2568 
     17 C17        21.5884  -29.1707  -45.5851 C.3       10 UNK        -0.0983 
     18 CA         22.0699  -27.8651  -44.9076 C.3       3 UNK         0.0876 
     19 N          21.1063  -26.7718  -45.0750 N.am      3 UNK        -0.4424 
     20 C          21.3098  -25.4882  -44.7483 C.2       2 UNK         0.4918 
     21 O          22.3505  -25.0647  -44.2452 O.2       2 UNK        -0.4875 
     22 CA         20.1344  -24.5235  -44.9965 C.3       2 UNK         0.0481 
     23 CB         20.2667  -23.8641  -46.3781 C.3       2 UNK        -0.1831 
     24 N          18.8176  -25.1671  -44.8846 N.am      2 UNK        -0.4498 
     25 C          18.3216  -25.6681  -43.7439 C.2       1 UNK         0.5027 
     26 O          18.9230  -25.6350  -42.6693 O.2       1 UNK        -0.4969 
     27 C          22.4079  -28.1447  -43.4286 C.2       3 UNK         0.5005 
     28 O          23.5043  -28.6303  -43.1478 O.2       3 UNK        -0.5279 
     29 N          21.4875  -27.8111  -42.5075 N.am      4 UNK        -0.4463 
     30 CA         21.6032  -28.0149  -41.0574 C.3       4 UNK         0.0283 
     31 CB         20.2685  -27.6523  -40.3878 C.3       4 UNK        -0.1875 
     32 C          22.7659  -27.2559  -40.3865 C.2       4 UNK         0.4949 
     33 O          23.0972  -27.5515  -39.2388 O.2       4 UNK        -0.5039 
     34 N          23.3767  -26.3042  -41.1055 N.am      5 UNK        -0.4663 
     35 CA         24.6160  -25.6321  -40.7159 C.3       5 UNK         0.0242 
     36 CB         24.8015  -24.3885  -41.6006 C.3       5 UNK        -0.1982 
     37 C          25.8590  -26.5420  -40.7995 C.2       5 UNK         0.5017 
     38 O          26.8682  -26.2144  -40.1738 O.2       5 UNK        -0.5012 
     39 N          25.7811  -27.6402  -41.5667 N.am      6 UNK        -0.4439 
     40 CA         26.8724  -28.5939  -41.7787 C.3       6 UNK         0.0297 
     41 CB         27.3913  -28.4635  -43.2209 C.3       6 UNK        -0.2006 
     42 C          26.4401  -30.0382  -41.4860 C.2       6 UNK         0.4892 
     43 O          27.1792  -30.7602  -40.8153 O.2       6 UNK        -0.5089 
     44 N          25.2713  -30.4434  -41.9975 N.am      7 UNK        -0.4243 
     45 CA         24.6952  -31.7745  -41.8112 C.3       7 UNK         0.0196 
     46 CB         23.7751  -32.0779  -43.0058 C.3       7 UNK        -0.2007 
     47 C          23.9038  -31.8533  -40.4984 C.2       7 UNK         0.5020 
     48 O          23.4519  -30.8298  -39.9831 O.2       7 UNK        -0.5147 
     49 N          23.6755  -33.0774  -40.0075 N.am      8 UNK        -0.4734 
     50 CA         22.8682  -33.3717  -38.8147 C.3       8 UNK         0.0238 
     51 CB         23.3156  -34.7272  -38.2345 C.3       8 UNK        -0.1912 
     52 C          21.3492  -33.3187  -39.0975 C.2       8 UNK         0.5038 
     53 O          20.6180  -34.2325  -38.7105 O.2       8 UNK        -0.5046 
     54 N          20.9125  -32.2587  -39.7850 N.am      9 UNK        -0.4200 
     55 CA         19.5325  -32.0229  -40.2391 C.3       9 UNK         0.0839 
     56 C          18.7640  -30.9923  -39.3641 C.2       9 UNK         0.5513 
     57 N          19.3422  -30.4637  -38.2919 N.am      9 UNK        -0.7519 
     58 O          17.6129  -30.6771  -39.6528 O.2       9 UNK        -0.4960 
     59 C59        19.4984  -31.6409  -41.7437 C.3       10 UNK        -0.0876 
     60 S60        20.1846  -32.9688  -42.7944 S.3       10 UNK        -0.2414 
     61 C61        18.7724  -33.3817  -43.8684 C.3       10 UNK         0.0169 
     62 H62        15.0386  -22.8391  -43.1837 H         1 UNK         0.0903 
     63 H63        16.7548  -23.2011  -43.3172 H         1 UNK         0.0903 
     64 H64        15.5891  -23.9466  -44.4271 H         1 UNK         0.0903 
     65 H65        15.9594  -26.7266  -42.0070 H         1 UNK         0.3096 
     66 H66        16.4461  -26.0689  -44.7385 H         1 UNK         0.1121 
     67 H67        17.6796  -28.2509  -42.9718 H         1 UNK         0.0849 
     68 H68        17.8354  -28.1534  -44.7018 H         1 UNK         0.0849 
     69 H69        14.9455  -30.3178  -45.8211 H         1 UNK         0.0865 
     70 H70        15.7810  -28.9127  -46.4339 H         1 UNK         0.0865 
     71 H71        16.5638  -31.7763  -44.0822 H         1 UNK         0.1346 
     72 H72        20.3858  -32.5236  -45.8731 H         1 UNK         0.1412 
     73 H73        17.8920  -29.3862  -47.3906 H         1 UNK         0.1426 
     74 H74        19.9136  -30.4876  -48.7441 H         1 UNK         0.0716 
     75 H75        21.1153  -31.3031  -47.7737 H         1 UNK         0.0716 
     76 H76        22.3688  -29.9338  -45.5490 H         1 UNK         0.0695 
     77 H77        20.7385  -29.5732  -45.0316 H         1 UNK         0.0695 
     78 H78        22.9985  -27.5538  -45.3911 H         1 UNK         0.0983 
     79 H79        20.2378  -27.0200  -45.5240 H         1 UNK         0.3095 
     80 H80        20.1892  -23.7381  -44.2396 H         1 UNK         0.0454 
     81 H81        21.2272  -23.3562  -46.4767 H         1 UNK         0.0851 
     82 H82        19.4905  -23.1155  -46.5376 H         1 UNK         0.0851 
     83 H83        20.2015  -24.5950  -47.1851 H         1 UNK         0.0851 
     84 H84        18.2735  -25.2298  -45.7340 H         1 UNK         0.2976 
     85 H85        20.6431  -27.3534  -42.8231 H         1 UNK         0.3116 
     86 H86        21.7805  -29.0788  -40.8984 H         1 UNK         0.0646 
     87 H87        19.4351  -28.2039  -40.8228 H         1 UNK         0.0847 
     88 H88        20.0512  -26.5874  -40.4745 H         1 UNK         0.0847 
     89 H89        20.2914  -27.8896  -39.3235 H         1 UNK         0.0847 
     90 H90        23.0222  -26.1020  -42.0310 H         1 UNK         0.3040 
     91 H91        24.5197  -25.3065  -39.6776 H         1 UNK         0.1015 
     92 H92        25.7029  -23.8406  -41.3225 H         1 UNK         0.0786 
     93 H93        23.9615  -23.7008  -41.5001 H         1 UNK         0.0786 
     94 H94        24.8921  -24.6537  -42.6550 H         1 UNK         0.0786 
     95 H95        24.8996  -27.8492  -42.0270 H         1 UNK         0.3172 
     96 H96        27.7026  -28.3731  -41.1045 H         1 UNK         0.0595 
     97 H97        26.6048  -28.6516  -43.9530 H         1 UNK         0.0839 
     98 H98        28.1955  -29.1750  -43.4134 H         1 UNK         0.0839 
     99 H99        27.7899  -27.4663  -43.4078 H         1 UNK         0.0839 
    100 H100       24.6818  -29.7749  -42.4903 H         1 UNK         0.2998 
    101 H101       25.4971  -32.5156  -41.7855 H         1 UNK         0.0822 
    102 H102       22.9331  -31.3856  -43.0523 H         1 UNK         0.0787 
    103 H103       24.3147  -32.0101  -43.9506 H         1 UNK         0.0787 
    104 H104       23.3632  -33.0857  -42.9406 H         1 UNK         0.0787 
    105 H105       24.0325  -33.8759  -40.5134 H         1 UNK         0.3055 
    106 H106       23.0709  -32.6084  -38.0597 H         1 UNK         0.1106 
    107 H107       23.1211  -35.5469  -38.9273 H         1 UNK         0.0828 
    108 H108       22.7863  -34.9510  -37.3072 H         1 UNK         0.0828 
    109 H109       24.3807  -34.7281  -38.0023 H         1 UNK         0.0828 
    110 H110       21.5960  -31.5491  -40.0263 H         1 UNK         0.2931 
    111 H111       18.9664  -32.9504  -40.1362 H         1 UNK         0.0412 
    112 H112       18.8264  -29.8075  -37.7272 H         1 UNK         0.3472 
    113 H113       20.2798  -30.7252  -38.0331 H         1 UNK         0.3472 
    114 H114       18.4774  -31.4248  -42.0635 H         1 UNK         0.0970 
    115 H115       20.0686  -30.7282  -41.9240 H         1 UNK         0.0970 
    116 H116       17.8945  -33.5833  -43.2526 H         1 UNK         0.0612 
    117 H117       18.9950  -34.3064  -44.4025 H         1 UNK         0.0612 
@<TRIPOS>BOND
     1    1    2 1    
     2    1   62 1    
     3    1   63 1    
     4    1   64 1    
     5    2    3 2    
     6    2    4 am   BACKBONE|DICT|INTERRES
     7    4    5 1    
     8    4   65 1    
     9    5    6 1    
    10    5   25 1    
    11    5   66 1    
    12    6    7 1    
    13    6   67 1    
    14    6   68 1    
    15    7    8 1    
    16    8    9 1    
    17    8   69 1    
    18    8   70 1    
    19    9   10 ar   
    20    9   14 ar   
    21   10   11 ar   
    22   10   71 1    
    23   11   12 ar   
    24   11   61 1    
    25   12   13 ar   
    26   12   72 1    
    27   13   14 ar   
    28   13   15 1    
    29   14   73 1    
    30   15   16 1    
    31   15   74 1    
    32   15   75 1    
    33   16   17 1    
    34   17   18 1    
    35   17   76 1    
    36   17   77 1    
    37   18   19 1    
    38   18   27 1    
    39   18   78 1    
    40   19   20 am   BACKBONE|DICT|INTERRES
    41   19   79 1    
    42   20   21 2    
    43   20   22 1    
    44   22   23 1    
    45   22   24 1    
    46   22   80 1    
    47   23   81 1    
    48   23   82 1    
    49   23   83 1    
    50   24   25 am   BACKBONE|DICT|INTERRES
    51   24   84 1    
    52   25   26 2    
    53   27   28 2    
    54   27   29 am   BACKBONE|DICT|INTERRES
    55   29   30 1    
    56   29   85 1    
    57   30   31 1    
    58   30   32 1    
    59   30   86 1    
    60   31   87 1    
    61   31   88 1    
    62   31   89 1    
    63   32   33 2    
    64   32   34 am   BACKBONE|DICT|INTERRES
    65   34   35 1    
    66   34   90 1    
    67   35   36 1    
    68   35   37 1    
    69   35   91 1    
    70   36   92 1    
    71   36   93 1    
    72   36   94 1    
    73   37   38 2    
    74   37   39 am   BACKBONE|DICT|INTERRES
    75   39   40 1    
    76   39   95 1    
    77   40   41 1    
    78   40   42 1    
    79   40   96 1    
    80   41   97 1    
    81   41   98 1    
    82   41   99 1    
    83   42   43 2    
    84   42   44 am   BACKBONE|DICT|INTERRES
    85   44   45 1    
    86   44  100 1    
    87   45   46 1    
    88   45   47 1    
    89   45  101 1    
    90   46  102 1    
    91   46  103 1    
    92   46  104 1    
    93   47   48 2    
    94   47   49 am   BACKBONE|DICT|INTERRES
    95   49   50 1    
    96   49  105 1    
    97   50   51 1    
    98   50   52 1    
    99   50  106 1    
   100   51  107 1    
   101   51  108 1    
   102   51  109 1    
   103   52   53 2    
   104   52   54 am   BACKBONE|DICT|INTERRES
   105   54   55 1    
   106   54  110 1    
   107   55   56 1    
   108   55   59 1    
   109   55  111 1    
   110   56   57 am   BACKBONE|DICT|INTERRES
   111   56   58 2    
   112   57  112 1    
   113   57  113 1    
   114   59   60 1    
   115   59  114 1    
   116   59  115 1    
   117   60   61 1    
   118   61  116 1    
   119   61  117 1    
@<TRIPOS>SUBSTRUCTURE
     1 UNK         1 GROUP             0       ****    0 ROOT    
