@<TRIPOS>MOLECULE
3R8
117   119    1
SMALL
USER_CHARGES


@<TRIPOS>ATOM
      1 CA         20.3134  -25.5866  -39.1147 C.3       0 UNK        -0.2013 
      2 C          19.4399  -25.2109  -40.3020 C.2       0 UNK         0.4866 
      3 O          18.8292  -24.1415  -40.2991 O.2       0 UNK        -0.5176 
      4 N          19.3714  -26.0837  -41.3119 N.am      1 UNK        -0.4884 
      5 CA         18.6316  -25.8797  -42.5596 C.3       1 UNK         0.0853 
      6 C6         18.2653  -27.2356  -43.2213 C.3       10 UNK        -0.0849 
      7 S7         17.3039  -28.3326  -42.1238 S.3       10 UNK        -0.2776 
      8 C8         16.6686  -29.5585  -43.3105 C.3       10 UNK         0.0316 
      9 C9         17.7846  -30.3622  -43.9656 C.ar      10 UNK        -0.0863 
     10 C10        18.3518  -31.4543  -43.3011 C.ar      10 UNK        -0.1009 
     11 C11        19.3432  -32.2223  -43.9195 C.ar      10 UNK        -0.0712 
     12 C12        19.7855  -31.8740  -45.1994 C.ar      10 UNK        -0.0894 
     13 C13        19.2300  -30.7833  -45.8755 C.ar      10 UNK        -0.0745 
     14 C14        18.2220  -30.0375  -45.2539 C.ar      10 UNK        -0.0972 
     15 C15        19.6837  -30.4655  -47.2985 C.3       10 UNK         0.0209 
     16 S16        19.9733  -28.6920  -47.6055 S.3       10 UNK        -0.2568 
     17 C17        21.4045  -28.3748  -46.5228 C.3       10 UNK        -0.0983 
     18 CA         21.8608  -26.8928  -46.5715 C.3       3 UNK         0.0876 
     19 N          20.7703  -25.9949  -46.1877 N.am      3 UNK        -0.4424 
     20 C          20.6816  -24.6791  -46.4185 C.2       2 UNK         0.4918 
     21 O          21.5123  -24.0447  -47.0702 O.2       2 UNK        -0.4875 
     22 CA         19.4813  -23.9376  -45.7912 C.3       2 UNK         0.0481 
     23 CB         18.4276  -23.6275  -46.8661 C.3       2 UNK        -0.1831 
     24 N          18.8395  -24.6542  -44.6783 N.am      2 UNK        -0.4498 
     25 C          19.4492  -25.0041  -43.5348 C.2       1 UNK         0.5027 
     26 O          20.6216  -24.7095  -43.2853 O.2       1 UNK        -0.4969 
     27 C          23.1149  -26.6455  -45.7006 C.2       3 UNK         0.5005 
     28 O          23.5153  -27.5209  -44.9326 O.2       3 UNK        -0.5279 
     29 N          23.6994  -25.4433  -45.8134 N.am      4 UNK        -0.4463 
     30 CA         24.9366  -24.9871  -45.1629 C.3       4 UNK         0.0283 
     31 CB         26.1560  -25.6931  -45.7931 C.3       4 UNK        -0.1875 
     32 C          24.9217  -25.0990  -43.6227 C.2       4 UNK         0.4949 
     33 O          25.9529  -25.4057  -43.0225 O.2       4 UNK        -0.5039 
     34 N          23.7500  -24.8559  -43.0160 N.am      5 UNK        -0.4663 
     35 CA         23.4592  -24.9361  -41.5784 C.3       5 UNK         0.0242 
     36 CB         24.3133  -23.9346  -40.7704 C.3       5 UNK        -0.1982 
     37 C          23.5042  -26.3633  -40.9951 C.2       5 UNK         0.5017 
     38 O          23.5478  -26.5032  -39.7715 O.2       5 UNK        -0.5012 
     39 N          23.4566  -27.3987  -41.8469 N.am      6 UNK        -0.4439 
     40 CA         23.2654  -28.7878  -41.4241 C.3       6 UNK         0.0297 
     41 CB         23.6872  -29.7355  -42.5582 C.3       6 UNK        -0.2006 
     42 C          21.7958  -29.0327  -41.0494 C.2       6 UNK         0.4892 
     43 O          20.9069  -28.4234  -41.6437 O.2       6 UNK        -0.5089 
     44 N          21.5691  -29.9316  -40.0911 N.am      7 UNK        -0.4243 
     45 CA         20.2631  -30.4146  -39.6530 C.3       7 UNK         0.0196 
     46 CB         19.5162  -29.3406  -38.8389 C.3       7 UNK        -0.2007 
     47 C          20.5035  -31.6741  -38.8163 C.2       7 UNK         0.5020 
     48 O          21.5832  -31.8075  -38.2330 O.2       7 UNK        -0.5147 
     49 N          19.5042  -32.5697  -38.7758 N.am      8 UNK        -0.4734 
     50 CA         19.5355  -33.8858  -38.1125 C.3       8 UNK         0.0238 
     51 CB         19.5130  -33.7203  -36.5776 C.3       8 UNK        -0.1912 
     52 C          20.7111  -34.7554  -38.6074 C.2       8 UNK         0.5038 
     53 O          21.4703  -35.2977  -37.8019 O.2       8 UNK        -0.5046 
     54 N          20.8591  -34.8063  -39.9375 N.am      9 UNK        -0.4200 
     55 CA         22.0262  -35.3363  -40.6597 C.3       9 UNK         0.0839 
     56 C          22.3071  -36.8573  -40.4798 C.2       9 UNK         0.5513 
     57 N          21.3582  -37.6585  -40.0114 N.am      9 UNK        -0.7519 
     58 O          23.4067  -37.3160  -40.7781 O.2       9 UNK        -0.4960 
     59 C59        21.9813  -34.9755  -42.1704 C.3       10 UNK        -0.0876 
     60 S60        21.5390  -33.2347  -42.5326 S.3       10 UNK        -0.2414 
     61 C61        19.8829  -33.4761  -43.2486 C.3       10 UNK         0.0169 
     62 H62        20.8008  -26.5507  -39.2580 H         1 UNK         0.0903 
     63 H63        21.0897  -24.8365  -38.9659 H         1 UNK         0.0903 
     64 H64        19.7124  -25.6427  -38.2077 H         1 UNK         0.0903 
     65 H65        19.9201  -26.9435  -41.2923 H         1 UNK         0.3096 
     66 H66        17.7074  -25.3434  -42.3325 H         1 UNK         0.1121 
     67 H67        19.1665  -27.7701  -43.5292 H         1 UNK         0.0849 
     68 H68        17.6784  -27.0770  -44.1274 H         1 UNK         0.0849 
     69 H69        15.9920  -30.2357  -42.7872 H         1 UNK         0.0865 
     70 H70        16.0631  -29.0535  -44.0647 H         1 UNK         0.0865 
     71 H71        18.0002  -31.7200  -42.3138 H         1 UNK         0.1346 
     72 H72        20.5460  -32.4751  -45.6790 H         1 UNK         0.1412 
     73 H73        17.7720  -29.2062  -45.7789 H         1 UNK         0.1426 
     74 H74        18.9174  -30.8166  -47.9906 H         1 UNK         0.0716 
     75 H75        20.5950  -31.0125  -47.5456 H         1 UNK         0.0716 
     76 H76        22.2167  -29.0360  -46.8312 H         1 UNK         0.0695 
     77 H77        21.1403  -28.6630  -45.5027 H         1 UNK         0.0695 
     78 H78        22.1420  -26.6647  -47.6021 H         1 UNK         0.0983 
     79 H79        20.0346  -26.4228  -45.6485 H         1 UNK         0.3095 
     80 H80        19.8574  -22.9907  -45.3988 H         1 UNK         0.0454 
     81 H81        17.9967  -24.5380  -47.2846 H         1 UNK         0.0851 
     82 H82        18.8662  -23.0663  -47.6926 H         1 UNK         0.0851 
     83 H83        17.6145  -23.0227  -46.4646 H         1 UNK         0.0851 
     84 H84        17.8733  -24.9155  -44.8157 H         1 UNK         0.2976 
     85 H85        23.2348  -24.7657  -46.4122 H         1 UNK         0.3116 
     86 H86        25.0216  -23.9224  -45.3846 H         1 UNK         0.0646 
     87 H87        26.1672  -25.5768  -46.8767 H         1 UNK         0.0847 
     88 H88        26.1624  -26.7606  -45.5698 H         1 UNK         0.0847 
     89 H89        27.0908  -25.2762  -45.4161 H         1 UNK         0.0847 
     90 H90        22.9453  -24.6503  -43.5964 H         1 UNK         0.3040 
     91 H91        22.4219  -24.6198  -41.4683 H         1 UNK         0.1015 
     92 H92        25.3626  -24.2283  -40.7358 H         1 UNK         0.0786 
     93 H93        23.9645  -23.8670  -39.7392 H         1 UNK         0.0786 
     94 H94        24.2572  -22.9321  -41.1943 H         1 UNK         0.0786 
     95 H95        23.4088  -27.2198  -42.8448 H         1 UNK         0.3172 
     96 H96        23.8980  -28.9829  -40.5555 H         1 UNK         0.0595 
     97 H97        23.0234  -29.6525  -43.4201 H         1 UNK         0.0839 
     98 H98        23.6566  -30.7748  -42.2289 H         1 UNK         0.0839 
     99 H99        24.7029  -29.5292  -42.8958 H         1 UNK         0.0839 
    100 H100       22.3438  -30.4065  -39.6421 H         1 UNK         0.2998 
    101 H101       19.6775  -30.6825  -40.5353 H         1 UNK         0.0822 
    102 H102       19.2462  -28.4878  -39.4608 H         1 UNK         0.0787 
    103 H103       18.5876  -29.7361  -38.4256 H         1 UNK         0.0787 
    104 H104       20.1178  -28.9762  -38.0055 H         1 UNK         0.0787 
    105 H105       18.6522  -32.3543  -39.2761 H         1 UNK         0.3055 
    106 H106       18.6234  -34.4116  -38.4004 H         1 UNK         0.1106 
    107 H107       18.6575  -33.1273  -36.2550 H         1 UNK         0.0828 
    108 H108       20.4163  -33.2337  -36.2080 H         1 UNK         0.0828 
    109 H109       19.4405  -34.6890  -36.0814 H         1 UNK         0.0828 
    110 H110       20.1925  -34.3091  -40.5070 H         1 UNK         0.2931 
    111 H111       22.8909  -34.8224  -40.2351 H         1 UNK         0.0412 
    112 H112       21.5511  -38.6414  -39.8976 H         1 UNK         0.3472 
    113 H113       20.4574  -37.2873  -39.7554 H         1 UNK         0.3472 
    114 H114       21.2892  -35.6392  -42.6920 H         1 UNK         0.0970 
    115 H115       22.9573  -35.1638  -42.6219 H         1 UNK         0.0970 
    116 H116       19.9218  -34.2752  -43.9906 H         1 UNK         0.0612 
    117 H117       19.2005  -33.8166  -42.4686 H         1 UNK         0.0612 
@<TRIPOS>BOND
     1    1    2 1    
     2    1   62 1    
     3    1   63 1    
     4    1   64 1    
     5    2    3 2    
     6    2    4 am   BACKBONE|DICT|INTERRES
     7    4    5 1    
     8    4   65 1    
     9    5    6 1    
    10    5   25 1    
    11    5   66 1    
    12    6    7 1    
    13    6   67 1    
    14    6   68 1    
    15    7    8 1    
    16    8    9 1    
    17    8   69 1    
    18    8   70 1    
    19    9   10 ar   
    20    9   14 ar   
    21   10   11 ar   
    22   10   71 1    
    23   11   12 ar   
    24   11   61 1    
    25   12   13 ar   
    26   12   72 1    
    27   13   14 ar   
    28   13   15 1    
    29   14   73 1    
    30   15   16 1    
    31   15   74 1    
    32   15   75 1    
    33   16   17 1    
    34   17   18 1    
    35   17   76 1    
    36   17   77 1    
    37   18   19 1    
    38   18   27 1    
    39   18   78 1    
    40   19   20 am   BACKBONE|DICT|INTERRES
    41   19   79 1    
    42   20   21 2    
    43   20   22 1    
    44   22   23 1    
    45   22   24 1    
    46   22   80 1    
    47   23   81 1    
    48   23   82 1    
    49   23   83 1    
    50   24   25 am   BACKBONE|DICT|INTERRES
    51   24   84 1    
    52   25   26 2    
    53   27   28 2    
    54   27   29 am   BACKBONE|DICT|INTERRES
    55   29   30 1    
    56   29   85 1    
    57   30   31 1    
    58   30   32 1    
    59   30   86 1    
    60   31   87 1    
    61   31   88 1    
    62   31   89 1    
    63   32   33 2    
    64   32   34 am   BACKBONE|DICT|INTERRES
    65   34   35 1    
    66   34   90 1    
    67   35   36 1    
    68   35   37 1    
    69   35   91 1    
    70   36   92 1    
    71   36   93 1    
    72   36   94 1    
    73   37   38 2    
    74   37   39 am   BACKBONE|DICT|INTERRES
    75   39   40 1    
    76   39   95 1    
    77   40   41 1    
    78   40   42 1    
    79   40   96 1    
    80   41   97 1    
    81   41   98 1    
    82   41   99 1    
    83   42   43 2    
    84   42   44 am   BACKBONE|DICT|INTERRES
    85   44   45 1    
    86   44  100 1    
    87   45   46 1    
    88   45   47 1    
    89   45  101 1    
    90   46  102 1    
    91   46  103 1    
    92   46  104 1    
    93   47   48 2    
    94   47   49 am   BACKBONE|DICT|INTERRES
    95   49   50 1    
    96   49  105 1    
    97   50   51 1    
    98   50   52 1    
    99   50  106 1    
   100   51  107 1    
   101   51  108 1    
   102   51  109 1    
   103   52   53 2    
   104   52   54 am   BACKBONE|DICT|INTERRES
   105   54   55 1    
   106   54  110 1    
   107   55   56 1    
   108   55   59 1    
   109   55  111 1    
   110   56   57 am   BACKBONE|DICT|INTERRES
   111   56   58 2    
   112   57  112 1    
   113   57  113 1    
   114   59   60 1    
   115   59  114 1    
   116   59  115 1    
   117   60   61 1    
   118   61  116 1    
   119   61  117 1    
@<TRIPOS>SUBSTRUCTURE
     1 UNK         1 GROUP             0       ****    0 ROOT    
