@<TRIPOS>MOLECULE
3R8
117   119    1
SMALL
USER_CHARGES


@<TRIPOS>ATOM
      1 CA         20.6217  -31.9214  -48.0899 C.3       0 UNK        -0.2013 
      2 C          19.9307  -30.5753  -47.9321 C.2       0 UNK         0.4866 
      3 O          20.0904  -29.7058  -48.7889 O.2       0 UNK        -0.5176 
      4 N          19.1659  -30.4037  -46.8445 N.am      1 UNK        -0.4884 
      5 CA         18.4482  -29.1769  -46.4718 C.3       1 UNK         0.0853 
      6 C6         17.3517  -28.7888  -47.5080 C.3       10 UNK        -0.0849 
      7 S7         16.0447  -27.6574  -46.9086 S.3       10 UNK        -0.2776 
      8 C8         14.9053  -28.7500  -45.9928 C.3       10 UNK         0.0316 
      9 C9         15.2981  -28.8228  -44.5252 C.ar      10 UNK        -0.0863 
     10 C10        15.9431  -29.9524  -44.0190 C.ar      10 UNK        -0.1009 
     11 C11        16.4360  -29.9553  -42.7122 C.ar      10 UNK        -0.0712 
     12 C12        16.1943  -28.8614  -41.8764 C.ar      10 UNK        -0.0894 
     13 C13        15.5378  -27.7282  -42.3680 C.ar      10 UNK        -0.0745 
     14 C14        15.0832  -27.7219  -43.6905 C.ar      10 UNK        -0.0972 
     15 C15        15.3638  -26.4799  -41.5072 C.3       10 UNK         0.0209 
     16 S16        16.8875  -25.9334  -40.6529 S.3       10 UNK        -0.2568 
     17 C17        18.1707  -25.9602  -41.9579 C.3       10 UNK        -0.0983 
     18 CA         19.3008  -26.9752  -41.6139 C.3       3 UNK         0.0876 
     19 N          20.0139  -27.4415  -42.8053 N.am      3 UNK        -0.4424 
     20 C          20.9295  -26.7780  -43.5264 C.2       2 UNK         0.4918 
     21 O          21.3373  -25.6485  -43.2528 O.2       2 UNK        -0.4875 
     22 CA         21.4786  -27.4984  -44.7746 C.3       2 UNK         0.0481 
     23 CB         22.7683  -28.2632  -44.4380 C.3       2 UNK        -0.1831 
     24 N          20.5064  -28.4257  -45.3639 N.am      2 UNK        -0.4498 
     25 C          19.4202  -28.0465  -46.0584 C.2       1 UNK         0.5027 
     26 O          19.1841  -26.8734  -46.3522 O.2       1 UNK        -0.4969 
     27 C          20.2788  -26.5257  -40.5031 C.2       3 UNK         0.5005 
     28 O          21.0569  -27.3506  -40.0189 O.2       3 UNK        -0.5279 
     29 N          20.2429  -25.2369  -40.1329 N.am      4 UNK        -0.4463 
     30 CA         21.0477  -24.6029  -39.0822 C.3       4 UNK         0.0283 
     31 CB         20.6116  -23.1357  -38.9385 C.3       4 UNK        -0.1875 
     32 C          22.5742  -24.6913  -39.2747 C.2       4 UNK         0.4949 
     33 O          23.3058  -24.5185  -38.2998 O.2       4 UNK        -0.5039 
     34 N          23.0350  -24.9799  -40.5007 N.am      5 UNK        -0.4663 
     35 CA         24.4393  -25.2682  -40.8084 C.3       5 UNK         0.0242 
     36 CB         24.6626  -25.1240  -42.3215 C.3       5 UNK        -0.1982 
     37 C          24.9175  -26.6472  -40.3032 C.2       5 UNK         0.5017 
     38 O          26.1248  -26.8910  -40.3191 O.2       5 UNK        -0.5012 
     39 N          23.9881  -27.5062  -39.8519 N.am      6 UNK        -0.4439 
     40 CA         24.2084  -28.8419  -39.2907 C.3       6 UNK         0.0297 
     41 CB         25.0168  -28.7699  -37.9739 C.3       6 UNK        -0.2006 
     42 C          24.7684  -29.8161  -40.3435 C.2       6 UNK         0.4892 
     43 O          24.1817  -29.9131  -41.4217 O.2       6 UNK        -0.5089 
     44 N          25.8410  -30.5513  -40.0062 N.am      7 UNK        -0.4243 
     45 CA         26.5106  -31.5723  -40.8286 C.3       7 UNK         0.0196 
     46 CB         27.2267  -30.9152  -42.0283 C.3       7 UNK        -0.2007 
     47 C          25.5584  -32.7101  -41.2505 C.2       7 UNK         0.5020 
     48 O          25.5140  -33.0823  -42.4244 O.2       7 UNK        -0.5147 
     49 N          24.7627  -33.1969  -40.2837 N.am      8 UNK        -0.4734 
     50 CA         23.6823  -34.1880  -40.4364 C.3       8 UNK         0.0238 
     51 CB         24.2571  -35.5714  -40.8099 C.3       8 UNK        -0.1912 
     52 C          22.5594  -33.7364  -41.3973 C.2       8 UNK         0.5038 
     53 O          21.8590  -34.5779  -41.9621 O.2       8 UNK        -0.5046 
     54 N          22.4198  -32.4152  -41.5644 N.am      9 UNK        -0.4200 
     55 CA         21.5615  -31.7333  -42.5377 C.3       9 UNK         0.0839 
     56 C          22.0579  -31.8217  -44.0139 C.2       9 UNK         0.5513 
     57 N          23.2618  -32.3087  -44.2912 N.am      9 UNK        -0.7519 
     58 O          21.3584  -31.3911  -44.9264 O.2       9 UNK        -0.4960 
     59 C59        20.0482  -32.0517  -42.3573 C.3       10 UNK        -0.0876 
     60 S60        19.0393  -30.6102  -42.8129 S.3       10 UNK        -0.2414 
     61 C61        17.3689  -31.0656  -42.2678 C.3       10 UNK         0.0169 
     62 H62        20.3669  -32.3669  -49.0510 H         1 UNK         0.0903 
     63 H63        20.3350  -32.6206  -47.3045 H         1 UNK         0.0903 
     64 H64        21.7029  -31.7924  -48.0468 H         1 UNK         0.0903 
     65 H65        19.1364  -31.1470  -46.1583 H         1 UNK         0.3096 
     66 H66        17.9418  -29.4290  -45.5457 H         1 UNK         0.1121 
     67 H67        16.8600  -29.6895  -47.8783 H         1 UNK         0.0849 
     68 H68        17.8128  -28.3304  -48.3843 H         1 UNK         0.0849 
     69 H69        13.8928  -28.3515  -46.0724 H         1 UNK         0.0865 
     70 H70        14.8794  -29.7412  -46.4481 H         1 UNK         0.0865 
     71 H71        16.1467  -30.7929  -44.6689 H         1 UNK         0.1346 
     72 H72        16.5843  -28.8599  -40.8679 H         1 UNK         0.1412 
     73 H73        14.6003  -26.8404  -44.0906 H         1 UNK         0.1426 
     74 H74        14.5933  -26.6734  -40.7599 H         1 UNK         0.0716 
     75 H75        15.0014  -25.6468  -42.1115 H         1 UNK         0.0716 
     76 H76        18.5545  -24.9534  -42.1285 H         1 UNK         0.0695 
     77 H77        17.7022  -26.2399  -42.9024 H         1 UNK         0.0695 
     78 H78        18.8259  -27.8742  -41.2193 H         1 UNK         0.0983 
     79 H79        19.7815  -28.3818  -43.0955 H         1 UNK         0.3095 
     80 H80        21.7215  -26.7413  -45.5229 H         1 UNK         0.0454 
     81 H81        22.6442  -28.9091  -43.5692 H         1 UNK         0.0851 
     82 H82        23.5827  -27.5769  -44.2127 H         1 UNK         0.0851 
     83 H83        23.0980  -28.8826  -45.2724 H         1 UNK         0.0851 
     84 H84        20.6632  -29.4174  -45.2121 H         1 UNK         0.2976 
     85 H85        19.5703  -24.6421  -40.5954 H         1 UNK         0.3116 
     86 H86        20.8174  -25.1193  -38.1483 H         1 UNK         0.0646 
     87 H87        20.7888  -22.5709  -39.8546 H         1 UNK         0.0847 
     88 H88        21.1638  -22.6395  -38.1390 H         1 UNK         0.0847 
     89 H89        19.5525  -23.0566  -38.6924 H         1 UNK         0.0847 
     90 H90        22.3677  -25.1038  -41.2531 H         1 UNK         0.3040 
     91 H91        25.0580  -24.5207  -40.3066 H         1 UNK         0.1015 
     92 H92        24.0459  -25.8221  -42.8832 H         1 UNK         0.0786 
     93 H93        25.7029  -25.3173  -42.5873 H         1 UNK         0.0786 
     94 H94        24.4228  -24.1170  -42.6634 H         1 UNK         0.0786 
     95 H95        23.0097  -27.2409  -39.9373 H         1 UNK         0.3172 
     96 H96        23.2163  -29.2193  -39.0388 H         1 UNK         0.0595 
     97 H97        26.0444  -28.4417  -38.1342 H         1 UNK         0.0839 
     98 H98        25.0487  -29.7385  -37.4736 H         1 UNK         0.0839 
     99 H99        24.5571  -28.0711  -37.2746 H         1 UNK         0.0839 
    100 H100       26.2413  -30.3967  -39.0911 H         1 UNK         0.2998 
    101 H101       27.2748  -32.0311  -40.1993 H         1 UNK         0.0822 
    102 H102       27.9096  -30.1310  -41.7014 H         1 UNK         0.0787 
    103 H103       27.8151  -31.6479  -42.5820 H         1 UNK         0.0787 
    104 H104       26.5184  -30.4710  -42.7289 H         1 UNK         0.0787 
    105 H105       24.8718  -32.8138  -39.3540 H         1 UNK         0.3055 
    106 H106       23.2104  -34.2826  -39.4569 H         1 UNK         0.1106 
    107 H107       24.6793  -35.5773  -41.8153 H         1 UNK         0.0828 
    108 H108       23.4827  -36.3390  -40.7803 H         1 UNK         0.0828 
    109 H109       25.0392  -35.8775  -40.1154 H         1 UNK         0.0828 
    110 H110       23.0890  -31.8079  -41.1101 H         1 UNK         0.2931 
    111 H111       21.7015  -30.6849  -42.2739 H         1 UNK         0.0412 
    112 H112       23.5656  -32.3373  -45.2506 H         1 UNK         0.3472 
    113 H113       23.8896  -32.6153  -43.5562 H         1 UNK         0.3472 
    114 H114       19.8293  -32.2923  -41.3160 H         1 UNK         0.0970 
    115 H115       19.7492  -32.9213  -42.9453 H         1 UNK         0.0970 
    116 H116       17.0758  -32.0189  -42.7104 H         1 UNK         0.0612 
    117 H117       17.3475  -31.1877  -41.1839 H         1 UNK         0.0612 
@<TRIPOS>BOND
     1    1    2 1    
     2    1   62 1    
     3    1   63 1    
     4    1   64 1    
     5    2    3 2    
     6    2    4 am   BACKBONE|DICT|INTERRES
     7    4    5 1    
     8    4   65 1    
     9    5    6 1    
    10    5   25 1    
    11    5   66 1    
    12    6    7 1    
    13    6   67 1    
    14    6   68 1    
    15    7    8 1    
    16    8    9 1    
    17    8   69 1    
    18    8   70 1    
    19    9   10 ar   
    20    9   14 ar   
    21   10   11 ar   
    22   10   71 1    
    23   11   12 ar   
    24   11   61 1    
    25   12   13 ar   
    26   12   72 1    
    27   13   14 ar   
    28   13   15 1    
    29   14   73 1    
    30   15   16 1    
    31   15   74 1    
    32   15   75 1    
    33   16   17 1    
    34   17   18 1    
    35   17   76 1    
    36   17   77 1    
    37   18   19 1    
    38   18   27 1    
    39   18   78 1    
    40   19   20 am   BACKBONE|DICT|INTERRES
    41   19   79 1    
    42   20   21 2    
    43   20   22 1    
    44   22   23 1    
    45   22   24 1    
    46   22   80 1    
    47   23   81 1    
    48   23   82 1    
    49   23   83 1    
    50   24   25 am   BACKBONE|DICT|INTERRES
    51   24   84 1    
    52   25   26 2    
    53   27   28 2    
    54   27   29 am   BACKBONE|DICT|INTERRES
    55   29   30 1    
    56   29   85 1    
    57   30   31 1    
    58   30   32 1    
    59   30   86 1    
    60   31   87 1    
    61   31   88 1    
    62   31   89 1    
    63   32   33 2    
    64   32   34 am   BACKBONE|DICT|INTERRES
    65   34   35 1    
    66   34   90 1    
    67   35   36 1    
    68   35   37 1    
    69   35   91 1    
    70   36   92 1    
    71   36   93 1    
    72   36   94 1    
    73   37   38 2    
    74   37   39 am   BACKBONE|DICT|INTERRES
    75   39   40 1    
    76   39   95 1    
    77   40   41 1    
    78   40   42 1    
    79   40   96 1    
    80   41   97 1    
    81   41   98 1    
    82   41   99 1    
    83   42   43 2    
    84   42   44 am   BACKBONE|DICT|INTERRES
    85   44   45 1    
    86   44  100 1    
    87   45   46 1    
    88   45   47 1    
    89   45  101 1    
    90   46  102 1    
    91   46  103 1    
    92   46  104 1    
    93   47   48 2    
    94   47   49 am   BACKBONE|DICT|INTERRES
    95   49   50 1    
    96   49  105 1    
    97   50   51 1    
    98   50   52 1    
    99   50  106 1    
   100   51  107 1    
   101   51  108 1    
   102   51  109 1    
   103   52   53 2    
   104   52   54 am   BACKBONE|DICT|INTERRES
   105   54   55 1    
   106   54  110 1    
   107   55   56 1    
   108   55   59 1    
   109   55  111 1    
   110   56   57 am   BACKBONE|DICT|INTERRES
   111   56   58 2    
   112   57  112 1    
   113   57  113 1    
   114   59   60 1    
   115   59  114 1    
   116   59  115 1    
   117   60   61 1    
   118   61  116 1    
   119   61  117 1    
@<TRIPOS>SUBSTRUCTURE
     1 UNK         1 GROUP             0       ****    0 ROOT    
