@<TRIPOS>MOLECULE
3R8
117   119    1
SMALL
USER_CHARGES


@<TRIPOS>ATOM
      1 CA         17.3385  -27.6356  -48.5553 C.3       0 UNK        -0.2013 
      2 C          17.0958  -27.7855  -47.0610 C.2       0 UNK         0.4866 
      3 O          16.1738  -28.4954  -46.6587 O.2       0 UNK        -0.5176 
      4 N          17.9139  -27.1234  -46.2362 N.am      1 UNK        -0.4884 
      5 CA         17.8478  -27.1808  -44.7788 C.3       1 UNK         0.0853 
      6 C6         16.8173  -26.1770  -44.2001 C.3       10 UNK        -0.0849 
      7 S7         16.4946  -26.3667  -42.4124 S.3       10 UNK        -0.2776 
      8 C8         15.4581  -27.8682  -42.3418 C.3       10 UNK         0.0316 
      9 C9         16.3092  -29.1023  -42.0795 C.ar      10 UNK        -0.0863 
     10 C10        16.5413  -30.0433  -43.0877 C.ar      10 UNK        -0.1009 
     11 C11        17.4120  -31.1140  -42.8681 C.ar      10 UNK        -0.0712 
     12 C12        18.0010  -31.2787  -41.6120 C.ar      10 UNK        -0.0894 
     13 C13        17.7378  -30.3711  -40.5831 C.ar      10 UNK        -0.0745 
     14 C14        16.8931  -29.2846  -40.8227 C.ar      10 UNK        -0.0972 
     15 C15        18.3747  -30.5635  -39.2173 C.3       10 UNK         0.0209 
     16 S16        20.1315  -30.0991  -39.2262 S.3       10 UNK        -0.2568 
     17 C17        20.0500  -28.2760  -39.2491 C.3       10 UNK        -0.0983 
     18 CA         21.1452  -27.6637  -40.1557 C.3       3 UNK         0.0876 
     19 N          20.9503  -28.0082  -41.5742 N.am      3 UNK        -0.4424 
     20 C          21.8277  -27.7602  -42.5577 C.2       2 UNK         0.4918 
     21 O          22.8859  -27.1598  -42.3902 O.2       2 UNK        -0.4875 
     22 CA         21.4623  -28.1987  -43.9795 C.3       2 UNK         0.0481 
     23 CB         22.0034  -29.6085  -44.2431 C.3       2 UNK        -0.1831 
     24 N          20.0307  -28.1419  -44.2835 N.am      2 UNK        -0.4498 
     25 C          19.2807  -27.0295  -44.2524 C.2       1 UNK         0.5027 
     26 O          19.7012  -25.9254  -43.9009 O.2       1 UNK        -0.4969 
     27 C          21.3295  -26.1520  -39.8754 C.2       3 UNK         0.5005 
     28 O          21.7358  -25.7948  -38.7685 O.2       3 UNK        -0.5279 
     29 N          21.0743  -25.2900  -40.8710 N.am      4 UNK        -0.4463 
     30 CA         21.4082  -23.8659  -40.8487 C.3       4 UNK         0.0283 
     31 CB         20.6913  -23.1706  -42.0172 C.3       4 UNK        -0.1875 
     32 C          22.9242  -23.5749  -40.9032 C.2       4 UNK         0.4949 
     33 O          23.3210  -22.4798  -40.5027 O.2       4 UNK        -0.5039 
     34 N          23.7409  -24.5186  -41.4002 N.am      5 UNK        -0.4663 
     35 CA         25.1919  -24.3442  -41.5659 C.3       5 UNK         0.0242 
     36 CB         25.4842  -23.7829  -42.9690 C.3       5 UNK        -0.1982 
     37 C          26.0131  -25.6212  -41.3136 C.2       5 UNK         0.5017 
     38 O          27.1504  -25.5134  -40.8527 O.2       5 UNK        -0.5012 
     39 N          25.4484  -26.7924  -41.6228 N.am      6 UNK        -0.4439 
     40 CA         26.0304  -28.1191  -41.4363 C.3       6 UNK         0.0297 
     41 CB         26.3754  -28.7172  -42.8162 C.3       6 UNK        -0.2006 
     42 C          25.0317  -28.9518  -40.6145 C.2       6 UNK         0.4892 
     43 O          24.6336  -28.4971  -39.5406 O.2       6 UNK        -0.5089 
     44 N          24.6290  -30.1299  -41.1100 N.am      7 UNK        -0.4243 
     45 CA         23.6439  -31.0122  -40.4872 C.3       7 UNK         0.0196 
     46 CB         24.2489  -31.7004  -39.2450 C.3       7 UNK        -0.2007 
     47 C          23.1584  -32.0614  -41.4957 C.2       7 UNK         0.5020 
     48 O          23.7844  -32.2423  -42.5423 O.2       7 UNK        -0.5147 
     49 N          22.0736  -32.7573  -41.1278 N.am      8 UNK        -0.4734 
     50 CA         21.5370  -34.0176  -41.6740 C.3       8 UNK         0.0238 
     51 CB         22.5644  -35.1534  -41.4976 C.3       8 UNK        -0.1912 
     52 C          20.9979  -34.0141  -43.1183 C.2       8 UNK         0.5038 
     53 O          20.1179  -34.8259  -43.4080 O.2       8 UNK        -0.5046 
     54 N          21.5180  -33.1407  -43.9865 N.am      9 UNK        -0.4200 
     55 CA         21.2638  -33.0893  -45.4391 C.3       9 UNK         0.0839 
     56 C          21.8931  -34.2920  -46.2079 C.2       9 UNK         0.5513 
     57 N          21.6946  -34.3747  -47.5172 N.am      9 UNK        -0.7519 
     58 O          22.5933  -35.1346  -45.6491 O.2       9 UNK        -0.4960 
     59 C59        19.7682  -32.8468  -45.8196 C.3       10 UNK        -0.0876 
     60 S60        19.0567  -31.3554  -45.0468 S.3       10 UNK        -0.2414 
     61 C61        17.7537  -32.0688  -43.9974 C.3       10 UNK         0.0169 
     62 H62        16.4515  -27.2287  -49.0401 H         1 UNK         0.0903 
     63 H63        18.1762  -26.9719  -48.7689 H         1 UNK         0.0903 
     64 H64        17.5540  -28.6073  -48.9988 H         1 UNK         0.0903 
     65 H65        18.6695  -26.5642  -46.6110 H         1 UNK         0.3096 
     66 H66        17.5298  -28.1816  -44.5061 H         1 UNK         0.1121 
     67 H67        17.1429  -25.1515  -44.3836 H         1 UNK         0.0849 
     68 H68        15.8652  -26.2788  -44.7231 H         1 UNK         0.0849 
     69 H69        14.7318  -27.7582  -41.5351 H         1 UNK         0.0865 
     70 H70        14.8789  -27.9745  -43.2605 H         1 UNK         0.0865 
     71 H71        16.0881  -29.9171  -44.0623 H         1 UNK         0.1346 
     72 H72        18.6764  -32.1051  -41.4375 H         1 UNK         0.1412 
     73 H73        16.7047  -28.5646  -40.0378 H         1 UNK         0.1426 
     74 H74        18.2894  -31.6111  -38.9251 H         1 UNK         0.0716 
     75 H75        17.8483  -29.9898  -38.4527 H         1 UNK         0.0716 
     76 H76        20.1650  -27.9429  -38.2157 H         1 UNK         0.0695 
     77 H77        19.0632  -27.9395  -39.5685 H         1 UNK         0.0695 
     78 H78        22.0940  -28.1116  -39.8595 H         1 UNK         0.0983 
     79 H79        20.0960  -28.4978  -41.7984 H         1 UNK         0.3095 
     80 H80        21.9634  -27.5144  -44.6672 H         1 UNK         0.0454 
     81 H81        23.0748  -29.6641  -44.0453 H         1 UNK         0.0851 
     82 H82        21.5161  -30.3469  -43.6066 H         1 UNK         0.0851 
     83 H83        21.8533  -29.8987  -45.2824 H         1 UNK         0.0851 
     84 H84        19.6076  -29.0048  -44.6019 H         1 UNK         0.2976 
     85 H85        20.7270  -25.6571  -41.7483 H         1 UNK         0.3116 
     86 H86        21.0269  -23.4442  -39.9163 H         1 UNK         0.0646 
     87 H87        20.8778  -22.0959  -42.0073 H         1 UNK         0.0847 
     88 H88        19.6116  -23.3123  -41.9634 H         1 UNK         0.0847 
     89 H89        21.0303  -23.5515  -42.9817 H         1 UNK         0.0847 
     90 H90        23.3387  -25.3997  -41.7029 H         1 UNK         0.3040 
     91 H91        25.5485  -23.6183  -40.8313 H         1 UNK         0.1015 
     92 H92        25.0135  -22.8102  -43.1129 H         1 UNK         0.0786 
     93 H93        25.1213  -24.4505  -43.7514 H         1 UNK         0.0786 
     94 H94        26.5559  -23.6488  -43.1230 H         1 UNK         0.0786 
     95 H95        24.4861  -26.8099  -41.9592 H         1 UNK         0.3172 
     96 H96        26.9470  -28.0559  -40.8467 H         1 UNK         0.0595 
     97 H97        26.8410  -29.6989  -42.7204 H         1 UNK         0.0839 
     98 H98        27.0852  -28.0825  -43.3470 H         1 UNK         0.0839 
     99 H99        25.4931  -28.8202  -43.4495 H         1 UNK         0.0839 
    100 H100       24.9694  -30.4522  -42.0076 H         1 UNK         0.2998 
    101 H101       22.7872  -30.4085  -40.1904 H         1 UNK         0.0822 
    102 H102       25.1280  -32.2915  -39.5047 H         1 UNK         0.0787 
    103 H103       24.5463  -30.9764  -38.4867 H         1 UNK         0.0787 
    104 H104       23.5317  -32.3727  -38.7725 H         1 UNK         0.0787 
    105 H105       21.6141  -32.4529  -40.2794 H         1 UNK         0.3055 
    106 H106       20.6785  -34.2592  -41.0445 H         1 UNK         0.1106 
    107 H107       23.4584  -34.9874  -42.0999 H         1 UNK         0.0828 
    108 H108       22.8734  -35.2533  -40.4571 H         1 UNK         0.0828 
    109 H109       22.1440  -36.1127  -41.8030 H         1 UNK         0.0828 
    110 H110       22.3094  -32.5980  -43.6544 H         1 UNK         0.2931 
    111 H111       21.8302  -32.2236  -45.7815 H         1 UNK         0.0412 
    112 H112       22.1099  -35.1410  -48.0244 H         1 UNK         0.3472 
    113 H113       21.1552  -33.6832  -48.0137 H         1 UNK         0.3472 
    114 H114       19.6664  -32.7096  -46.8966 H         1 UNK         0.0970 
    115 H115       19.1612  -33.7211  -45.5807 H         1 UNK         0.0970 
    116 H116       16.8703  -32.2744  -44.6036 H         1 UNK         0.0612 
    117 H117       18.0808  -33.0249  -43.5878 H         1 UNK         0.0612 
@<TRIPOS>BOND
     1    1    2 1    
     2    1   62 1    
     3    1   63 1    
     4    1   64 1    
     5    2    3 2    
     6    2    4 am   BACKBONE|DICT|INTERRES
     7    4    5 1    
     8    4   65 1    
     9    5    6 1    
    10    5   25 1    
    11    5   66 1    
    12    6    7 1    
    13    6   67 1    
    14    6   68 1    
    15    7    8 1    
    16    8    9 1    
    17    8   69 1    
    18    8   70 1    
    19    9   10 ar   
    20    9   14 ar   
    21   10   11 ar   
    22   10   71 1    
    23   11   12 ar   
    24   11   61 1    
    25   12   13 ar   
    26   12   72 1    
    27   13   14 ar   
    28   13   15 1    
    29   14   73 1    
    30   15   16 1    
    31   15   74 1    
    32   15   75 1    
    33   16   17 1    
    34   17   18 1    
    35   17   76 1    
    36   17   77 1    
    37   18   19 1    
    38   18   27 1    
    39   18   78 1    
    40   19   20 am   BACKBONE|DICT|INTERRES
    41   19   79 1    
    42   20   21 2    
    43   20   22 1    
    44   22   23 1    
    45   22   24 1    
    46   22   80 1    
    47   23   81 1    
    48   23   82 1    
    49   23   83 1    
    50   24   25 am   BACKBONE|DICT|INTERRES
    51   24   84 1    
    52   25   26 2    
    53   27   28 2    
    54   27   29 am   BACKBONE|DICT|INTERRES
    55   29   30 1    
    56   29   85 1    
    57   30   31 1    
    58   30   32 1    
    59   30   86 1    
    60   31   87 1    
    61   31   88 1    
    62   31   89 1    
    63   32   33 2    
    64   32   34 am   BACKBONE|DICT|INTERRES
    65   34   35 1    
    66   34   90 1    
    67   35   36 1    
    68   35   37 1    
    69   35   91 1    
    70   36   92 1    
    71   36   93 1    
    72   36   94 1    
    73   37   38 2    
    74   37   39 am   BACKBONE|DICT|INTERRES
    75   39   40 1    
    76   39   95 1    
    77   40   41 1    
    78   40   42 1    
    79   40   96 1    
    80   41   97 1    
    81   41   98 1    
    82   41   99 1    
    83   42   43 2    
    84   42   44 am   BACKBONE|DICT|INTERRES
    85   44   45 1    
    86   44  100 1    
    87   45   46 1    
    88   45   47 1    
    89   45  101 1    
    90   46  102 1    
    91   46  103 1    
    92   46  104 1    
    93   47   48 2    
    94   47   49 am   BACKBONE|DICT|INTERRES
    95   49   50 1    
    96   49  105 1    
    97   50   51 1    
    98   50   52 1    
    99   50  106 1    
   100   51  107 1    
   101   51  108 1    
   102   51  109 1    
   103   52   53 2    
   104   52   54 am   BACKBONE|DICT|INTERRES
   105   54   55 1    
   106   54  110 1    
   107   55   56 1    
   108   55   59 1    
   109   55  111 1    
   110   56   57 am   BACKBONE|DICT|INTERRES
   111   56   58 2    
   112   57  112 1    
   113   57  113 1    
   114   59   60 1    
   115   59  114 1    
   116   59  115 1    
   117   60   61 1    
   118   61  116 1    
   119   61  117 1    
@<TRIPOS>SUBSTRUCTURE
     1 UNK         1 GROUP             0       ****    0 ROOT    
