@<TRIPOS>MOLECULE
3R8
117   119    1
SMALL
USER_CHARGES


@<TRIPOS>ATOM
      1 CA         16.6002  -27.8941  -41.0336 C.3       0 UNK        -0.2013 
      2 C          16.6582  -26.7731  -42.0595 C.2       0 UNK         0.4866 
      3 O          16.3328  -25.6307  -41.7340 O.2       0 UNK        -0.5176 
      4 N          17.0636  -27.0940  -43.2941 N.am      1 UNK        -0.4884 
      5 CA         17.2266  -26.1409  -44.4004 C.3       1 UNK         0.0853 
      6 C6         16.9350  -26.7867  -45.7846 C.3       10 UNK        -0.0849 
      7 S7         15.4128  -27.8123  -45.7831 S.3       10 UNK        -0.2776 
      8 C8         15.9883  -29.4926  -46.2193 C.3       10 UNK         0.0316 
      9 C9         17.2015  -29.9499  -45.4177 C.ar      10 UNK        -0.0863 
     10 C10        17.0673  -30.4780  -44.1302 C.ar      10 UNK        -0.1009 
     11 C11        18.1983  -30.8909  -43.4151 C.ar      10 UNK        -0.0712 
     12 C12        19.4689  -30.7368  -43.9816 C.ar      10 UNK        -0.0894 
     13 C13        19.6161  -30.2127  -45.2699 C.ar      10 UNK        -0.0745 
     14 C14        18.4710  -29.8589  -45.9898 C.ar      10 UNK        -0.0972 
     15 C15        21.0089  -30.0554  -45.8774 C.3       10 UNK         0.0209 
     16 S16        21.1540  -28.5958  -46.9654 S.3       10 UNK        -0.2568 
     17 C17        22.7803  -27.9072  -46.5086 C.3       10 UNK        -0.0983 
     18 CA         22.7242  -26.8114  -45.4100 C.3       3 UNK         0.0876 
     19 N          21.6042  -25.8839  -45.6002 N.am      3 UNK        -0.4424 
     20 C          21.5391  -24.6381  -45.1170 C.2       2 UNK         0.4918 
     21 O          22.4456  -24.1088  -44.4735 O.2       2 UNK        -0.4875 
     22 CA         20.2268  -23.8628  -45.3644 C.3       2 UNK         0.0481 
     23 CB         20.3049  -23.1016  -46.6972 C.3       2 UNK        -0.1831 
     24 N          18.9925  -24.6682  -45.3335 N.am      2 UNK        -0.4498 
     25 C          18.6227  -25.4744  -44.3257 C.2       1 UNK         0.5027 
     26 O          19.3554  -25.6978  -43.3607 O.2       1 UNK        -0.4969 
     27 C          22.7964  -27.4174  -43.9915 C.2       3 UNK         0.5005 
     28 O          23.8584  -27.9237  -43.6241 O.2       3 UNK        -0.5279 
     29 N          21.7230  -27.3344  -43.1871 N.am      4 UNK        -0.4463 
     30 CA         21.6705  -27.8498  -41.8093 C.3       4 UNK         0.0283 
     31 CB         20.2103  -27.9675  -41.3442 C.3       4 UNK        -0.1875 
     32 C          22.5142  -27.0425  -40.8002 C.2       4 UNK         0.4949 
     33 O          22.5638  -27.4047  -39.6256 O.2       4 UNK        -0.5039 
     34 N          23.1850  -25.9798  -41.2652 N.am      5 UNK        -0.4663 
     35 CA         24.2781  -25.3163  -40.5547 C.3       5 UNK         0.0242 
     36 CB         24.5429  -23.9519  -41.2107 C.3       5 UNK        -0.1982 
     37 C          25.5668  -26.1647  -40.5322 C.2       5 UNK         0.5017 
     38 O          26.3848  -25.9748  -39.6314 O.2       5 UNK        -0.5012 
     39 N          25.7278  -27.0674  -41.5121 N.am      6 UNK        -0.4439 
     40 CA         26.8604  -27.9869  -41.6409 C.3       6 UNK         0.0297 
     41 CB         27.5341  -27.7737  -43.0068 C.3       6 UNK        -0.2006 
     42 C          26.4141  -29.4489  -41.4831 C.2       6 UNK         0.4892 
     43 O          27.0915  -30.2132  -40.7944 O.2       6 UNK        -0.5089 
     44 N          25.2938  -29.8139  -42.1207 N.am      7 UNK        -0.4243 
     45 CA         24.6607  -31.1313  -42.0336 C.3       7 UNK         0.0196 
     46 CB         23.8004  -31.3342  -43.2936 C.3       7 UNK        -0.2007 
     47 C          23.8053  -31.2678  -40.7603 C.2       7 UNK         0.5020 
     48 O          23.6985  -30.3264  -39.9741 O.2       7 UNK        -0.5147 
     49 N          23.1774  -32.4345  -40.5910 N.am      8 UNK        -0.4734 
     50 CA         22.2093  -32.7101  -39.5330 C.3       8 UNK         0.0238 
     51 CB         22.9362  -33.2315  -38.2804 C.3       8 UNK        -0.1912 
     52 C          21.1928  -33.7341  -40.0477 C.2       8 UNK         0.5038 
     53 O          21.5505  -34.5738  -40.8783 O.2       8 UNK        -0.5046 
     54 N          19.9657  -33.6551  -39.5234 N.am      9 UNK        -0.4200 
     55 CA         18.8562  -34.5849  -39.7969 C.3       9 UNK         0.0839 
     56 C          18.4069  -35.3738  -38.5316 C.2       9 UNK         0.5513 
     57 N          19.0962  -35.2750  -37.4004 N.am      9 UNK        -0.7519 
     58 O          17.4231  -36.1077  -38.5775 O.2       9 UNK        -0.4960 
     59 C59        17.6634  -33.8633  -40.4829 C.3       10 UNK        -0.0876 
     60 S60        18.0523  -33.3419  -42.1872 S.3       10 UNK        -0.2414 
     61 C61        18.0497  -31.5301  -42.0425 C.3       10 UNK         0.0169 
     62 H62        17.1700  -27.6206  -40.1458 H         1 UNK         0.0903 
     63 H63        15.5687  -28.0785  -40.7352 H         1 UNK         0.0903 
     64 H64        17.0132  -28.8212  -41.4257 H         1 UNK         0.0903 
     65 H65        17.3172  -28.0476  -43.5113 H         1 UNK         0.3096 
     66 H66        16.4998  -25.3372  -44.2633 H         1 UNK         0.1121 
     67 H67        17.7878  -27.3648  -46.1327 H         1 UNK         0.0849 
     68 H68        16.7937  -26.0078  -46.5356 H         1 UNK         0.0849 
     69 H69        15.1672  -30.1947  -46.0675 H         1 UNK         0.0865 
     70 H70        16.2083  -29.5202  -47.2877 H         1 UNK         0.0865 
     71 H71        16.0831  -30.5832  -43.6938 H         1 UNK         0.1346 
     72 H72        20.3416  -31.0468  -43.4232 H         1 UNK         0.1412 
     73 H73        18.5647  -29.4805  -46.9981 H         1 UNK         0.1426 
     74 H74        21.2558  -30.9517  -46.4473 H         1 UNK         0.0716 
     75 H75        21.7469  -29.9788  -45.0815 H         1 UNK         0.0716 
     76 H76        23.1917  -27.4647  -47.4169 H         1 UNK         0.0695 
     77 H77        23.4705  -28.7134  -46.2500 H         1 UNK         0.0695 
     78 H78        23.6420  -26.2269  -45.5086 H         1 UNK         0.0983 
     79 H79        20.8181  -26.2515  -46.1169 H         1 UNK         0.3095 
     80 H80        20.1401  -23.1258  -44.5636 H         1 UNK         0.0454 
     81 H81        21.1991  -22.4779  -46.7397 H         1 UNK         0.0851 
     82 H82        19.4481  -22.4409  -46.8298 H         1 UNK         0.0851 
     83 H83        20.3417  -23.7811  -47.5495 H         1 UNK         0.0851 
     84 H84        18.3518  -24.5271  -46.1012 H         1 UNK         0.2976 
     85 H85        20.8994  -26.8267  -43.5006 H         1 UNK         0.3116 
     86 H86        22.0864  -28.8584  -41.8252 H         1 UNK         0.0646 
     87 H87        19.5952  -28.4809  -42.0819 H         1 UNK         0.0847 
     88 H88        19.7678  -26.9893  -41.1559 H         1 UNK         0.0847 
     89 H89        20.1441  -28.5340  -40.4147 H         1 UNK         0.0847 
     90 H90        23.0377  -25.7106  -42.2277 H         1 UNK         0.3040 
     91 H91        23.9728  -25.1503  -39.5191 H         1 UNK         0.1015 
     92 H92        25.3410  -23.4180  -40.6929 H         1 UNK         0.0786 
     93 H93        23.6563  -23.3182  -41.1791 H         1 UNK         0.0786 
     94 H94        24.8426  -24.0559  -42.2543 H         1 UNK         0.0786 
     95 H95        24.9847  -27.1765  -42.1951 H         1 UNK         0.3172 
     96 H96        27.6031  -27.7868  -40.8659 H         1 UNK         0.0595 
     97 H97        26.8427  -27.9472  -43.8326 H         1 UNK         0.0839 
     98 H98        28.3768  -28.4539  -43.1370 H         1 UNK         0.0839 
     99 H99        27.9198  -26.7587  -43.1020 H         1 UNK         0.0839 
    100 H100       24.7912  -29.1185  -42.6678 H         1 UNK         0.2998 
    101 H101       25.4379  -31.8980  -42.0079 H         1 UNK         0.0822 
    102 H102       22.9428  -30.6629  -43.2923 H         1 UNK         0.0787 
    103 H103       24.3719  -31.1461  -44.2028 H         1 UNK         0.0787 
    104 H104       23.4184  -32.3534  -43.3599 H         1 UNK         0.0787 
    105 H105       23.2595  -33.1670  -41.2856 H         1 UNK         0.3055 
    106 H106       21.6740  -31.7900  -39.2858 H         1 UNK         0.1106 
    107 H107       23.4793  -34.1546  -38.4857 H         1 UNK         0.0828 
    108 H108       22.2327  -33.4379  -37.4733 H         1 UNK         0.0828 
    109 H109       23.6514  -32.4999  -37.9045 H         1 UNK         0.0828 
    110 H110       19.7697  -32.9411  -38.8369 H         1 UNK         0.2931 
    111 H111       19.1998  -35.3621  -40.4815 H         1 UNK         0.0412 
    112 H112       18.7926  -35.7993  -36.5945 H         1 UNK         0.3472 
    113 H113       19.9288  -34.7118  -37.3471 H         1 UNK         0.3472 
    114 H114       16.7993  -34.5259  -40.5558 H         1 UNK         0.0970 
    115 H115       17.3345  -33.0101  -39.8877 H         1 UNK         0.0970 
    116 H116       18.8619  -31.2135  -41.3862 H         1 UNK         0.0612 
    117 H117       17.1188  -31.2091  -41.5733 H         1 UNK         0.0612 
@<TRIPOS>BOND
     1    1    2 1    
     2    1   62 1    
     3    1   63 1    
     4    1   64 1    
     5    2    3 2    
     6    2    4 am   BACKBONE|DICT|INTERRES
     7    4    5 1    
     8    4   65 1    
     9    5    6 1    
    10    5   25 1    
    11    5   66 1    
    12    6    7 1    
    13    6   67 1    
    14    6   68 1    
    15    7    8 1    
    16    8    9 1    
    17    8   69 1    
    18    8   70 1    
    19    9   10 ar   
    20    9   14 ar   
    21   10   11 ar   
    22   10   71 1    
    23   11   12 ar   
    24   11   61 1    
    25   12   13 ar   
    26   12   72 1    
    27   13   14 ar   
    28   13   15 1    
    29   14   73 1    
    30   15   16 1    
    31   15   74 1    
    32   15   75 1    
    33   16   17 1    
    34   17   18 1    
    35   17   76 1    
    36   17   77 1    
    37   18   19 1    
    38   18   27 1    
    39   18   78 1    
    40   19   20 am   BACKBONE|DICT|INTERRES
    41   19   79 1    
    42   20   21 2    
    43   20   22 1    
    44   22   23 1    
    45   22   24 1    
    46   22   80 1    
    47   23   81 1    
    48   23   82 1    
    49   23   83 1    
    50   24   25 am   BACKBONE|DICT|INTERRES
    51   24   84 1    
    52   25   26 2    
    53   27   28 2    
    54   27   29 am   BACKBONE|DICT|INTERRES
    55   29   30 1    
    56   29   85 1    
    57   30   31 1    
    58   30   32 1    
    59   30   86 1    
    60   31   87 1    
    61   31   88 1    
    62   31   89 1    
    63   32   33 2    
    64   32   34 am   BACKBONE|DICT|INTERRES
    65   34   35 1    
    66   34   90 1    
    67   35   36 1    
    68   35   37 1    
    69   35   91 1    
    70   36   92 1    
    71   36   93 1    
    72   36   94 1    
    73   37   38 2    
    74   37   39 am   BACKBONE|DICT|INTERRES
    75   39   40 1    
    76   39   95 1    
    77   40   41 1    
    78   40   42 1    
    79   40   96 1    
    80   41   97 1    
    81   41   98 1    
    82   41   99 1    
    83   42   43 2    
    84   42   44 am   BACKBONE|DICT|INTERRES
    85   44   45 1    
    86   44  100 1    
    87   45   46 1    
    88   45   47 1    
    89   45  101 1    
    90   46  102 1    
    91   46  103 1    
    92   46  104 1    
    93   47   48 2    
    94   47   49 am   BACKBONE|DICT|INTERRES
    95   49   50 1    
    96   49  105 1    
    97   50   51 1    
    98   50   52 1    
    99   50  106 1    
   100   51  107 1    
   101   51  108 1    
   102   51  109 1    
   103   52   53 2    
   104   52   54 am   BACKBONE|DICT|INTERRES
   105   54   55 1    
   106   54  110 1    
   107   55   56 1    
   108   55   59 1    
   109   55  111 1    
   110   56   57 am   BACKBONE|DICT|INTERRES
   111   56   58 2    
   112   57  112 1    
   113   57  113 1    
   114   59   60 1    
   115   59  114 1    
   116   59  115 1    
   117   60   61 1    
   118   61  116 1    
   119   61  117 1    
@<TRIPOS>SUBSTRUCTURE
     1 UNK         1 GROUP             0       ****    0 ROOT    
