@<TRIPOS>MOLECULE
3R8
117   119    1
SMALL
USER_CHARGES


@<TRIPOS>ATOM
      1 CA         17.0601  -26.0093  -49.7841 C.3       0 UNK        -0.2013 
      2 C          16.8209  -24.8299  -48.8451 C.2       0 UNK         0.4866 
      3 O          16.1423  -23.8790  -49.2286 O.2       0 UNK        -0.5176 
      4 N          17.3534  -24.8379  -47.6180 N.am      1 UNK        -0.4884 
      5 CA         18.2151  -25.8624  -47.0305 C.3       1 UNK         0.0853 
      6 C6         17.3941  -27.0203  -46.4021 C.3       10 UNK        -0.0849 
      7 S7         18.3084  -28.5976  -46.4120 S.3       10 UNK        -0.2776 
      8 C8         17.0063  -29.7626  -45.8944 C.3       10 UNK         0.0316 
      9 C9         16.9859  -29.9448  -44.3836 C.ar      10 UNK        -0.0863 
     10 C10        17.6170  -31.0503  -43.8051 C.ar      10 UNK        -0.1009 
     11 C11        17.6109  -31.2277  -42.4185 C.ar      10 UNK        -0.0712 
     12 C12        16.9581  -30.2954  -41.6093 C.ar      10 UNK        -0.0894 
     13 C13        16.3399  -29.1753  -42.1738 C.ar      10 UNK        -0.0745 
     14 C14        16.3406  -29.0145  -43.5628 C.ar      10 UNK        -0.0972 
     15 C15        15.7180  -28.1161  -41.2764 C.3       10 UNK         0.0209 
     16 S16        16.9673  -27.3265  -40.2075 S.3       10 UNK        -0.2568 
     17 C17        18.0660  -26.5079  -41.4182 C.3       10 UNK        -0.0983 
     18 CA         19.2597  -27.3822  -41.9126 C.3       3 UNK         0.0876 
     19 N          19.8594  -26.8378  -43.1331 N.am      3 UNK        -0.4424 
     20 C          20.5925  -25.7173  -43.2204 C.2       2 UNK         0.4918 
     21 O          20.8261  -24.9685  -42.2712 O.2       2 UNK        -0.4875 
     22 CA         21.1612  -25.3743  -44.6082 C.3       2 UNK         0.0481 
     23 CB         22.5364  -26.0338  -44.7950 C.3       2 UNK        -0.1831 
     24 N          20.2673  -25.7856  -45.6948 N.am      2 UNK        -0.4498 
     25 C          19.1061  -25.1807  -45.9792 C.2       1 UNK         0.5027 
     26 O          18.7127  -24.1496  -45.4252 O.2       1 UNK        -0.4969 
     27 C          20.3532  -27.6974  -40.8648 C.2       3 UNK         0.5005 
     28 O          21.3990  -28.2351  -41.2352 O.2       3 UNK        -0.5279 
     29 N          20.1201  -27.3370  -39.5961 N.am      4 UNK        -0.4463 
     30 CA         21.0008  -27.5719  -38.4465 C.3       4 UNK         0.0283 
     31 CB         20.2833  -27.1015  -37.1705 C.3       4 UNK        -0.1875 
     32 C          22.4028  -26.9366  -38.5419 C.2       4 UNK         0.4949 
     33 O          23.2768  -27.3097  -37.7588 O.2       4 UNK        -0.5039 
     34 N          22.6102  -26.0061  -39.4858 N.am      5 UNK        -0.4663 
     35 CA         23.9225  -25.4400  -39.8065 C.3       5 UNK         0.0242 
     36 CB         23.7412  -24.1764  -40.6625 C.3       5 UNK        -0.1982 
     37 C          24.8563  -26.4403  -40.5148 C.2       5 UNK         0.5017 
     38 O          26.0721  -26.2504  -40.4603 O.2       5 UNK        -0.5012 
     39 N          24.2933  -27.4749  -41.1563 N.am      6 UNK        -0.4439 
     40 CA         25.0390  -28.5712  -41.7679 C.3       6 UNK         0.0297 
     41 CB         24.4038  -28.9288  -43.1214 C.3       6 UNK        -0.2006 
     42 C          25.0162  -29.7830  -40.8293 C.2       6 UNK         0.4892 
     43 O          23.9532  -30.1437  -40.3197 O.2       6 UNK        -0.5089 
     44 N          26.1817  -30.4143  -40.6462 N.am      7 UNK        -0.4243 
     45 CA         26.3110  -31.6953  -39.9529 C.3       7 UNK         0.0196 
     46 CB         27.7721  -31.9015  -39.5205 C.3       7 UNK        -0.2007 
     47 C          25.8493  -32.8246  -40.8854 C.2       7 UNK         0.5020 
     48 O          26.3011  -32.8726  -42.0317 O.2       7 UNK        -0.5147 
     49 N          24.9674  -33.6986  -40.3787 N.am      8 UNK        -0.4734 
     50 CA         24.3225  -34.8094  -41.0958 C.3       8 UNK         0.0238 
     51 CB         25.3478  -35.9183  -41.4194 C.3       8 UNK        -0.1912 
     52 C          23.5400  -34.3283  -42.3359 C.2       8 UNK         0.5038 
     53 O          23.7840  -34.8061  -43.4463 O.2       8 UNK        -0.5046 
     54 N          22.6398  -33.3603  -42.1142 N.am      9 UNK        -0.4200 
     55 CA         21.7651  -32.7490  -43.1264 C.3       9 UNK         0.0839 
     56 C          20.8680  -33.7573  -43.9010 C.2       9 UNK         0.5513 
     57 N          20.4715  -33.4172  -45.1204 N.am      9 UNK        -0.7519 
     58 O          20.4988  -34.8180  -43.4005 O.2       9 UNK        -0.4960 
     59 C59        20.9397  -31.5738  -42.5320 C.3       10 UNK        -0.0876 
     60 S60        19.9251  -32.0007  -41.0686 S.3       10 UNK        -0.2414 
     61 C61        18.3047  -32.4269  -41.7911 C.3       10 UNK         0.0169 
     62 H62        18.0751  -25.9808  -50.1791 H         1 UNK         0.0903 
     63 H63        16.9066  -26.9642  -49.2837 H         1 UNK         0.0903 
     64 H64        16.3722  -25.9687  -50.6284 H         1 UNK         0.0903 
     65 H65        17.2331  -24.0324  -47.0147 H         1 UNK         0.3096 
     66 H66        18.8729  -26.2464  -47.8133 H         1 UNK         0.1121 
     67 H67        17.0785  -26.7801  -45.3853 H         1 UNK         0.0849 
     68 H68        16.4711  -27.1771  -46.9618 H         1 UNK         0.0849 
     69 H69        16.0295  -29.4290  -46.2477 H         1 UNK         0.0865 
     70 H70        17.1866  -30.7215  -46.3828 H         1 UNK         0.0865 
     71 H71        18.1198  -31.7721  -44.4345 H         1 UNK         0.1346 
     72 H72        16.9635  -30.4213  -40.5350 H         1 UNK         0.1412 
     73 H73        15.8547  -28.1554  -44.0031 H         1 UNK         0.1426 
     74 H74        15.2093  -27.3495  -41.8629 H         1 UNK         0.0716 
     75 H75        14.9568  -28.5815  -40.6488 H         1 UNK         0.0716 
     76 H76        18.4252  -25.5720  -40.9867 H         1 UNK         0.0695 
     77 H77        17.4533  -26.2130  -42.2718 H         1 UNK         0.0695 
     78 H78        18.8754  -28.3569  -42.2065 H         1 UNK         0.0983 
     79 H79        19.7476  -27.4015  -43.9627 H         1 UNK         0.3095 
     80 H80        21.2941  -24.2914  -44.6576 H         1 UNK         0.0454 
     81 H81        22.9991  -25.7289  -45.7336 H         1 UNK         0.0851 
     82 H82        23.2184  -25.7506  -43.9917 H         1 UNK         0.0851 
     83 H83        22.4649  -27.1218  -44.7928 H         1 UNK         0.0851 
     84 H84        20.5147  -26.6276  -46.1961 H         1 UNK         0.2976 
     85 H85        19.2218  -26.9160  -39.3969 H         1 UNK         0.3116 
     86 H86        21.1513  -28.6511  -38.3757 H         1 UNK         0.0646 
     87 H87        19.3350  -27.6211  -37.0317 H         1 UNK         0.0847 
     88 H88        20.8890  -27.2985  -36.2847 H         1 UNK         0.0847 
     89 H89        20.0809  -26.0300  -37.1942 H         1 UNK         0.0847 
     90 H90        21.8438  -25.7577  -40.0978 H         1 UNK         0.3040 
     91 H91        24.4049  -25.1503  -38.8701 H         1 UNK         0.1015 
     92 H92        23.3275  -24.4090  -41.6438 H         1 UNK         0.0786 
     93 H93        24.6980  -23.6786  -40.8261 H         1 UNK         0.0786 
     94 H94        23.0802  -23.4568  -40.1794 H         1 UNK         0.0786 
     95 H95        23.2878  -27.6166  -41.0852 H         1 UNK         0.3172 
     96 H96        26.0751  -28.2776  -41.9495 H         1 UNK         0.0595 
     97 H97        23.3430  -29.1620  -43.0223 H         1 UNK         0.0839 
     98 H98        24.8896  -29.7993  -43.5647 H         1 UNK         0.0839 
     99 H99        24.5044  -28.1077  -43.8301 H         1 UNK         0.0839 
    100 H100       27.0007  -30.0819  -41.1347 H         1 UNK         0.2998 
    101 H101       25.6857  -31.6797  -39.0572 H         1 UNK         0.0822 
    102 H102       27.8897  -32.8458  -38.9871 H         1 UNK         0.0787 
    103 H103       28.4491  -31.9242  -40.3756 H         1 UNK         0.0787 
    104 H104       28.1034  -31.1076  -38.8507 H         1 UNK         0.0787 
    105 H105       24.6588  -33.5601  -39.4254 H         1 UNK         0.3055 
    106 H106       23.5826  -35.2380  -40.4173 H         1 UNK         0.1106 
    107 H107       24.8574  -36.7828  -41.8687 H         1 UNK         0.0828 
    108 H108       26.1095  -35.5777  -42.1215 H         1 UNK         0.0828 
    109 H109       25.8540  -36.2659  -40.5189 H         1 UNK         0.0828 
    110 H110       22.5089  -33.0261  -41.1710 H         1 UNK         0.2931 
    111 H111       22.4433  -32.3163  -43.8648 H         1 UNK         0.0412 
    112 H112       19.8846  -34.0531  -45.6375 H         1 UNK         0.3472 
    113 H113       20.7717  -32.5550  -45.5476 H         1 UNK         0.3472 
    114 H114       21.6293  -30.7906  -42.2131 H         1 UNK         0.0970 
    115 H115       20.3218  -31.1029  -43.2963 H         1 UNK         0.0970 
    116 H116       18.4188  -33.2293  -42.5194 H         1 UNK         0.0612 
    117 H117       17.6719  -32.8322  -41.0004 H         1 UNK         0.0612 
@<TRIPOS>BOND
     1    1    2 1    
     2    1   62 1    
     3    1   63 1    
     4    1   64 1    
     5    2    3 2    
     6    2    4 am   BACKBONE|DICT|INTERRES
     7    4    5 1    
     8    4   65 1    
     9    5    6 1    
    10    5   25 1    
    11    5   66 1    
    12    6    7 1    
    13    6   67 1    
    14    6   68 1    
    15    7    8 1    
    16    8    9 1    
    17    8   69 1    
    18    8   70 1    
    19    9   10 ar   
    20    9   14 ar   
    21   10   11 ar   
    22   10   71 1    
    23   11   12 ar   
    24   11   61 1    
    25   12   13 ar   
    26   12   72 1    
    27   13   14 ar   
    28   13   15 1    
    29   14   73 1    
    30   15   16 1    
    31   15   74 1    
    32   15   75 1    
    33   16   17 1    
    34   17   18 1    
    35   17   76 1    
    36   17   77 1    
    37   18   19 1    
    38   18   27 1    
    39   18   78 1    
    40   19   20 am   BACKBONE|DICT|INTERRES
    41   19   79 1    
    42   20   21 2    
    43   20   22 1    
    44   22   23 1    
    45   22   24 1    
    46   22   80 1    
    47   23   81 1    
    48   23   82 1    
    49   23   83 1    
    50   24   25 am   BACKBONE|DICT|INTERRES
    51   24   84 1    
    52   25   26 2    
    53   27   28 2    
    54   27   29 am   BACKBONE|DICT|INTERRES
    55   29   30 1    
    56   29   85 1    
    57   30   31 1    
    58   30   32 1    
    59   30   86 1    
    60   31   87 1    
    61   31   88 1    
    62   31   89 1    
    63   32   33 2    
    64   32   34 am   BACKBONE|DICT|INTERRES
    65   34   35 1    
    66   34   90 1    
    67   35   36 1    
    68   35   37 1    
    69   35   91 1    
    70   36   92 1    
    71   36   93 1    
    72   36   94 1    
    73   37   38 2    
    74   37   39 am   BACKBONE|DICT|INTERRES
    75   39   40 1    
    76   39   95 1    
    77   40   41 1    
    78   40   42 1    
    79   40   96 1    
    80   41   97 1    
    81   41   98 1    
    82   41   99 1    
    83   42   43 2    
    84   42   44 am   BACKBONE|DICT|INTERRES
    85   44   45 1    
    86   44  100 1    
    87   45   46 1    
    88   45   47 1    
    89   45  101 1    
    90   46  102 1    
    91   46  103 1    
    92   46  104 1    
    93   47   48 2    
    94   47   49 am   BACKBONE|DICT|INTERRES
    95   49   50 1    
    96   49  105 1    
    97   50   51 1    
    98   50   52 1    
    99   50  106 1    
   100   51  107 1    
   101   51  108 1    
   102   51  109 1    
   103   52   53 2    
   104   52   54 am   BACKBONE|DICT|INTERRES
   105   54   55 1    
   106   54  110 1    
   107   55   56 1    
   108   55   59 1    
   109   55  111 1    
   110   56   57 am   BACKBONE|DICT|INTERRES
   111   56   58 2    
   112   57  112 1    
   113   57  113 1    
   114   59   60 1    
   115   59  114 1    
   116   59  115 1    
   117   60   61 1    
   118   61  116 1    
   119   61  117 1    
@<TRIPOS>SUBSTRUCTURE
     1 UNK         1 GROUP             0       ****    0 ROOT    
