@<TRIPOS>MOLECULE
3R8
117   119    1
SMALL
USER_CHARGES


@<TRIPOS>ATOM
      1 CA         18.2751  -25.5915  -38.0545 C.3       0 UNK        -0.2013 
      2 C          18.6402  -25.8538  -39.5080 C.2       0 UNK         0.4866 
      3 O          19.7215  -25.4591  -39.9479 O.2       0 UNK        -0.5176 
      4 N          17.7541  -26.5253  -40.2536 N.am      1 UNK        -0.4884 
      5 CA         17.9336  -26.8315  -41.6757 C.3       1 UNK         0.0853 
      6 C6         16.5968  -27.2441  -42.3407 C.3       10 UNK        -0.0849 
      7 S7         16.5671  -26.8020  -44.1103 S.3       10 UNK        -0.2776 
      8 C8         15.6349  -28.1886  -44.8316 C.3       10 UNK         0.0316 
      9 C9         16.4397  -29.4809  -44.8788 C.ar      10 UNK        -0.0863 
     10 C10        16.0519  -30.5814  -44.1087 C.ar      10 UNK        -0.1009 
     11 C11        16.7451  -31.7907  -44.2027 C.ar      10 UNK        -0.0712 
     12 C12        17.8321  -31.8917  -45.0751 C.ar      10 UNK        -0.0894 
     13 C13        18.2498  -30.7981  -45.8372 C.ar      10 UNK        -0.0745 
     14 C14        17.5446  -29.5906  -45.7299 C.ar      10 UNK        -0.0972 
     15 C15        19.4796  -30.9802  -46.7288 C.3       10 UNK         0.0209 
     16 S16        19.7836  -29.6502  -47.9437 S.3       10 UNK        -0.2568 
     17 C17        21.6056  -29.6819  -48.0426 C.3       10 UNK        -0.0983 
     18 CA         22.2655  -28.6267  -47.1119 C.3       3 UNK         0.0876 
     19 N          21.9341  -28.8596  -45.6983 N.am      3 UNK        -0.4424 
     20 C          21.1680  -28.0548  -44.9540 C.2       2 UNK         0.4918 
     21 O          20.7339  -26.9646  -45.3375 O.2       2 UNK        -0.4875 
     22 CA         20.8346  -28.5489  -43.5392 C.3       2 UNK         0.0481 
     23 CB         22.0714  -28.4714  -42.6284 C.3       2 UNK        -0.1831 
     24 N          19.7605  -27.7100  -43.0226 N.am      2 UNK        -0.4498 
     25 C          19.0389  -27.8829  -41.9115 C.2       1 UNK         0.5027 
     26 O          19.1940  -28.8096  -41.1104 O.2       1 UNK        -0.4969 
     27 C          23.7938  -28.5340  -47.3179 C.2       3 UNK         0.5005 
     28 O          24.2734  -28.7717  -48.4284 O.2       3 UNK        -0.5279 
     29 N          24.5400  -28.1837  -46.2608 N.am      4 UNK        -0.4463 
     30 CA         25.9904  -27.9863  -46.2845 C.3       4 UNK         0.0283 
     31 CB         26.7423  -29.3321  -46.3435 C.3       4 UNK        -0.1875 
     32 C          26.4219  -27.1530  -45.0740 C.2       4 UNK         0.4949 
     33 O          27.0011  -26.0809  -45.2498 O.2       4 UNK        -0.5039 
     34 N          26.1157  -27.6591  -43.8725 N.am      5 UNK        -0.4663 
     35 CA         26.3783  -27.0019  -42.5904 C.3       5 UNK         0.0242 
     36 CB         26.9358  -28.0520  -41.6051 C.3       5 UNK        -0.1982 
     37 C          25.1002  -26.2952  -42.0972 C.2       5 UNK         0.5017 
     38 O          24.4257  -25.6387  -42.8929 O.2       5 UNK        -0.5012 
     39 N          24.7749  -26.4515  -40.8105 N.am      6 UNK        -0.4439 
     40 CA         23.5409  -26.0039  -40.1741 C.3       6 UNK         0.0297 
     41 CB         23.7665  -24.6458  -39.4887 C.3       6 UNK        -0.2006 
     42 C          23.1332  -27.0761  -39.1582 C.2       6 UNK         0.4892 
     43 O          24.0164  -27.6968  -38.5594 O.2       6 UNK        -0.5089 
     44 N          21.8162  -27.2359  -38.9762 N.am      7 UNK        -0.4243 
     45 CA         21.1235  -28.1782  -38.0884 C.3       7 UNK         0.0196 
     46 CB         21.5189  -27.9421  -36.6152 C.3       7 UNK        -0.2007 
     47 C          21.2611  -29.6626  -38.4754 C.2       7 UNK         0.5020 
     48 O          22.1622  -30.0592  -39.2175 O.2       7 UNK        -0.5147 
     49 N          20.3289  -30.4622  -37.9357 N.am      8 UNK        -0.4734 
     50 CA         20.2624  -31.9294  -37.9891 C.3       8 UNK         0.0238 
     51 CB         21.3850  -32.5349  -37.1184 C.3       8 UNK        -0.1912 
     52 C          20.2350  -32.5346  -39.4079 C.2       8 UNK         0.5038 
     53 O          20.6505  -33.6833  -39.5730 O.2       8 UNK        -0.5046 
     54 N          19.7548  -31.7676  -40.3988 N.am      9 UNK        -0.4200 
     55 CA         19.7193  -32.1317  -41.8262 C.3       9 UNK         0.0839 
     56 C          21.1251  -32.2407  -42.4929 C.2       9 UNK         0.5513 
     57 N          22.1959  -31.7552  -41.8737 N.am      9 UNK        -0.7519 
     58 O          21.2456  -32.7343  -43.6110 O.2       9 UNK        -0.4960 
     59 C59        18.8085  -33.3625  -42.1143 C.3       10 UNK        -0.0876 
     60 S60        17.0569  -33.0204  -41.7261 S.3       10 UNK        -0.2414 
     61 C61        16.3026  -32.9959  -43.3840 C.3       10 UNK         0.0169 
     62 H62        17.9882  -24.5482  -37.9255 H         1 UNK         0.0903 
     63 H63        17.4464  -26.2175  -37.7244 H         1 UNK         0.0903 
     64 H64        19.1275  -25.7891  -37.4054 H         1 UNK         0.0903 
     65 H65        16.9026  -26.8671  -39.8313 H         1 UNK         0.3096 
     66 H66        18.2663  -25.8966  -42.1345 H         1 UNK         0.1121 
     67 H67        15.7618  -26.7166  -41.8766 H         1 UNK         0.0849 
     68 H68        16.3926  -28.3075  -42.1996 H         1 UNK         0.0849 
     69 H69        14.7045  -28.3242  -44.2776 H         1 UNK         0.0865 
     70 H70        15.3430  -27.9207  -45.8480 H         1 UNK         0.0865 
     71 H71        15.2002  -30.5052  -43.4465 H         1 UNK         0.1346 
     72 H72        18.3647  -32.8283  -45.1622 H         1 UNK         0.1412 
     73 H73        17.8418  -28.7255  -46.3053 H         1 UNK         0.1426 
     74 H74        19.3955  -31.9201  -47.2764 H         1 UNK         0.0716 
     75 H75        20.3449  -31.0862  -46.0742 H         1 UNK         0.0716 
     76 H76        21.8653  -29.4894  -49.0852 H         1 UNK         0.0695 
     77 H77        21.9733  -30.6854  -47.8205 H         1 UNK         0.0695 
     78 H78        21.8908  -27.6489  -47.4225 H         1 UNK         0.0983 
     79 H79        22.2641  -29.7307  -45.3069 H         1 UNK         0.3095 
     80 H80        20.4736  -29.5758  -43.6054 H         1 UNK         0.0454 
     81 H81        22.8791  -29.1054  -42.9937 H         1 UNK         0.0851 
     82 H82        21.8479  -28.7962  -41.6131 H         1 UNK         0.0851 
     83 H83        22.4493  -27.4529  -42.5799 H         1 UNK         0.0851 
     84 H84        19.5334  -26.9443  -43.6479 H         1 UNK         0.2976 
     85 H85        24.0680  -27.9233  -45.4056 H         1 UNK         0.3116 
     86 H86        26.2454  -27.4119  -47.1781 H         1 UNK         0.0646 
     87 H87        26.4590  -29.9958  -45.5262 H         1 UNK         0.0847 
     88 H88        26.5471  -29.8566  -47.2787 H         1 UNK         0.0847 
     89 H89        27.8207  -29.1793  -46.2825 H         1 UNK         0.0847 
     90 H90        25.6424  -28.5496  -43.8283 H         1 UNK         0.3040 
     91 H91        27.1368  -26.2258  -42.7156 H         1 UNK         0.1015 
     92 H92        27.2504  -27.5929  -40.6669 H         1 UNK         0.0786 
     93 H93        27.8151  -28.5464  -42.0192 H         1 UNK         0.0786 
     94 H94        26.2031  -28.8264  -41.3725 H         1 UNK         0.0786 
     95 H95        25.3388  -27.0564  -40.2252 H         1 UNK         0.3172 
     96 H96        22.7465  -25.8995  -40.9157 H         1 UNK         0.0595 
     97 H97        24.5405  -24.7038  -38.7224 H         1 UNK         0.0839 
     98 H98        22.8522  -24.2973  -39.0063 H         1 UNK         0.0839 
     99 H99        24.0637  -23.8836  -40.2092 H         1 UNK         0.0839 
    100 H100       21.1936  -26.6397  -39.5162 H         1 UNK         0.2998 
    101 H101       20.0651  -27.9420  -38.1885 H         1 UNK         0.0822 
    102 H102       20.8911  -28.5226  -35.9385 H         1 UNK         0.0787 
    103 H103       21.4073  -26.8940  -36.3372 H         1 UNK         0.0787 
    104 H104       22.5519  -28.2321  -36.4204 H         1 UNK         0.0787 
    105 H105       19.6094  -30.0273  -37.3740 H         1 UNK         0.3055 
    106 H106       19.3095  -32.2089  -37.5367 H         1 UNK         0.1106 
    107 H107       21.3731  -32.1216  -36.1099 H         1 UNK         0.0828 
    108 H108       21.2728  -33.6156  -37.0222 H         1 UNK         0.0828 
    109 H109       22.3705  -32.3466  -37.5462 H         1 UNK         0.0828 
    110 H110       19.4817  -30.8139  -40.1950 H         1 UNK         0.2931 
    111 H111       19.2607  -31.2771  -42.3242 H         1 UNK         0.0412 
    112 H112       22.1118  -31.3109  -40.9666 H         1 UNK         0.3472 
    113 H113       23.0984  -31.8383  -42.3120 H         1 UNK         0.3472 
    114 H114       18.8862  -33.6779  -43.1535 H         1 UNK         0.0970 
    115 H115       19.1273  -34.2318  -41.5393 H         1 UNK         0.0970 
    116 H116       15.2174  -32.9837  -43.2721 H         1 UNK         0.0612 
    117 H117       16.5408  -33.9234  -43.9072 H         1 UNK         0.0612 
@<TRIPOS>BOND
     1    1    2 1    
     2    1   62 1    
     3    1   63 1    
     4    1   64 1    
     5    2    3 2    
     6    2    4 am   BACKBONE|DICT|INTERRES
     7    4    5 1    
     8    4   65 1    
     9    5    6 1    
    10    5   25 1    
    11    5   66 1    
    12    6    7 1    
    13    6   67 1    
    14    6   68 1    
    15    7    8 1    
    16    8    9 1    
    17    8   69 1    
    18    8   70 1    
    19    9   10 ar   
    20    9   14 ar   
    21   10   11 ar   
    22   10   71 1    
    23   11   12 ar   
    24   11   61 1    
    25   12   13 ar   
    26   12   72 1    
    27   13   14 ar   
    28   13   15 1    
    29   14   73 1    
    30   15   16 1    
    31   15   74 1    
    32   15   75 1    
    33   16   17 1    
    34   17   18 1    
    35   17   76 1    
    36   17   77 1    
    37   18   19 1    
    38   18   27 1    
    39   18   78 1    
    40   19   20 am   BACKBONE|DICT|INTERRES
    41   19   79 1    
    42   20   21 2    
    43   20   22 1    
    44   22   23 1    
    45   22   24 1    
    46   22   80 1    
    47   23   81 1    
    48   23   82 1    
    49   23   83 1    
    50   24   25 am   BACKBONE|DICT|INTERRES
    51   24   84 1    
    52   25   26 2    
    53   27   28 2    
    54   27   29 am   BACKBONE|DICT|INTERRES
    55   29   30 1    
    56   29   85 1    
    57   30   31 1    
    58   30   32 1    
    59   30   86 1    
    60   31   87 1    
    61   31   88 1    
    62   31   89 1    
    63   32   33 2    
    64   32   34 am   BACKBONE|DICT|INTERRES
    65   34   35 1    
    66   34   90 1    
    67   35   36 1    
    68   35   37 1    
    69   35   91 1    
    70   36   92 1    
    71   36   93 1    
    72   36   94 1    
    73   37   38 2    
    74   37   39 am   BACKBONE|DICT|INTERRES
    75   39   40 1    
    76   39   95 1    
    77   40   41 1    
    78   40   42 1    
    79   40   96 1    
    80   41   97 1    
    81   41   98 1    
    82   41   99 1    
    83   42   43 2    
    84   42   44 am   BACKBONE|DICT|INTERRES
    85   44   45 1    
    86   44  100 1    
    87   45   46 1    
    88   45   47 1    
    89   45  101 1    
    90   46  102 1    
    91   46  103 1    
    92   46  104 1    
    93   47   48 2    
    94   47   49 am   BACKBONE|DICT|INTERRES
    95   49   50 1    
    96   49  105 1    
    97   50   51 1    
    98   50   52 1    
    99   50  106 1    
   100   51  107 1    
   101   51  108 1    
   102   51  109 1    
   103   52   53 2    
   104   52   54 am   BACKBONE|DICT|INTERRES
   105   54   55 1    
   106   54  110 1    
   107   55   56 1    
   108   55   59 1    
   109   55  111 1    
   110   56   57 am   BACKBONE|DICT|INTERRES
   111   56   58 2    
   112   57  112 1    
   113   57  113 1    
   114   59   60 1    
   115   59  114 1    
   116   59  115 1    
   117   60   61 1    
   118   61  116 1    
   119   61  117 1    
@<TRIPOS>SUBSTRUCTURE
     1 UNK         1 GROUP             0       ****    0 ROOT    
