@<TRIPOS>MOLECULE
3R8
117   119    1
SMALL
USER_CHARGES


@<TRIPOS>ATOM
      1 CA         18.2103  -26.1932  -39.6901 C.3       0 UNK        -0.2013 
      2 C          17.4578  -25.1762  -40.5452 C.2       0 UNK         0.4866 
      3 O          16.7646  -24.3307  -39.9818 O.2       0 UNK        -0.5176 
      4 N          17.5264  -25.1987  -41.8863 N.am      1 UNK        -0.4884 
      5 CA         18.3115  -26.0506  -42.7993 C.3       1 UNK         0.0853 
      6 C6         18.1251  -27.5836  -42.6056 C.3       10 UNK        -0.0849 
      7 S7         16.4020  -28.1446  -42.3650 S.3       10 UNK        -0.2776 
      8 C8         15.8955  -28.6908  -44.0245 C.3       10 UNK         0.0316 
      9 C9         16.5769  -29.9785  -44.4743 C.ar      10 UNK        -0.0863 
     10 C10        16.1710  -31.2204  -43.9698 C.ar      10 UNK        -0.1009 
     11 C11        16.7207  -32.4059  -44.4741 C.ar      10 UNK        -0.0712 
     12 C12        17.7013  -32.3379  -45.4682 C.ar      10 UNK        -0.0894 
     13 C13        18.1244  -31.1060  -45.9726 C.ar      10 UNK        -0.0745 
     14 C14        17.5539  -29.9310  -45.4718 C.ar      10 UNK        -0.0972 
     15 C15        19.1225  -31.0689  -47.1251 C.3       10 UNK         0.0209 
     16 S16        20.3506  -29.7338  -46.9857 S.3       10 UNK        -0.2568 
     17 C17        21.4884  -30.4200  -45.7411 C.3       10 UNK        -0.0983 
     18 CA         22.6103  -29.4006  -45.4458 C.3       3 UNK         0.0876 
     19 N          22.1143  -28.2259  -44.7211 N.am      3 UNK        -0.4424 
     20 C          22.6431  -27.0009  -44.8267 C.2       2 UNK         0.4918 
     21 O          23.6043  -26.7369  -45.5496 O.2       2 UNK        -0.4875 
     22 CA         21.9824  -25.8895  -43.9948 C.3       2 UNK         0.0481 
     23 CB         22.2544  -24.4780  -44.5537 C.3       2 UNK        -0.1831 
     24 N          20.5403  -26.1143  -43.8436 N.am      2 UNK        -0.4498 
     25 C          19.8114  -25.6638  -42.8138 C.2       1 UNK         0.5027 
     26 O          20.2892  -24.9800  -41.9055 O.2       1 UNK        -0.4969 
     27 C          23.8017  -30.0423  -44.7146 C.2       3 UNK         0.5005 
     28 O          24.7395  -30.4918  -45.3749 O.2       3 UNK        -0.5279 
     29 N          23.7920  -30.0097  -43.3754 N.am      4 UNK        -0.4463 
     30 CA         24.9376  -30.3406  -42.5283 C.3       4 UNK         0.0283 
     31 CB         24.4571  -31.1625  -41.3199 C.3       4 UNK        -0.1875 
     32 C          25.6485  -29.0353  -42.1347 C.2       4 UNK         0.4949 
     33 O          25.7188  -28.6961  -40.9529 O.2       4 UNK        -0.5039 
     34 N          26.1060  -28.2940  -43.1549 N.am      5 UNK        -0.4663 
     35 CA         26.7699  -26.9803  -43.1365 C.3       5 UNK         0.0242 
     36 CB         28.0996  -27.0296  -42.3584 C.3       5 UNK        -0.1982 
     37 C          25.8838  -25.8182  -42.6505 C.2       5 UNK         0.5017 
     38 O          25.7937  -24.8008  -43.3370 O.2       5 UNK        -0.5012 
     39 N          25.2501  -25.9876  -41.4877 N.am      6 UNK        -0.4439 
     40 CA         24.3512  -25.0301  -40.8427 C.3       6 UNK         0.0297 
     41 CB         25.1675  -23.9591  -40.0909 C.3       6 UNK        -0.2006 
     42 C          23.3537  -25.7718  -39.9363 C.2       6 UNK         0.4892 
     43 O          22.9989  -25.2684  -38.8691 O.2       6 UNK        -0.5089 
     44 N          22.9422  -26.9713  -40.3619 N.am      7 UNK        -0.4243 
     45 CA         22.0452  -27.8690  -39.6469 C.3       7 UNK         0.0196 
     46 CB         22.8341  -28.6605  -38.5853 C.3       7 UNK        -0.2007 
     47 C          21.3389  -28.7874  -40.6519 C.2       7 UNK         0.5020 
     48 O          21.6878  -28.8029  -41.8379 O.2       7 UNK        -0.5147 
     49 N          20.3370  -29.5170  -40.1546 N.am      8 UNK        -0.4734 
     50 CA         19.5067  -30.4481  -40.9186 C.3       8 UNK         0.0238 
     51 CB         18.1398  -30.5582  -40.2135 C.3       8 UNK        -0.1912 
     52 C          20.1533  -31.8322  -41.0770 C.2       8 UNK         0.5038 
     53 O          21.2396  -32.0897  -40.5553 O.2       8 UNK        -0.5046 
     54 N          19.4228  -32.7043  -41.7773 N.am      9 UNK        -0.4200 
     55 CA         19.6868  -34.1367  -41.9691 C.3       9 UNK         0.0839 
     56 C          19.7993  -34.9946  -40.6720 C.2       9 UNK         0.5513 
     57 N          19.3083  -34.5424  -39.5243 N.am      9 UNK        -0.7519 
     58 O          20.3463  -36.0937  -40.7139 O.2       9 UNK        -0.4960 
     59 C59        18.6474  -34.7466  -42.9489 C.3       10 UNK        -0.0876 
     60 S60        16.9161  -34.3669  -42.4763 S.3       10 UNK        -0.2414 
     61 C61        16.1857  -33.7632  -44.0301 C.3       10 UNK         0.0169 
     62 H62        19.2143  -26.3832  -40.0592 H         1 UNK         0.0903 
     63 H63        18.3089  -25.8267  -38.6687 H         1 UNK         0.0903 
     64 H64        17.6619  -27.1333  -39.6530 H         1 UNK         0.0903 
     65 H65        17.0002  -24.4837  -42.3688 H         1 UNK         0.3096 
     66 H66        17.9317  -25.8061  -43.7929 H         1 UNK         0.1121 
     67 H67        18.6828  -27.9085  -41.7322 H         1 UNK         0.0849 
     68 H68        18.5589  -28.1302  -43.4436 H         1 UNK         0.0849 
     69 H69        16.0759  -27.8838  -44.7364 H         1 UNK         0.0865 
     70 H70        14.8158  -28.8472  -44.0213 H         1 UNK         0.0865 
     71 H71        15.3942  -31.2655  -43.2184 H         1 UNK         0.1346 
     72 H72        18.1048  -33.2505  -45.8851 H         1 UNK         0.1412 
     73 H73        17.8452  -28.9765  -45.8880 H         1 UNK         0.1426 
     74 H74        18.5661  -30.9293  -48.0526 H         1 UNK         0.0716 
     75 H75        19.6458  -32.0217  -47.2204 H         1 UNK         0.0716 
     76 H76        21.8986  -31.3508  -46.1384 H         1 UNK         0.0695 
     77 H77        20.9363  -30.6779  -44.8350 H         1 UNK         0.0695 
     78 H78        23.0053  -29.0676  -46.4092 H         1 UNK         0.0983 
     79 H79        21.4000  -28.3896  -44.0243 H         1 UNK         0.3095 
     80 H80        22.4468  -25.9582  -43.0110 H         1 UNK         0.0454 
     81 H81        21.8266  -24.3524  -45.5486 H         1 UNK         0.0851 
     82 H82        23.3251  -24.2838  -44.6294 H         1 UNK         0.0851 
     83 H83        21.8382  -23.7046  -43.9085 H         1 UNK         0.0851 
     84 H84        20.0963  -26.6423  -44.5832 H         1 UNK         0.2976 
     85 H85        22.9914  -29.5977  -42.8994 H         1 UNK         0.3116 
     86 H86        25.6607  -30.9517  -43.0724 H         1 UNK         0.0646 
     87 H87        23.6824  -30.6440  -40.7584 H         1 UNK         0.0847 
     88 H88        25.2779  -31.3739  -40.6336 H         1 UNK         0.0847 
     89 H89        24.0432  -32.1201  -41.6359 H         1 UNK         0.0847 
     90 H90        25.9502  -28.6690  -44.0822 H         1 UNK         0.3040 
     91 H91        27.0127  -26.7621  -44.1782 H         1 UNK         0.1015 
     92 H92        27.9500  -27.2428  -41.2996 H         1 UNK         0.0786 
     93 H93        28.6233  -26.0749  -42.4240 H         1 UNK         0.0786 
     94 H94        28.7659  -27.7920  -42.7620 H         1 UNK         0.0786 
     95 H95        25.3914  -26.8773  -41.0089 H         1 UNK         0.3172 
     96 H96        23.7574  -24.5297  -41.6100 H         1 UNK         0.0595 
     97 H97        25.7695  -24.4005  -39.2959 H         1 UNK         0.0839 
     98 H98        24.5136  -23.2155  -39.6336 H         1 UNK         0.0839 
     99 H99        25.8389  -23.4240  -40.7625 H         1 UNK         0.0839 
    100 H100       23.2192  -27.3036  -41.2751 H         1 UNK         0.2998 
    101 H101       21.2741  -27.2765  -39.1505 H         1 UNK         0.0822 
    102 H102       23.2057  -27.9997  -37.8020 H         1 UNK         0.0787 
    103 H103       22.2157  -29.4154  -38.0988 H         1 UNK         0.0787 
    104 H104       23.6957  -29.1691  -39.0166 H         1 UNK         0.0787 
    105 H105       20.1620  -29.4814  -39.1608 H         1 UNK         0.3055 
    106 H106       19.3587  -30.0570  -41.9267 H         1 UNK         0.1106 
    107 H107       18.2201  -31.0666  -39.2518 H         1 UNK         0.0828 
    108 H108       17.4181  -31.1095  -40.8176 H         1 UNK         0.0828 
    109 H109       17.7047  -29.5766  -40.0298 H         1 UNK         0.0828 
    110 H110       18.5357  -32.3977  -42.1499 H         1 UNK         0.2931 
    111 H111       20.6652  -34.2017  -42.4488 H         1 UNK         0.0412 
    112 H112       19.3911  -35.1081  -38.6943 H         1 UNK         0.3472 
    113 H113       18.8495  -33.6476  -39.4827 H         1 UNK         0.3472 
    114 H114       18.8436  -34.3712  -43.9519 H         1 UNK         0.0970 
    115 H115       18.7630  -35.8297  -43.0259 H         1 UNK         0.0970 
    116 H116       15.1051  -33.6945  -43.8966 H         1 UNK         0.0612 
    117 H117       16.3420  -34.5105  -44.8099 H         1 UNK         0.0612 
@<TRIPOS>BOND
     1    1    2 1    
     2    1   62 1    
     3    1   63 1    
     4    1   64 1    
     5    2    3 2    
     6    2    4 am   BACKBONE|DICT|INTERRES
     7    4    5 1    
     8    4   65 1    
     9    5    6 1    
    10    5   25 1    
    11    5   66 1    
    12    6    7 1    
    13    6   67 1    
    14    6   68 1    
    15    7    8 1    
    16    8    9 1    
    17    8   69 1    
    18    8   70 1    
    19    9   10 ar   
    20    9   14 ar   
    21   10   11 ar   
    22   10   71 1    
    23   11   12 ar   
    24   11   61 1    
    25   12   13 ar   
    26   12   72 1    
    27   13   14 ar   
    28   13   15 1    
    29   14   73 1    
    30   15   16 1    
    31   15   74 1    
    32   15   75 1    
    33   16   17 1    
    34   17   18 1    
    35   17   76 1    
    36   17   77 1    
    37   18   19 1    
    38   18   27 1    
    39   18   78 1    
    40   19   20 am   BACKBONE|DICT|INTERRES
    41   19   79 1    
    42   20   21 2    
    43   20   22 1    
    44   22   23 1    
    45   22   24 1    
    46   22   80 1    
    47   23   81 1    
    48   23   82 1    
    49   23   83 1    
    50   24   25 am   BACKBONE|DICT|INTERRES
    51   24   84 1    
    52   25   26 2    
    53   27   28 2    
    54   27   29 am   BACKBONE|DICT|INTERRES
    55   29   30 1    
    56   29   85 1    
    57   30   31 1    
    58   30   32 1    
    59   30   86 1    
    60   31   87 1    
    61   31   88 1    
    62   31   89 1    
    63   32   33 2    
    64   32   34 am   BACKBONE|DICT|INTERRES
    65   34   35 1    
    66   34   90 1    
    67   35   36 1    
    68   35   37 1    
    69   35   91 1    
    70   36   92 1    
    71   36   93 1    
    72   36   94 1    
    73   37   38 2    
    74   37   39 am   BACKBONE|DICT|INTERRES
    75   39   40 1    
    76   39   95 1    
    77   40   41 1    
    78   40   42 1    
    79   40   96 1    
    80   41   97 1    
    81   41   98 1    
    82   41   99 1    
    83   42   43 2    
    84   42   44 am   BACKBONE|DICT|INTERRES
    85   44   45 1    
    86   44  100 1    
    87   45   46 1    
    88   45   47 1    
    89   45  101 1    
    90   46  102 1    
    91   46  103 1    
    92   46  104 1    
    93   47   48 2    
    94   47   49 am   BACKBONE|DICT|INTERRES
    95   49   50 1    
    96   49  105 1    
    97   50   51 1    
    98   50   52 1    
    99   50  106 1    
   100   51  107 1    
   101   51  108 1    
   102   51  109 1    
   103   52   53 2    
   104   52   54 am   BACKBONE|DICT|INTERRES
   105   54   55 1    
   106   54  110 1    
   107   55   56 1    
   108   55   59 1    
   109   55  111 1    
   110   56   57 am   BACKBONE|DICT|INTERRES
   111   56   58 2    
   112   57  112 1    
   113   57  113 1    
   114   59   60 1    
   115   59  114 1    
   116   59  115 1    
   117   60   61 1    
   118   61  116 1    
   119   61  117 1    
@<TRIPOS>SUBSTRUCTURE
     1 UNK         1 GROUP             0       ****    0 ROOT    
