@<TRIPOS>MOLECULE
3R8
117   119    1
SMALL
USER_CHARGES


@<TRIPOS>ATOM
      1 CA         20.5995  -26.2418  -41.0681 C.3       0 UNK        -0.2013 
      2 C          19.7557  -26.2157  -42.3299 C.2       0 UNK         0.4866 
      3 O          20.2477  -26.5987  -43.3922 O.2       0 UNK        -0.5176 
      4 N          18.5064  -25.7350  -42.2245 N.am      1 UNK        -0.4884 
      5 CA         17.4551  -25.7311  -43.2616 C.3       1 UNK         0.0853 
      6 C6         17.0500  -27.1641  -43.6967 C.3       10 UNK        -0.0849 
      7 S7         16.4764  -28.2411  -42.3405 S.3       10 UNK        -0.2776 
      8 C8         15.7553  -29.6217  -43.2937 C.3       10 UNK         0.0316 
      9 C9         16.8168  -30.3883  -44.0730 C.ar      10 UNK        -0.0863 
     10 C10        17.4000  -31.5376  -43.5338 C.ar      10 UNK        -0.1009 
     11 C11        18.3959  -32.2243  -44.2349 C.ar      10 UNK        -0.0712 
     12 C12        18.8329  -31.7305  -45.4703 C.ar      10 UNK        -0.0894 
     13 C13        18.2490  -30.5879  -46.0284 C.ar      10 UNK        -0.0745 
     14 C14        17.2171  -29.9471  -45.3375 C.ar      10 UNK        -0.0972 
     15 C15        18.6989  -30.0764  -47.3951 C.3       10 UNK         0.0209 
     16 S16        18.9770  -28.2700  -47.4453 S.3       10 UNK        -0.2568 
     17 C17        20.5670  -28.1136  -46.5701 C.3       10 UNK        -0.0983 
     18 CA         21.1950  -26.7039  -46.7420 C.3       3 UNK         0.0876 
     19 N          20.3754  -25.6666  -46.1079 N.am      3 UNK        -0.4424 
     20 C          20.2803  -24.3889  -46.5027 C.2       2 UNK         0.4918 
     21 O          20.7910  -23.9612  -47.5384 O.2       2 UNK        -0.4875 
     22 CA         19.5475  -23.4051  -45.5592 C.3       2 UNK         0.0481 
     23 CB         18.6254  -22.4325  -46.3243 C.3       2 UNK        -0.1831 
     24 N          18.8532  -24.0637  -44.4413 N.am      2 UNK        -0.4498 
     25 C          17.7850  -24.8736  -44.5099 C.2       1 UNK         0.5027 
     26 O          17.0968  -24.9972  -45.5238 O.2       1 UNK        -0.4969 
     27 C          22.6299  -26.6881  -46.1700 C.2       3 UNK         0.5005 
     28 O          23.5157  -27.3072  -46.7612 O.2       3 UNK        -0.5279 
     29 N          22.8254  -26.0069  -45.0261 N.am      4 UNK        -0.4463 
     30 CA         24.0344  -25.9667  -44.1926 C.3       4 UNK         0.0283 
     31 CB         25.2273  -25.3461  -44.9501 C.3       4 UNK        -0.1875 
     32 C          24.3565  -27.3416  -43.5754 C.2       4 UNK         0.4949 
     33 O          25.5236  -27.6689  -43.3596 O.2       4 UNK        -0.5039 
     34 N          23.3034  -28.1201  -43.2939 N.am      5 UNK        -0.4663 
     35 CA         23.3777  -29.5003  -42.8114 C.3       5 UNK         0.0242 
     36 CB         22.2424  -30.2988  -43.4750 C.3       5 UNK        -0.1982 
     37 C          23.3065  -29.6078  -41.2774 C.2       5 UNK         0.5017 
     38 O          23.1405  -30.7169  -40.7701 O.2       5 UNK        -0.5012 
     39 N          23.4255  -28.4708  -40.5721 N.am      6 UNK        -0.4439 
     40 CA         23.1709  -28.2650  -39.1369 C.3       6 UNK         0.0297 
     41 CB         23.5644  -26.8262  -38.7613 C.3       6 UNK        -0.2006 
     42 C          23.8361  -29.2549  -38.1636 C.2       6 UNK         0.4892 
     43 O          23.3003  -29.4768  -37.0771 O.2       6 UNK        -0.5089 
     44 N          24.9773  -29.8320  -38.5598 N.am      7 UNK        -0.4243 
     45 CA         25.6832  -30.8743  -37.8128 C.3       7 UNK         0.0196 
     46 CB         27.0950  -31.0368  -38.3999 C.3       7 UNK        -0.2007 
     47 C          24.9507  -32.2309  -37.7961 C.2       7 UNK         0.5020 
     48 O          25.2388  -33.0447  -36.9176 O.2       7 UNK        -0.5147 
     49 N          24.0484  -32.4658  -38.7589 N.am      8 UNK        -0.4734 
     50 CA         23.3303  -33.7270  -38.9423 C.3       8 UNK         0.0238 
     51 CB         23.7583  -34.3564  -40.2793 C.3       8 UNK        -0.1912 
     52 C          21.8047  -33.5586  -38.9063 C.2       8 UNK         0.5038 
     53 O          21.1341  -34.4255  -38.3429 O.2       8 UNK        -0.5046 
     54 N          21.2699  -32.4944  -39.5189 N.am      9 UNK        -0.4200 
     55 CA         19.8295  -32.3346  -39.7732 C.3       9 UNK         0.0839 
     56 C          19.4124  -30.8631  -40.0355 C.2       9 UNK         0.5513 
     57 N          18.1153  -30.5868  -40.0648 N.am      9 UNK        -0.7519 
     58 O          20.2347  -29.9680  -40.1984 O.2       9 UNK        -0.4960 
     59 C59        19.3171  -33.3169  -40.8694 C.3       10 UNK        -0.0876 
     60 S60        20.2601  -33.2434  -42.4361 S.3       10 UNK        -0.2414 
     61 C61        18.9685  -33.5235  -43.6843 C.3       10 UNK         0.0169 
     62 H62        20.7917  -27.2749  -40.7816 H         1 UNK         0.0903 
     63 H63        20.1070  -25.7435  -40.2336 H         1 UNK         0.0903 
     64 H64        21.5532  -25.7474  -41.2469 H         1 UNK         0.0903 
     65 H65        18.1933  -25.4145  -41.3180 H         1 UNK         0.3096 
     66 H66        16.5799  -25.2611  -42.8101 H         1 UNK         0.1121 
     67 H67        16.2479  -27.1268  -44.4362 H         1 UNK         0.0849 
     68 H68        17.8991  -27.6467  -44.1827 H         1 UNK         0.0849 
     69 H69        15.2400  -30.2926  -42.6046 H         1 UNK         0.0865 
     70 H70        14.9902  -29.2412  -43.9721 H         1 UNK         0.0865 
     71 H71        17.0716  -31.8995  -42.5705 H         1 UNK         0.1346 
     72 H72        19.6117  -32.2527  -46.0090 H         1 UNK         0.1412 
     73 H73        16.7469  -29.0778  -45.7754 H         1 UNK         0.1426 
     74 H74        19.6060  -30.5859  -47.7236 H         1 UNK         0.0716 
     75 H75        17.9268  -30.3262  -48.1237 H         1 UNK         0.0716 
     76 H76        21.2380  -28.8817  -46.9601 H         1 UNK         0.0695 
     77 H77        20.4101  -28.3487  -45.5153 H         1 UNK         0.0695 
     78 H78        21.2781  -26.4925  -47.8104 H         1 UNK         0.0983 
     79 H79        19.9540  -25.9375  -45.2250 H         1 UNK         0.3095 
     80 H80        20.3319  -22.8050  -45.0962 H         1 UNK         0.0454 
     81 H81        18.1038  -21.7596  -45.6440 H         1 UNK         0.0851 
     82 H82        17.8778  -22.9578  -46.9187 H         1 UNK         0.0851 
     83 H83        19.2010  -21.8126  -47.0125 H         1 UNK         0.0851 
     84 H84        19.3327  -24.0296  -43.5518 H         1 UNK         0.2976 
     85 H85        22.0074  -25.5756  -44.6176 H         1 UNK         0.3116 
     86 H86        23.8017  -25.3080  -43.3547 H         1 UNK         0.0646 
     87 H87        24.9639  -24.3825  -45.3858 H         1 UNK         0.0847 
     88 H88        26.0698  -25.1774  -44.2783 H         1 UNK         0.0847 
     89 H89        25.5815  -25.9928  -45.7532 H         1 UNK         0.0847 
     90 H90        22.3747  -27.7586  -43.4740 H         1 UNK         0.3040 
     91 H91        24.3268  -29.9449  -43.1191 H         1 UNK         0.1015 
     92 H92        21.2601  -29.9791  -43.1222 H         1 UNK         0.0786 
     93 H93        22.3392  -31.3616  -43.2535 H         1 UNK         0.0786 
     94 H94        22.2601  -30.1966  -44.5602 H         1 UNK         0.0786 
     95 H95        23.6015  -27.6368  -41.1113 H         1 UNK         0.3172 
     96 H96        22.0941  -28.3685  -38.9937 H         1 UNK         0.0595 
     97 H97        24.6256  -26.6416  -38.9335 H         1 UNK         0.0839 
     98 H98        23.3683  -26.6295  -37.7060 H         1 UNK         0.0839 
     99 H99        22.9990  -26.0897  -39.3303 H         1 UNK         0.0839 
    100 H100       25.3405  -29.5930  -39.4710 H         1 UNK         0.2998 
    101 H101       25.7794  -30.5436  -36.7762 H         1 UNK         0.0822 
    102 H102       27.6560  -30.1032  -38.3512 H         1 UNK         0.0787 
    103 H103       27.6648  -31.7841  -37.8456 H         1 UNK         0.0787 
    104 H104       27.0639  -31.3581  -39.4419 H         1 UNK         0.0787 
    105 H105       23.8444  -31.7312  -39.4342 H         1 UNK         0.3055 
    106 H106       23.5863  -34.4289  -38.1453 H         1 UNK         0.1106 
    107 H107       24.8275  -34.5674  -40.2932 H         1 UNK         0.0828 
    108 H108       23.2388  -35.3000  -40.4523 H         1 UNK         0.0828 
    109 H109       23.5344  -33.7015  -41.1230 H         1 UNK         0.0828 
    110 H110       21.8646  -31.7971  -39.9621 H         1 UNK         0.2931 
    111 H111       19.3243  -32.5934  -38.8404 H         1 UNK         0.0412 
    112 H112       17.8270  -29.6408  -40.2612 H         1 UNK         0.3472 
    113 H113       17.4217  -31.2972  -39.8970 H         1 UNK         0.3472 
    114 H114       19.3858  -34.3404  -40.4986 H         1 UNK         0.0970 
    115 H115       18.2558  -33.1618  -41.0613 H         1 UNK         0.0970 
    116 H116       19.4029  -34.1088  -44.4961 H         1 UNK         0.0612 
    117 H117       18.1708  -34.1406  -43.2683 H         1 UNK         0.0612 
@<TRIPOS>BOND
     1    1    2 1    
     2    1   62 1    
     3    1   63 1    
     4    1   64 1    
     5    2    3 2    
     6    2    4 am   BACKBONE|DICT|INTERRES
     7    4    5 1    
     8    4   65 1    
     9    5    6 1    
    10    5   25 1    
    11    5   66 1    
    12    6    7 1    
    13    6   67 1    
    14    6   68 1    
    15    7    8 1    
    16    8    9 1    
    17    8   69 1    
    18    8   70 1    
    19    9   10 ar   
    20    9   14 ar   
    21   10   11 ar   
    22   10   71 1    
    23   11   12 ar   
    24   11   61 1    
    25   12   13 ar   
    26   12   72 1    
    27   13   14 ar   
    28   13   15 1    
    29   14   73 1    
    30   15   16 1    
    31   15   74 1    
    32   15   75 1    
    33   16   17 1    
    34   17   18 1    
    35   17   76 1    
    36   17   77 1    
    37   18   19 1    
    38   18   27 1    
    39   18   78 1    
    40   19   20 am   BACKBONE|DICT|INTERRES
    41   19   79 1    
    42   20   21 2    
    43   20   22 1    
    44   22   23 1    
    45   22   24 1    
    46   22   80 1    
    47   23   81 1    
    48   23   82 1    
    49   23   83 1    
    50   24   25 am   BACKBONE|DICT|INTERRES
    51   24   84 1    
    52   25   26 2    
    53   27   28 2    
    54   27   29 am   BACKBONE|DICT|INTERRES
    55   29   30 1    
    56   29   85 1    
    57   30   31 1    
    58   30   32 1    
    59   30   86 1    
    60   31   87 1    
    61   31   88 1    
    62   31   89 1    
    63   32   33 2    
    64   32   34 am   BACKBONE|DICT|INTERRES
    65   34   35 1    
    66   34   90 1    
    67   35   36 1    
    68   35   37 1    
    69   35   91 1    
    70   36   92 1    
    71   36   93 1    
    72   36   94 1    
    73   37   38 2    
    74   37   39 am   BACKBONE|DICT|INTERRES
    75   39   40 1    
    76   39   95 1    
    77   40   41 1    
    78   40   42 1    
    79   40   96 1    
    80   41   97 1    
    81   41   98 1    
    82   41   99 1    
    83   42   43 2    
    84   42   44 am   BACKBONE|DICT|INTERRES
    85   44   45 1    
    86   44  100 1    
    87   45   46 1    
    88   45   47 1    
    89   45  101 1    
    90   46  102 1    
    91   46  103 1    
    92   46  104 1    
    93   47   48 2    
    94   47   49 am   BACKBONE|DICT|INTERRES
    95   49   50 1    
    96   49  105 1    
    97   50   51 1    
    98   50   52 1    
    99   50  106 1    
   100   51  107 1    
   101   51  108 1    
   102   51  109 1    
   103   52   53 2    
   104   52   54 am   BACKBONE|DICT|INTERRES
   105   54   55 1    
   106   54  110 1    
   107   55   56 1    
   108   55   59 1    
   109   55  111 1    
   110   56   57 am   BACKBONE|DICT|INTERRES
   111   56   58 2    
   112   57  112 1    
   113   57  113 1    
   114   59   60 1    
   115   59  114 1    
   116   59  115 1    
   117   60   61 1    
   118   61  116 1    
   119   61  117 1    
@<TRIPOS>SUBSTRUCTURE
     1 UNK         1 GROUP             0       ****    0 ROOT    
