@<TRIPOS>MOLECULE
3R8
117   119    1
SMALL
USER_CHARGES


@<TRIPOS>ATOM
      1 CA         18.3674  -21.8307  -48.1508 C.3       0 UNK        -0.2013 
      2 C          19.1228  -22.6463  -47.1120 C.2       0 UNK         0.4866 
      3 O          19.8440  -22.0766  -46.2921 O.2       0 UNK        -0.5176 
      4 N          18.9705  -23.9763  -47.1435 N.am      1 UNK        -0.4884 
      5 CA         19.5657  -24.9055  -46.1786 C.3       1 UNK         0.0853 
      6 C6         19.5448  -26.3545  -46.7201 C.3       10 UNK        -0.0849 
      7 S7         20.7288  -27.4439  -45.8607 S.3       10 UNK        -0.2776 
      8 C8         20.5710  -28.9604  -46.8588 C.3       10 UNK         0.0316 
      9 C9         19.8130  -30.0616  -46.1286 C.ar      10 UNK        -0.0863 
     10 C10        20.4289  -31.2977  -45.9105 C.ar      10 UNK        -0.1009 
     11 C11        19.7504  -32.3261  -45.2519 C.ar      10 UNK        -0.0712 
     12 C12        18.4401  -32.1164  -44.8170 C.ar      10 UNK        -0.0894 
     13 C13        17.8085  -30.8890  -45.0341 C.ar      10 UNK        -0.0745 
     14 C14        18.4968  -29.8658  -45.6938 C.ar      10 UNK        -0.0972 
     15 C15        16.3783  -30.6851  -44.5605 C.3       10 UNK         0.0209 
     16 S16        16.2999  -30.4693  -42.7553 S.3       10 UNK        -0.2568 
     17 C17        16.8163  -28.7309  -42.5556 C.3       10 UNK        -0.0983 
     18 CA         18.3080  -28.5586  -42.1500 C.3       3 UNK         0.0876 
     19 N          18.8032  -27.2121  -42.4795 N.am      3 UNK        -0.4424 
     20 C          18.4084  -26.0638  -41.9001 C.2       2 UNK         0.4918 
     21 O          17.5455  -25.9907  -41.0253 O.2       2 UNK        -0.4875 
     22 CA         19.0979  -24.7652  -42.3551 C.3       2 UNK         0.0481 
     23 CB         20.2320  -24.3973  -41.3840 C.3       2 UNK        -0.1831 
     24 N          19.6158  -24.8240  -43.7246 N.am      2 UNK        -0.4498 
     25 C          18.8432  -24.8054  -44.8198 C.2       1 UNK         0.5027 
     26 O          17.6113  -24.7381  -44.7909 O.2       1 UNK        -0.4969 
     27 C          18.6110  -28.9089  -40.6700 C.2       3 UNK         0.5005 
     28 O          17.7252  -29.3354  -39.9256 O.2       3 UNK        -0.5279 
     29 N          19.8573  -28.6482  -40.2540 N.am      4 UNK        -0.4463 
     30 CA         20.3184  -28.7141  -38.8704 C.3       4 UNK         0.0283 
     31 CB         19.7934  -27.4994  -38.0703 C.3       4 UNK        -0.1875 
     32 C          21.8457  -28.8400  -38.8952 C.2       4 UNK         0.4949 
     33 O          22.3491  -29.9008  -39.2642 O.2       4 UNK        -0.5039 
     34 N          22.5601  -27.7642  -38.5344 N.am      5 UNK        -0.4663 
     35 CA         24.0226  -27.6787  -38.6085 C.3       5 UNK         0.0242 
     36 CB         24.5017  -26.4077  -37.8895 C.3       5 UNK        -0.1982 
     37 C          24.5427  -27.7140  -40.0555 C.2       5 UNK         0.5017 
     38 O          25.5884  -28.3131  -40.3081 O.2       5 UNK        -0.5012 
     39 N          23.7811  -27.1115  -40.9819 N.am      6 UNK        -0.4439 
     40 CA         23.9968  -27.1923  -42.4276 C.3       6 UNK         0.0297 
     41 CB         23.0014  -26.2767  -43.1562 C.3       6 UNK        -0.2006 
     42 C          23.8531  -28.6458  -42.9041 C.2       6 UNK         0.4892 
     43 O          22.8023  -29.2513  -42.6812 O.2       6 UNK        -0.5089 
     44 N          24.9414  -29.1775  -43.4792 N.am      7 UNK        -0.4243 
     45 CA         25.1491  -30.5702  -43.9039 C.3       7 UNK         0.0196 
     46 CB         24.1378  -30.9645  -45.0004 C.3       7 UNK        -0.2007 
     47 C          25.1814  -31.6006  -42.7519 C.2       7 UNK         0.5020 
     48 O          25.3039  -32.7941  -43.0280 O.2       7 UNK        -0.5147 
     49 N          25.0943  -31.1371  -41.4939 N.am      8 UNK        -0.4734 
     50 CA         25.0287  -31.9119  -40.2466 C.3       8 UNK         0.0238 
     51 CB         26.3806  -32.6013  -39.9655 C.3       8 UNK        -0.1912 
     52 C          23.8340  -32.8884  -40.1746 C.2       8 UNK         0.5038 
     53 O          23.9246  -33.9113  -39.4921 O.2       8 UNK        -0.5046 
     54 N          22.7423  -32.5633  -40.8786 N.am      9 UNK        -0.4200 
     55 CA         21.5184  -33.3764  -40.9549 C.3       9 UNK         0.0839 
     56 C          20.5927  -33.2646  -39.7111 C.2       9 UNK         0.5513 
     57 N          20.7931  -32.3103  -38.8122 N.am      9 UNK        -0.7519 
     58 O          19.6833  -34.0748  -39.5517 O.2       9 UNK        -0.4960 
     59 C59        20.7380  -33.1081  -42.2661 C.3       10 UNK        -0.0876 
     60 S60        21.7204  -33.5508  -43.7384 S.3       10 UNK        -0.2414 
     61 C61        20.4325  -33.6649  -45.0164 C.3       10 UNK         0.0169 
     62 H62        17.7801  -22.4618  -48.8176 H         1 UNK         0.0903 
     63 H63        17.6892  -21.1337  -47.6592 H         1 UNK         0.0903 
     64 H64        19.0666  -21.2555  -48.7573 H         1 UNK         0.0903 
     65 H65        18.3376  -24.3859  -47.8161 H         1 UNK         0.3096 
     66 H66        20.6075  -24.6037  -46.0440 H         1 UNK         0.1121 
     67 H67        19.8230  -26.3502  -47.7756 H         1 UNK         0.0849 
     68 H68        18.5415  -26.7822  -46.6754 H         1 UNK         0.0849 
     69 H69        20.0731  -28.7513  -47.8065 H         1 UNK         0.0865 
     70 H70        21.5766  -29.2961  -47.1171 H         1 UNK         0.0865 
     71 H71        21.4412  -31.4660  -46.2507 H         1 UNK         0.1346 
     72 H72        17.9086  -32.9070  -44.3049 H         1 UNK         0.1412 
     73 H73        18.0093  -28.9167  -45.8644 H         1 UNK         0.1426 
     74 H74        15.7841  -31.5585  -44.8334 H         1 UNK         0.0716 
     75 H75        15.9125  -29.8352  -45.0616 H         1 UNK         0.0716 
     76 H76        16.6277  -28.2108  -43.4959 H         1 UNK         0.0695 
     77 H77        16.1573  -28.2552  -41.8272 H         1 UNK         0.0695 
     78 H78        18.9010  -29.2492  -42.7528 H         1 UNK         0.0983 
     79 H79        19.5045  -27.1658  -43.2048 H         1 UNK         0.3095 
     80 H80        18.3539  -23.9666  -42.3131 H         1 UNK         0.0454 
     81 H81        20.9879  -25.1787  -41.3208 H         1 UNK         0.0851 
     82 H82        19.8423  -24.2473  -40.3761 H         1 UNK         0.0851 
     83 H83        20.7252  -23.4705  -41.6775 H         1 UNK         0.0851 
     84 H84        20.6184  -24.8664  -43.8349 H         1 UNK         0.2976 
     85 H85        20.5544  -28.3818  -40.9364 H         1 UNK         0.3116 
     86 H86        19.9316  -29.6243  -38.4086 H         1 UNK         0.0646 
     87 H87        20.0560  -26.5506  -38.5396 H         1 UNK         0.0847 
     88 H88        20.1848  -27.4952  -37.0520 H         1 UNK         0.0847 
     89 H89        18.7067  -27.5270  -37.9874 H         1 UNK         0.0847 
     90 H90        22.0689  -26.9418  -38.2148 H         1 UNK         0.3040 
     91 H91        24.4390  -28.5455  -38.0900 H         1 UNK         0.1015 
     92 H92        24.1021  -25.5037  -38.3510 H         1 UNK         0.0786 
     93 H93        25.5899  -26.3329  -37.9153 H         1 UNK         0.0786 
     94 H94        24.2045  -26.4095  -36.8405 H         1 UNK         0.0786 
     95 H95        22.9348  -26.6625  -40.6700 H         1 UNK         0.3172 
     96 H96        25.0076  -26.8354  -42.6368 H         1 UNK         0.0595 
     97 H97        23.1921  -26.2793  -44.2303 H         1 UNK         0.0839 
     98 H98        23.0837  -25.2443  -42.8161 H         1 UNK         0.0839 
     99 H99        21.9734  -26.6084  -43.0112 H         1 UNK         0.0839 
    100 H100       25.7541  -28.5828  -43.5722 H         1 UNK         0.2998 
    101 H101       26.1437  -30.5999  -44.3514 H         1 UNK         0.0822 
    102 H102       24.3587  -31.9532  -45.4045 H         1 UNK         0.0787 
    103 H103       23.1201  -30.9964  -44.6121 H         1 UNK         0.0787 
    104 H104       24.1569  -30.2612  -45.8327 H         1 UNK         0.0787 
    105 H105       25.0292  -30.1330  -41.3716 H         1 UNK         0.3055 
    106 H106       24.8586  -31.1843  -39.4511 H         1 UNK         0.1106 
    107 H107       26.3901  -33.0589  -38.9755 H         1 UNK         0.0828 
    108 H108       26.5904  -33.3891  -40.6895 H         1 UNK         0.0828 
    109 H109       27.2036  -31.8874  -39.9971 H         1 UNK         0.0828 
    110 H110       22.7398  -31.6910  -41.3889 H         1 UNK         0.2931 
    111 H111       21.8299  -34.4226  -40.9839 H         1 UNK         0.0412 
    112 H112       20.1945  -32.2614  -38.0039 H         1 UNK         0.3472 
    113 H113       21.5070  -31.6046  -38.9647 H         1 UNK         0.3472 
    114 H114       20.4469  -32.0580  -42.3348 H         1 UNK         0.0970 
    115 H115       19.8130  -33.6877  -42.2878 H         1 UNK         0.0970 
    116 H116       20.8892  -34.0053  -45.9466 H         1 UNK         0.0612 
    117 H117       19.7082  -34.4297  -44.7319 H         1 UNK         0.0612 
@<TRIPOS>BOND
     1    1    2 1    
     2    1   62 1    
     3    1   63 1    
     4    1   64 1    
     5    2    3 2    
     6    2    4 am   BACKBONE|DICT|INTERRES
     7    4    5 1    
     8    4   65 1    
     9    5    6 1    
    10    5   25 1    
    11    5   66 1    
    12    6    7 1    
    13    6   67 1    
    14    6   68 1    
    15    7    8 1    
    16    8    9 1    
    17    8   69 1    
    18    8   70 1    
    19    9   10 ar   
    20    9   14 ar   
    21   10   11 ar   
    22   10   71 1    
    23   11   12 ar   
    24   11   61 1    
    25   12   13 ar   
    26   12   72 1    
    27   13   14 ar   
    28   13   15 1    
    29   14   73 1    
    30   15   16 1    
    31   15   74 1    
    32   15   75 1    
    33   16   17 1    
    34   17   18 1    
    35   17   76 1    
    36   17   77 1    
    37   18   19 1    
    38   18   27 1    
    39   18   78 1    
    40   19   20 am   BACKBONE|DICT|INTERRES
    41   19   79 1    
    42   20   21 2    
    43   20   22 1    
    44   22   23 1    
    45   22   24 1    
    46   22   80 1    
    47   23   81 1    
    48   23   82 1    
    49   23   83 1    
    50   24   25 am   BACKBONE|DICT|INTERRES
    51   24   84 1    
    52   25   26 2    
    53   27   28 2    
    54   27   29 am   BACKBONE|DICT|INTERRES
    55   29   30 1    
    56   29   85 1    
    57   30   31 1    
    58   30   32 1    
    59   30   86 1    
    60   31   87 1    
    61   31   88 1    
    62   31   89 1    
    63   32   33 2    
    64   32   34 am   BACKBONE|DICT|INTERRES
    65   34   35 1    
    66   34   90 1    
    67   35   36 1    
    68   35   37 1    
    69   35   91 1    
    70   36   92 1    
    71   36   93 1    
    72   36   94 1    
    73   37   38 2    
    74   37   39 am   BACKBONE|DICT|INTERRES
    75   39   40 1    
    76   39   95 1    
    77   40   41 1    
    78   40   42 1    
    79   40   96 1    
    80   41   97 1    
    81   41   98 1    
    82   41   99 1    
    83   42   43 2    
    84   42   44 am   BACKBONE|DICT|INTERRES
    85   44   45 1    
    86   44  100 1    
    87   45   46 1    
    88   45   47 1    
    89   45  101 1    
    90   46  102 1    
    91   46  103 1    
    92   46  104 1    
    93   47   48 2    
    94   47   49 am   BACKBONE|DICT|INTERRES
    95   49   50 1    
    96   49  105 1    
    97   50   51 1    
    98   50   52 1    
    99   50  106 1    
   100   51  107 1    
   101   51  108 1    
   102   51  109 1    
   103   52   53 2    
   104   52   54 am   BACKBONE|DICT|INTERRES
   105   54   55 1    
   106   54  110 1    
   107   55   56 1    
   108   55   59 1    
   109   55  111 1    
   110   56   57 am   BACKBONE|DICT|INTERRES
   111   56   58 2    
   112   57  112 1    
   113   57  113 1    
   114   59   60 1    
   115   59  114 1    
   116   59  115 1    
   117   60   61 1    
   118   61  116 1    
   119   61  117 1    
@<TRIPOS>SUBSTRUCTURE
     1 UNK         1 GROUP             0       ****    0 ROOT    
