@<TRIPOS>MOLECULE
3R8
117   119    1
SMALL
USER_CHARGES


@<TRIPOS>ATOM
      1 CA         20.1328  -22.9945  -46.1787 C.3       0 UNK        -0.2013 
      2 C          20.0595  -24.4381  -45.7038 C.2       0 UNK         0.4866 
      3 O          18.9953  -24.8894  -45.2788 O.2       0 UNK        -0.5176 
      4 N          21.1861  -25.1614  -45.7805 N.am      1 UNK        -0.4884 
      5 CA         21.3383  -26.5716  -45.3961 C.3       1 UNK         0.0853 
      6 C6         20.4012  -27.4989  -46.2193 C.3       10 UNK        -0.0849 
      7 S7         21.0481  -29.1888  -46.4303 S.3       10 UNK        -0.2776 
      8 C8         19.5202  -30.0825  -46.8459 C.3       10 UNK         0.0316 
      9 C9         18.6994  -30.4217  -45.6093 C.ar      10 UNK        -0.0863 
     10 C10        18.9653  -31.5981  -44.9040 C.ar      10 UNK        -0.1009 
     11 C11        18.1747  -31.9688  -43.8131 C.ar      10 UNK        -0.0712 
     12 C12        17.1201  -31.1391  -43.4158 C.ar      10 UNK        -0.0894 
     13 C13        16.8444  -29.9541  -44.1103 C.ar      10 UNK        -0.0745 
     14 C14        17.6398  -29.6017  -45.2055 C.ar      10 UNK        -0.0972 
     15 C15        15.6250  -29.1120  -43.7474 C.3       10 UNK         0.0209 
     16 S16        15.6627  -28.4781  -42.0394 S.3       10 UNK        -0.2568 
     17 C17        16.3413  -26.7901  -42.2136 C.3       10 UNK        -0.0983 
     18 CA         17.6065  -26.6144  -41.3405 C.3       3 UNK         0.0876 
     19 N          18.7421  -27.3344  -41.9117 N.am      3 UNK        -0.4424 
     20 C          19.8011  -27.7539  -41.2135 C.2       2 UNK         0.4918 
     21 O          19.9119  -27.6308  -39.9948 O.2       2 UNK        -0.4875 
     22 CA         20.9342  -28.4148  -42.0118 C.3       2 UNK         0.0481 
     23 CB         20.7970  -29.9365  -41.9173 C.3       2 UNK        -0.1831 
     24 N          21.0085  -28.0153  -43.4223 N.am      2 UNK        -0.4498 
     25 C          21.2309  -26.7697  -43.8645 C.2       1 UNK         0.5027 
     26 O          21.3572  -25.8048  -43.1057 O.2       1 UNK        -0.4969 
     27 C          17.9259  -25.1294  -41.0444 C.2       3 UNK         0.5005 
     28 O          17.1488  -24.4979  -40.3255 O.2       3 UNK        -0.5279 
     29 N          19.0475  -24.5989  -41.5588 N.am      4 UNK        -0.4463 
     30 CA         19.5454  -23.2525  -41.2589 C.3       4 UNK         0.0283 
     31 CB         19.7311  -22.4681  -42.5662 C.3       4 UNK        -0.1875 
     32 C          20.8683  -23.2982  -40.4786 C.2       4 UNK         0.4949 
     33 O          21.0277  -22.5338  -39.5265 O.2       4 UNK        -0.5039 
     34 N          21.7924  -24.1711  -40.8979 N.am      5 UNK        -0.4663 
     35 CA         23.1317  -24.3296  -40.3366 C.3       5 UNK         0.0242 
     36 CB         24.1652  -23.8622  -41.3835 C.3       5 UNK        -0.1982 
     37 C          23.3077  -25.7868  -39.8819 C.2       5 UNK         0.5017 
     38 O          22.6814  -26.1826  -38.8986 O.2       5 UNK        -0.5012 
     39 N          24.1478  -26.5561  -40.5832 N.am      6 UNK        -0.4439 
     40 CA         24.4107  -27.9724  -40.3491 C.3       6 UNK         0.0297 
     41 CB         25.5097  -28.1395  -39.2850 C.3       6 UNK        -0.2006 
     42 C          24.8347  -28.5987  -41.6820 C.2       6 UNK         0.4892 
     43 O          25.5603  -27.9537  -42.4428 O.2       6 UNK        -0.5089 
     44 N          24.3916  -29.8364  -41.9309 N.am      7 UNK        -0.4243 
     45 CA         24.7420  -30.6307  -43.1144 C.3       7 UNK         0.0196 
     46 CB         23.9383  -30.1692  -44.3491 C.3       7 UNK        -0.2007 
     47 C          24.5989  -32.1401  -42.8435 C.2       7 UNK         0.5020 
     48 O          24.3474  -32.9046  -43.7757 O.2       7 UNK        -0.5147 
     49 N          24.7530  -32.5448  -41.5725 N.am      8 UNK        -0.4734 
     50 CA         24.7295  -33.9098  -41.0167 C.3       8 UNK         0.0238 
     51 CB         25.8799  -34.7608  -41.5907 C.3       8 UNK        -0.1912 
     52 C          23.3920  -34.6720  -41.1139 C.2       8 UNK         0.5038 
     53 O          23.0195  -35.3295  -40.1415 O.2       8 UNK        -0.5046 
     54 N          22.7145  -34.5981  -42.2661 N.am      9 UNK        -0.4200 
     55 CA         21.4859  -35.3387  -42.6160 C.3       9 UNK         0.0839 
     56 C          21.6767  -36.8838  -42.7269 C.2       9 UNK         0.5513 
     57 N          22.8934  -37.3881  -42.8969 N.am      9 UNK        -0.7519 
     58 O          20.7091  -37.6402  -42.6930 O.2       9 UNK        -0.4960 
     59 C59        20.2542  -34.9432  -41.7473 C.3       10 UNK        -0.0876 
     60 S60        19.8182  -33.1833  -41.9350 S.3       10 UNK        -0.2414 
     61 C61        18.4354  -33.2945  -43.1115 C.3       10 UNK         0.0169 
     62 H62        19.5139  -22.3537  -45.5520 H         1 UNK         0.0903 
     63 H63        21.1526  -22.6112  -46.1483 H         1 UNK         0.0903 
     64 H64        19.7672  -22.9194  -47.2023 H         1 UNK         0.0903 
     65 H65        22.0321  -24.7140  -46.1060 H         1 UNK         0.3096 
     66 H66        22.3700  -26.8232  -45.6481 H         1 UNK         0.1121 
     67 H67        19.4025  -27.5194  -45.7837 H         1 UNK         0.0849 
     68 H68        20.2709  -27.0956  -47.2250 H         1 UNK         0.0849 
     69 H69        18.9293  -29.4981  -47.5533 H         1 UNK         0.0865 
     70 H70        19.7864  -31.0021  -47.3694 H         1 UNK         0.0865 
     71 H71        19.7757  -32.2417  -45.2191 H         1 UNK         0.1346 
     72 H72        16.4931  -31.4285  -42.5834 H         1 UNK         0.1412 
     73 H73        17.4080  -28.7082  -45.7688 H         1 UNK         0.1426 
     74 H74        14.7387  -29.7387  -43.8550 H         1 UNK         0.0716 
     75 H75        15.4893  -28.2857  -44.4467 H         1 UNK         0.0716 
     76 H76        16.5541  -26.5603  -43.2592 H         1 UNK         0.0695 
     77 H77        15.5538  -26.1001  -41.9043 H         1 UNK         0.0695 
     78 H78        17.3927  -27.0528  -40.3625 H         1 UNK         0.0983 
     79 H79        18.7169  -27.5050  -42.9058 H         1 UNK         0.3095 
     80 H80        21.8700  -28.1177  -41.5447 H         1 UNK         0.0454 
     81 H81        19.8676  -30.2691  -42.3774 H         1 UNK         0.0851 
     82 H82        21.6161  -30.4598  -42.4042 H         1 UNK         0.0851 
     83 H83        20.7783  -30.2665  -40.8777 H         1 UNK         0.0851 
     84 H84        20.9062  -28.7495  -44.1128 H         1 UNK         0.2976 
     85 H85        19.6421  -25.1816  -42.1372 H         1 UNK         0.3116 
     86 H86        18.8255  -22.7057  -40.6464 H         1 UNK         0.0646 
     87 H87        20.0380  -21.4412  -42.3642 H         1 UNK         0.0847 
     88 H88        18.8031  -22.4248  -43.1364 H         1 UNK         0.0847 
     89 H89        20.4973  -22.9173  -43.1981 H         1 UNK         0.0847 
     90 H90        21.5816  -24.7755  -41.6909 H         1 UNK         0.3040 
     91 H91        23.2517  -23.7127  -39.4432 H         1 UNK         0.1015 
     92 H92        24.0407  -22.8013  -41.6017 H         1 UNK         0.0786 
     93 H93        24.0685  -24.4011  -42.3273 H         1 UNK         0.0786 
     94 H94        25.1858  -23.9932  -41.0207 H         1 UNK         0.0786 
     95 H95        24.6101  -26.1766  -41.4005 H         1 UNK         0.3172 
     96 H96        23.5007  -28.4611  -39.9955 H         1 UNK         0.0595 
     97 H97        26.4406  -27.6586  -39.5888 H         1 UNK         0.0839 
     98 H98        25.7282  -29.1933  -39.1087 H         1 UNK         0.0839 
     99 H99        25.2071  -27.7084  -38.3305 H         1 UNK         0.0839 
    100 H100       23.7802  -30.2833  -41.2619 H         1 UNK         0.2998 
    101 H101       25.8013  -30.4694  -43.3263 H         1 UNK         0.0822 
    102 H102       24.0202  -29.0944  -44.5100 H         1 UNK         0.0787 
    103 H103       24.3045  -30.6550  -45.2543 H         1 UNK         0.0787 
    104 H104       22.8815  -30.4160  -44.2624 H         1 UNK         0.0787 
    105 H105       24.9795  -31.8308  -40.8947 H         1 UNK         0.3055 
    106 H106       24.9242  -33.7895  -39.9492 H         1 UNK         0.1106 
    107 H107       25.7744  -34.9228  -42.6637 H         1 UNK         0.0828 
    108 H108       26.8466  -34.2877  -41.4180 H         1 UNK         0.0828 
    109 H109       25.9130  -35.7429  -41.1168 H         1 UNK         0.0828 
    110 H110       23.1299  -34.0380  -43.0068 H         1 UNK         0.2931 
    111 H111       21.2595  -35.0323  -43.6379 H         1 UNK         0.0412 
    112 H112       23.0071  -38.3865  -42.9792 H         1 UNK         0.3472 
    113 H113       23.6956  -36.7815  -42.9496 H         1 UNK         0.3472 
    114 H114       20.4429  -35.1468  -40.6926 H         1 UNK         0.0970 
    115 H115       19.3800  -35.5421  -42.0083 H         1 UNK         0.0970 
    116 H116       17.5428  -33.6338  -42.5839 H         1 UNK         0.0612 
    117 H117       18.6577  -34.0550  -43.8619 H         1 UNK         0.0612 
@<TRIPOS>BOND
     1    1    2 1    
     2    1   62 1    
     3    1   63 1    
     4    1   64 1    
     5    2    3 2    
     6    2    4 am   BACKBONE|DICT|INTERRES
     7    4    5 1    
     8    4   65 1    
     9    5    6 1    
    10    5   25 1    
    11    5   66 1    
    12    6    7 1    
    13    6   67 1    
    14    6   68 1    
    15    7    8 1    
    16    8    9 1    
    17    8   69 1    
    18    8   70 1    
    19    9   10 ar   
    20    9   14 ar   
    21   10   11 ar   
    22   10   71 1    
    23   11   12 ar   
    24   11   61 1    
    25   12   13 ar   
    26   12   72 1    
    27   13   14 ar   
    28   13   15 1    
    29   14   73 1    
    30   15   16 1    
    31   15   74 1    
    32   15   75 1    
    33   16   17 1    
    34   17   18 1    
    35   17   76 1    
    36   17   77 1    
    37   18   19 1    
    38   18   27 1    
    39   18   78 1    
    40   19   20 am   BACKBONE|DICT|INTERRES
    41   19   79 1    
    42   20   21 2    
    43   20   22 1    
    44   22   23 1    
    45   22   24 1    
    46   22   80 1    
    47   23   81 1    
    48   23   82 1    
    49   23   83 1    
    50   24   25 am   BACKBONE|DICT|INTERRES
    51   24   84 1    
    52   25   26 2    
    53   27   28 2    
    54   27   29 am   BACKBONE|DICT|INTERRES
    55   29   30 1    
    56   29   85 1    
    57   30   31 1    
    58   30   32 1    
    59   30   86 1    
    60   31   87 1    
    61   31   88 1    
    62   31   89 1    
    63   32   33 2    
    64   32   34 am   BACKBONE|DICT|INTERRES
    65   34   35 1    
    66   34   90 1    
    67   35   36 1    
    68   35   37 1    
    69   35   91 1    
    70   36   92 1    
    71   36   93 1    
    72   36   94 1    
    73   37   38 2    
    74   37   39 am   BACKBONE|DICT|INTERRES
    75   39   40 1    
    76   39   95 1    
    77   40   41 1    
    78   40   42 1    
    79   40   96 1    
    80   41   97 1    
    81   41   98 1    
    82   41   99 1    
    83   42   43 2    
    84   42   44 am   BACKBONE|DICT|INTERRES
    85   44   45 1    
    86   44  100 1    
    87   45   46 1    
    88   45   47 1    
    89   45  101 1    
    90   46  102 1    
    91   46  103 1    
    92   46  104 1    
    93   47   48 2    
    94   47   49 am   BACKBONE|DICT|INTERRES
    95   49   50 1    
    96   49  105 1    
    97   50   51 1    
    98   50   52 1    
    99   50  106 1    
   100   51  107 1    
   101   51  108 1    
   102   51  109 1    
   103   52   53 2    
   104   52   54 am   BACKBONE|DICT|INTERRES
   105   54   55 1    
   106   54  110 1    
   107   55   56 1    
   108   55   59 1    
   109   55  111 1    
   110   56   57 am   BACKBONE|DICT|INTERRES
   111   56   58 2    
   112   57  112 1    
   113   57  113 1    
   114   59   60 1    
   115   59  114 1    
   116   59  115 1    
   117   60   61 1    
   118   61  116 1    
   119   61  117 1    
@<TRIPOS>SUBSTRUCTURE
     1 UNK         1 GROUP             0       ****    0 ROOT    
