@<TRIPOS>MOLECULE
3R8
117   119    1
SMALL
USER_CHARGES


@<TRIPOS>ATOM
      1 CA         14.7779  -23.5002  -41.1807 C.3       0 UNK        -0.2013 
      2 C          15.4985  -24.1913  -42.3287 C.2       0 UNK         0.4866 
      3 O          15.0993  -24.0392  -43.4838 O.2       0 UNK        -0.5176 
      4 N          16.5581  -24.9441  -42.0221 N.am      1 UNK        -0.4884 
      5 CA         17.3782  -25.6854  -42.9790 C.3       1 UNK         0.0853 
      6 C6         16.7133  -26.9953  -43.4834 C.3       10 UNK        -0.0849 
      7 S7         16.0414  -28.0756  -42.1693 S.3       10 UNK        -0.2776 
      8 C8         15.0219  -29.2240  -43.1490 C.3       10 UNK         0.0316 
      9 C9         15.8667  -30.3262  -43.7705 C.ar      10 UNK        -0.0863 
     10 C10        15.9841  -31.5639  -43.1339 C.ar      10 UNK        -0.1009 
     11 C11        16.7707  -32.5781  -43.6881 C.ar      10 UNK        -0.0712 
     12 C12        17.4537  -32.3433  -44.8869 C.ar      10 UNK        -0.0894 
     13 C13        17.3512  -31.1045  -45.5291 C.ar      10 UNK        -0.0745 
     14 C14        16.5348  -30.1120  -44.9784 C.ar      10 UNK        -0.0972 
     15 C15        18.0984  -30.8355  -46.8289 C.3       10 UNK         0.0209 
     16 S16        19.2264  -29.4081  -46.6970 S.3       10 UNK        -0.2568 
     17 C17        20.7185  -30.1658  -45.9744 C.3       10 UNK        -0.0983 
     18 CA         21.7540  -29.0857  -45.5709 C.3       3 UNK         0.0876 
     19 N          21.3108  -28.3007  -44.4117 N.am      3 UNK        -0.4424 
     20 C          21.8402  -27.1293  -44.0367 C.2       2 UNK         0.4918 
     21 O          22.8067  -26.6138  -44.5992 O.2       2 UNK        -0.4875 
     22 CA         21.1552  -26.4052  -42.8709 C.3       2 UNK         0.0481 
     23 CB         21.8477  -25.0805  -42.4893 C.3       2 UNK        -0.1831 
     24 N          19.7576  -26.1715  -43.2253 N.am      2 UNK        -0.4498 
     25 C          18.7657  -25.9253  -42.3620 C.2       1 UNK         0.5027 
     26 O          18.9116  -25.8700  -41.1370 O.2       1 UNK        -0.4969 
     27 C          23.1747  -29.6741  -45.4192 C.2       3 UNK         0.5005 
     28 O          23.7948  -29.9757  -46.4406 O.2       3 UNK        -0.5279 
     29 N          23.6905  -29.7865  -44.1856 N.am      4 UNK        -0.4463 
     30 CA         25.0878  -30.1380  -43.9036 C.3       4 UNK         0.0283 
     31 CB         25.1258  -31.2997  -42.8983 C.3       4 UNK        -0.1875 
     32 C          25.8951  -28.9347  -43.3845 C.2       4 UNK         0.4949 
     33 O          27.0148  -29.1310  -42.9101 O.2       4 UNK        -0.5039 
     34 N          25.3213  -27.7217  -43.4410 N.am      5 UNK        -0.4663 
     35 CA         25.8187  -26.4353  -42.9273 C.3       5 UNK         0.0242 
     36 CB         27.1438  -26.0226  -43.5982 C.3       5 UNK        -0.1982 
     37 C          25.9205  -26.3799  -41.3925 C.2       5 UNK         0.5017 
     38 O          25.3487  -25.4801  -40.7778 O.2       5 UNK        -0.5012 
     39 N          26.6249  -27.3528  -40.8052 N.am      6 UNK        -0.4439 
     40 CA         26.7864  -27.5469  -39.3642 C.3       6 UNK         0.0297 
     41 CB         28.0790  -28.3424  -39.1176 C.3       6 UNK        -0.2006 
     42 C          25.5869  -28.2561  -38.7073 C.2       6 UNK         0.4892 
     43 O          25.5031  -28.2604  -37.4783 O.2       6 UNK        -0.5089 
     44 N          24.6939  -28.8472  -39.5112 N.am      7 UNK        -0.4243 
     45 CA         23.4907  -29.5440  -39.0676 C.3       7 UNK         0.0196 
     46 CB         23.8027  -31.0329  -38.8320 C.3       7 UNK        -0.2007 
     47 C          22.3852  -29.3665  -40.1130 C.2       7 UNK         0.5020 
     48 O          22.6823  -29.1085  -41.2847 O.2       7 UNK        -0.5147 
     49 N          21.1350  -29.5174  -39.6513 N.am      8 UNK        -0.4734 
     50 CA         19.9002  -29.3652  -40.4274 C.3       8 UNK         0.0238 
     51 CB         18.6812  -29.5690  -39.5122 C.3       8 UNK        -0.1912 
     52 C          19.8302  -30.2948  -41.6451 C.2       8 UNK         0.5038 
     53 O          19.6119  -29.8121  -42.7554 O.2       8 UNK        -0.5046 
     54 N          20.0586  -31.5898  -41.4020 N.am      9 UNK        -0.4200 
     55 CA         20.1487  -32.6330  -42.4271 C.3       9 UNK         0.0839 
     56 C          21.6254  -32.8688  -42.8190 C.2       9 UNK         0.5513 
     57 N          21.9094  -33.0530  -44.1010 N.am      9 UNK        -0.7519 
     58 O          22.5012  -32.9480  -41.9613 O.2       9 UNK        -0.4960 
     59 C59        19.5059  -33.9671  -41.9664 C.3       10 UNK        -0.0876 
     60 S60        17.7746  -33.8084  -41.4145 S.3       10 UNK        -0.2414 
     61 C61        16.8629  -33.9257  -42.9865 C.3       10 UNK         0.0169 
     62 H62        15.2374  -23.7237  -40.2180 H         1 UNK         0.0903 
     63 H63        14.7948  -22.4199  -41.3224 H         1 UNK         0.0903 
     64 H64        13.7380  -23.8233  -41.1426 H         1 UNK         0.0903 
     65 H65        16.8846  -25.0261  -41.0664 H         1 UNK         0.3096 
     66 H66        17.5394  -25.0341  -43.8416 H         1 UNK         0.1121 
     67 H67        17.4183  -27.5725  -44.0837 H         1 UNK         0.0849 
     68 H68        15.8957  -26.7350  -44.1571 H         1 UNK         0.0849 
     69 H69        14.2636  -29.6594  -42.4965 H         1 UNK         0.0865 
     70 H70        14.4757  -28.6807  -43.9216 H         1 UNK         0.0865 
     71 H71        15.4682  -31.7399  -42.1997 H         1 UNK         0.1346 
     72 H72        18.0679  -33.1228  -45.3160 H         1 UNK         0.1412 
     73 H73        16.4410  -29.1612  -45.4839 H         1 UNK         0.1426 
     74 H74        17.3678  -30.6301  -47.6124 H         1 UNK         0.0716 
     75 H75        18.6582  -31.7136  -47.1543 H         1 UNK         0.0716 
     76 H76        21.1306  -30.8481  -46.7205 H         1 UNK         0.0695 
     77 H77        20.4369  -30.7755  -45.1156 H         1 UNK         0.0695 
     78 H78        21.8340  -28.3863  -46.4066 H         1 UNK         0.0983 
     79 H79        20.5505  -28.7079  -43.8675 H         1 UNK         0.3095 
     80 H80        21.2029  -27.0688  -42.0099 H         1 UNK         0.0454 
     81 H81        21.8408  -24.3684  -43.3151 H         1 UNK         0.0851 
     82 H82        22.8873  -25.2520  -42.2104 H         1 UNK         0.0851 
     83 H83        21.3655  -24.6070  -41.6344 H         1 UNK         0.0851 
     84 H84        19.5511  -26.2202  -44.2144 H         1 UNK         0.2976 
     85 H85        23.1218  -29.5318  -43.3835 H         1 UNK         0.3116 
     86 H86        25.5946  -30.4730  -44.8104 H         1 UNK         0.0646 
     87 H87        24.5929  -31.0531  -41.9811 H         1 UNK         0.0847 
     88 H88        26.1477  -31.5649  -42.6246 H         1 UNK         0.0847 
     89 H89        24.6730  -32.1951  -43.3210 H         1 UNK         0.0847 
     90 H90        24.4059  -27.6610  -43.8743 H         1 UNK         0.3040 
     91 H91        25.0712  -25.6948  -43.2165 H         1 UNK         0.1015 
     92 H92        27.9618  -26.7005  -43.3538 H         1 UNK         0.0786 
     93 H93        27.4458  -25.0250  -43.2769 H         1 UNK         0.0786 
     94 H94        27.0445  -25.9964  -44.6834 H         1 UNK         0.0786 
     95 H95        27.0210  -28.0625  -41.4198 H         1 UNK         0.3172 
     96 H96        26.8904  -26.5694  -38.8886 H         1 UNK         0.0595 
     97 H97        28.0369  -29.3321  -39.5745 H         1 UNK         0.0839 
     98 H98        28.2552  -28.4830  -38.0502 H         1 UNK         0.0839 
     99 H99        28.9481  -27.8228  -39.5215 H         1 UNK         0.0839 
    100 H100       24.7807  -28.7455  -40.5134 H         1 UNK         0.2998 
    101 H101       23.1421  -29.0975  -38.1335 H         1 UNK         0.0822 
    102 H102       24.5797  -31.1603  -38.0780 H         1 UNK         0.0787 
    103 H103       22.9207  -31.5689  -38.4798 H         1 UNK         0.0787 
    104 H104       24.1382  -31.5270  -39.7438 H         1 UNK         0.0787 
    105 H105       21.0155  -29.7338  -38.6718 H         1 UNK         0.3055 
    106 H106       19.8628  -28.3412  -40.7955 H         1 UNK         0.1106 
    107 H107       18.6815  -30.5525  -39.0410 H         1 UNK         0.0828 
    108 H108       17.7526  -29.4816  -40.0779 H         1 UNK         0.0828 
    109 H109       18.6474  -28.8166  -38.7241 H         1 UNK         0.0828 
    110 H110       20.2915  -31.8731  -40.4627 H         1 UNK         0.2931 
    111 H111       19.6172  -32.2958  -43.3157 H         1 UNK         0.0412 
    112 H112       22.8630  -33.2400  -44.3661 H         1 UNK         0.3472 
    113 H113       21.1887  -33.0404  -44.8040 H         1 UNK         0.3472 
    114 H114       20.0723  -34.3912  -41.1348 H         1 UNK         0.0970 
    115 H115       19.5544  -34.7094  -42.7653 H         1 UNK         0.0970 
    116 H116       17.3203  -34.6778  -43.6307 H         1 UNK         0.0612 
    117 H117       15.8532  -34.2808  -42.7753 H         1 UNK         0.0612 
@<TRIPOS>BOND
     1    1    2 1    
     2    1   62 1    
     3    1   63 1    
     4    1   64 1    
     5    2    3 2    
     6    2    4 am   BACKBONE|DICT|INTERRES
     7    4    5 1    
     8    4   65 1    
     9    5    6 1    
    10    5   25 1    
    11    5   66 1    
    12    6    7 1    
    13    6   67 1    
    14    6   68 1    
    15    7    8 1    
    16    8    9 1    
    17    8   69 1    
    18    8   70 1    
    19    9   10 ar   
    20    9   14 ar   
    21   10   11 ar   
    22   10   71 1    
    23   11   12 ar   
    24   11   61 1    
    25   12   13 ar   
    26   12   72 1    
    27   13   14 ar   
    28   13   15 1    
    29   14   73 1    
    30   15   16 1    
    31   15   74 1    
    32   15   75 1    
    33   16   17 1    
    34   17   18 1    
    35   17   76 1    
    36   17   77 1    
    37   18   19 1    
    38   18   27 1    
    39   18   78 1    
    40   19   20 am   BACKBONE|DICT|INTERRES
    41   19   79 1    
    42   20   21 2    
    43   20   22 1    
    44   22   23 1    
    45   22   24 1    
    46   22   80 1    
    47   23   81 1    
    48   23   82 1    
    49   23   83 1    
    50   24   25 am   BACKBONE|DICT|INTERRES
    51   24   84 1    
    52   25   26 2    
    53   27   28 2    
    54   27   29 am   BACKBONE|DICT|INTERRES
    55   29   30 1    
    56   29   85 1    
    57   30   31 1    
    58   30   32 1    
    59   30   86 1    
    60   31   87 1    
    61   31   88 1    
    62   31   89 1    
    63   32   33 2    
    64   32   34 am   BACKBONE|DICT|INTERRES
    65   34   35 1    
    66   34   90 1    
    67   35   36 1    
    68   35   37 1    
    69   35   91 1    
    70   36   92 1    
    71   36   93 1    
    72   36   94 1    
    73   37   38 2    
    74   37   39 am   BACKBONE|DICT|INTERRES
    75   39   40 1    
    76   39   95 1    
    77   40   41 1    
    78   40   42 1    
    79   40   96 1    
    80   41   97 1    
    81   41   98 1    
    82   41   99 1    
    83   42   43 2    
    84   42   44 am   BACKBONE|DICT|INTERRES
    85   44   45 1    
    86   44  100 1    
    87   45   46 1    
    88   45   47 1    
    89   45  101 1    
    90   46  102 1    
    91   46  103 1    
    92   46  104 1    
    93   47   48 2    
    94   47   49 am   BACKBONE|DICT|INTERRES
    95   49   50 1    
    96   49  105 1    
    97   50   51 1    
    98   50   52 1    
    99   50  106 1    
   100   51  107 1    
   101   51  108 1    
   102   51  109 1    
   103   52   53 2    
   104   52   54 am   BACKBONE|DICT|INTERRES
   105   54   55 1    
   106   54  110 1    
   107   55   56 1    
   108   55   59 1    
   109   55  111 1    
   110   56   57 am   BACKBONE|DICT|INTERRES
   111   56   58 2    
   112   57  112 1    
   113   57  113 1    
   114   59   60 1    
   115   59  114 1    
   116   59  115 1    
   117   60   61 1    
   118   61  116 1    
   119   61  117 1    
@<TRIPOS>SUBSTRUCTURE
     1 UNK         1 GROUP             0       ****    0 ROOT    
