@<TRIPOS>MOLECULE
3R8
117   119    1
SMALL
USER_CHARGES


@<TRIPOS>ATOM
      1 CA         18.6923  -23.3100  -50.4366 C.3       0 UNK        -0.2013 
      2 C          19.5161  -23.7270  -49.2273 C.2       0 UNK         0.4866 
      3 O          20.4663  -23.0324  -48.8648 O.2       0 UNK        -0.5176 
      4 N          19.1658  -24.8596  -48.6047 N.am      1 UNK        -0.4884 
      5 CA         19.8027  -25.3721  -47.3875 C.3       1 UNK         0.0853 
      6 C6         19.4671  -26.8692  -47.1746 C.3       10 UNK        -0.0849 
      7 S7         20.6960  -27.7227  -46.1308 S.3       10 UNK        -0.2776 
      8 C8         20.0729  -29.4344  -46.1847 C.3       10 UNK         0.0316 
      9 C9         19.2784  -29.7830  -44.9345 C.ar      10 UNK        -0.0863 
     10 C10        19.8571  -30.5748  -43.9376 C.ar      10 UNK        -0.1009 
     11 C11        19.1422  -30.9106  -42.7838 C.ar      10 UNK        -0.0712 
     12 C12        17.8417  -30.4278  -42.6257 C.ar      10 UNK        -0.0894 
     13 C13        17.2646  -29.6005  -43.5941 C.ar      10 UNK        -0.0745 
     14 C14        17.9745  -29.3078  -44.7627 C.ar      10 UNK        -0.0972 
     15 C15        15.9102  -28.9601  -43.3319 C.3       10 UNK         0.0209 
     16 S16        15.9471  -27.9316  -41.8235 S.3       10 UNK        -0.2568 
     17 C17        16.9805  -26.5030  -42.3135 C.3       10 UNK        -0.0983 
     18 CA         18.5274  -26.7140  -42.2694 C.3       3 UNK         0.0876 
     19 N          19.2354  -25.7461  -43.1132 N.am      3 UNK        -0.4424 
     20 C          19.2682  -24.4149  -42.9514 C.2       2 UNK         0.4918 
     21 O          18.6729  -23.8112  -42.0579 O.2       2 UNK        -0.4875 
     22 CA         20.0961  -23.6065  -43.9702 C.3       2 UNK         0.0481 
     23 CB         21.4448  -23.1852  -43.3647 C.3       2 UNK        -0.1831 
     24 N          20.3295  -24.3180  -45.2320 N.am      2 UNK        -0.4498 
     25 C          19.3893  -24.5278  -46.1641 C.2       1 UNK         0.5027 
     26 O          18.2289  -24.1177  -46.0711 O.2       1 UNK        -0.4969 
     27 C          19.1548  -26.8256  -40.8582 C.2       3 UNK         0.5005 
     28 O          20.2880  -26.3816  -40.6494 O.2       3 UNK        -0.5279 
     29 N          18.4414  -27.4741  -39.9282 N.am      4 UNK        -0.4463 
     30 CA         18.8518  -27.8029  -38.5596 C.3       4 UNK         0.0283 
     31 CB         18.9396  -26.5273  -37.6912 C.3       4 UNK        -0.1875 
     32 C          20.1308  -28.6635  -38.5376 C.2       4 UNK         0.4949 
     33 O          20.0453  -29.8693  -38.7674 O.2       4 UNK        -0.5039 
     34 N          21.2815  -28.0365  -38.2640 N.am      5 UNK        -0.4663 
     35 CA         22.5966  -28.6779  -38.2027 C.3       5 UNK         0.0242 
     36 CB         23.4701  -27.9031  -37.2012 C.3       5 UNK        -0.1982 
     37 C          23.3047  -28.7800  -39.5677 C.2       5 UNK         0.5017 
     38 O          24.3546  -29.4235  -39.6353 O.2       5 UNK        -0.5012 
     39 N          22.7608  -28.1367  -40.6144 N.am      6 UNK        -0.4439 
     40 CA         23.3185  -28.1139  -41.9734 C.3       6 UNK         0.0297 
     41 CB         22.4166  -27.2666  -42.8808 C.3       6 UNK        -0.2006 
     42 C          23.4939  -29.5142  -42.5846 C.2       6 UNK         0.4892 
     43 O          22.7173  -30.4175  -42.2801 O.2       6 UNK        -0.5089 
     44 N          24.5234  -29.6644  -43.4299 N.am      7 UNK        -0.4243 
     45 CA         24.9042  -30.8846  -44.1618 C.3       7 UNK         0.0196 
     46 CB         23.8161  -31.2612  -45.1896 C.3       7 UNK        -0.2007 
     47 C          25.2908  -32.0928  -43.2782 C.2       7 UNK         0.5020 
     48 O          25.4906  -33.1819  -43.8185 O.2       7 UNK        -0.5147 
     49 N          25.4160  -31.8830  -41.9577 N.am      8 UNK        -0.4734 
     50 CA         25.7490  -32.8637  -40.9203 C.3       8 UNK         0.0238 
     51 CB         27.2165  -33.3266  -41.0614 C.3       8 UNK        -0.1912 
     52 C          24.7473  -34.0353  -40.8551 C.2       8 UNK         0.5038 
     53 O          25.1608  -35.1967  -40.8918 O.2       8 UNK        -0.5046 
     54 N          23.4485  -33.7112  -40.7493 N.am      9 UNK        -0.4200 
     55 CA         22.3586  -34.6914  -40.5623 C.3       9 UNK         0.0839 
     56 C          22.4546  -35.5416  -39.2591 C.2       9 UNK         0.5513 
     57 N          23.1468  -35.0894  -38.2194 N.am      9 UNK        -0.7519 
     58 O          21.8851  -36.6286  -39.1929 O.2       9 UNK        -0.4960 
     59 C59        20.9518  -34.0426  -40.6439 C.3       10 UNK        -0.0876 
     60 S60        20.5834  -33.2581  -42.2488 S.3       10 UNK        -0.2414 
     61 C61        19.7815  -31.7280  -41.6671 C.3       10 UNK         0.0169 
     62 H62        18.2565  -22.3251  -50.2714 H         1 UNK         0.0903 
     63 H63        19.3252  -23.2589  -51.3221 H         1 UNK         0.0903 
     64 H64        17.8813  -24.0094  -50.6393 H         1 UNK         0.0903 
     65 H65        18.3544  -25.3693  -48.9249 H         1 UNK         0.3096 
     66 H66        20.8823  -25.2747  -47.5273 H         1 UNK         0.1121 
     67 H67        19.4606  -27.3835  -48.1374 H         1 UNK         0.0849 
     68 H68        18.4660  -26.9968  -46.7599 H         1 UNK         0.0849 
     69 H69        19.4585  -29.5934  -47.0720 H         1 UNK         0.0865 
     70 H70        20.9250  -30.1080  -46.2880 H         1 UNK         0.0865 
     71 H71        20.8714  -30.9276  -44.0511 H         1 UNK         0.1346 
     72 H72        17.2926  -30.6496  -41.7206 H         1 UNK         0.1412 
     73 H73        17.5277  -28.6772  -45.5178 H         1 UNK         0.1426 
     74 H74        15.1641  -29.7461  -43.2079 H         1 UNK         0.0716 
     75 H75        15.5855  -28.3529  -44.1784 H         1 UNK         0.0716 
     76 H76        16.7000  -25.6556  -41.6857 H         1 UNK         0.0695 
     77 H77        16.6791  -26.2255  -43.3251 H         1 UNK         0.0695 
     78 H78        18.7595  -27.6699  -42.7290 H         1 UNK         0.0983 
     79 H79        19.7773  -26.1406  -43.8677 H         1 UNK         0.3095 
     80 H80        19.5341  -22.6969  -44.1927 H         1 UNK         0.0454 
     81 H81        22.0831  -24.0422  -43.1526 H         1 UNK         0.0851 
     82 H82        21.3001  -22.6485  -42.4260 H         1 UNK         0.0851 
     83 H83        21.9890  -22.5194  -44.0345 H         1 UNK         0.0851 
     84 H84        21.2572  -24.6902  -45.3801 H         1 UNK         0.2976 
     85 H85        17.5364  -27.8304  -40.2135 H         1 UNK         0.3116 
     86 H86        18.0593  -28.4256  -38.1418 H         1 UNK         0.0646 
     87 H87        19.6453  -25.7966  -38.0867 H         1 UNK         0.0847 
     88 H88        19.2466  -26.7665  -36.6721 H         1 UNK         0.0847 
     89 H89        17.9687  -26.0367  -37.6241 H         1 UNK         0.0847 
     90 H90        21.2574  -27.0343  -38.1380 H         1 UNK         0.3040 
     91 H91        22.4774  -29.6980  -37.8303 H         1 UNK         0.1015 
     92 H92        23.6393  -26.8751  -37.5239 H         1 UNK         0.0786 
     93 H93        24.4478  -28.3734  -37.0870 H         1 UNK         0.0786 
     94 H94        23.0107  -27.8746  -36.2129 H         1 UNK         0.0786 
     95 H95        21.8923  -27.6297  -40.4730 H         1 UNK         0.3172 
     96 H96        24.2978  -27.6354  -41.9103 H         1 UNK         0.0595 
     97 H97        22.8477  -27.1605  -43.8770 H         1 UNK         0.0839 
     98 H98        22.2788  -26.2650  -42.4770 H         1 UNK         0.0839 
     99 H99        21.4338  -27.7246  -42.9986 H         1 UNK         0.0839 
    100 H100       25.1180  -28.8635  -43.5954 H         1 UNK         0.2998 
    101 H101       25.8054  -30.6249  -44.7192 H         1 UNK         0.0822 
    102 H102       24.1799  -32.0200  -45.8833 H         1 UNK         0.0787 
    103 H103       22.9313  -31.6708  -44.7030 H         1 UNK         0.0787 
    104 H104       23.5094  -30.3998  -45.7830 H         1 UNK         0.0787 
    105 H105       25.1879  -30.9576  -41.6171 H         1 UNK         0.3055 
    106 H106       25.6631  -32.3407  -39.9654 H         1 UNK         0.1106 
    107 H107       27.5023  -33.9756  -40.2327 H         1 UNK         0.0828 
    108 H108       27.3799  -33.8870  -41.9831 H         1 UNK         0.0828 
    109 H109       27.9024  -32.4792  -41.0580 H         1 UNK         0.0828 
    110 H110       23.1781  -32.7384  -40.7923 H         1 UNK         0.2931 
    111 H111       22.4385  -35.3997  -41.3900 H         1 UNK         0.0412 
    112 H112       23.6109  -34.1960  -38.2595 H         1 UNK         0.3472 
    113 H113       23.2026  -35.6497  -37.3830 H         1 UNK         0.3472 
    114 H114       20.8382  -33.3104  -39.8407 H         1 UNK         0.0970 
    115 H115       20.1737  -34.7916  -40.4764 H         1 UNK         0.0970 
    116 H116       19.0303  -31.9960  -40.9224 H         1 UNK         0.0612 
    117 H117       20.5145  -31.1085  -41.1508 H         1 UNK         0.0612 
@<TRIPOS>BOND
     1    1    2 1    
     2    1   62 1    
     3    1   63 1    
     4    1   64 1    
     5    2    3 2    
     6    2    4 am   BACKBONE|DICT|INTERRES
     7    4    5 1    
     8    4   65 1    
     9    5    6 1    
    10    5   25 1    
    11    5   66 1    
    12    6    7 1    
    13    6   67 1    
    14    6   68 1    
    15    7    8 1    
    16    8    9 1    
    17    8   69 1    
    18    8   70 1    
    19    9   10 ar   
    20    9   14 ar   
    21   10   11 ar   
    22   10   71 1    
    23   11   12 ar   
    24   11   61 1    
    25   12   13 ar   
    26   12   72 1    
    27   13   14 ar   
    28   13   15 1    
    29   14   73 1    
    30   15   16 1    
    31   15   74 1    
    32   15   75 1    
    33   16   17 1    
    34   17   18 1    
    35   17   76 1    
    36   17   77 1    
    37   18   19 1    
    38   18   27 1    
    39   18   78 1    
    40   19   20 am   BACKBONE|DICT|INTERRES
    41   19   79 1    
    42   20   21 2    
    43   20   22 1    
    44   22   23 1    
    45   22   24 1    
    46   22   80 1    
    47   23   81 1    
    48   23   82 1    
    49   23   83 1    
    50   24   25 am   BACKBONE|DICT|INTERRES
    51   24   84 1    
    52   25   26 2    
    53   27   28 2    
    54   27   29 am   BACKBONE|DICT|INTERRES
    55   29   30 1    
    56   29   85 1    
    57   30   31 1    
    58   30   32 1    
    59   30   86 1    
    60   31   87 1    
    61   31   88 1    
    62   31   89 1    
    63   32   33 2    
    64   32   34 am   BACKBONE|DICT|INTERRES
    65   34   35 1    
    66   34   90 1    
    67   35   36 1    
    68   35   37 1    
    69   35   91 1    
    70   36   92 1    
    71   36   93 1    
    72   36   94 1    
    73   37   38 2    
    74   37   39 am   BACKBONE|DICT|INTERRES
    75   39   40 1    
    76   39   95 1    
    77   40   41 1    
    78   40   42 1    
    79   40   96 1    
    80   41   97 1    
    81   41   98 1    
    82   41   99 1    
    83   42   43 2    
    84   42   44 am   BACKBONE|DICT|INTERRES
    85   44   45 1    
    86   44  100 1    
    87   45   46 1    
    88   45   47 1    
    89   45  101 1    
    90   46  102 1    
    91   46  103 1    
    92   46  104 1    
    93   47   48 2    
    94   47   49 am   BACKBONE|DICT|INTERRES
    95   49   50 1    
    96   49  105 1    
    97   50   51 1    
    98   50   52 1    
    99   50  106 1    
   100   51  107 1    
   101   51  108 1    
   102   51  109 1    
   103   52   53 2    
   104   52   54 am   BACKBONE|DICT|INTERRES
   105   54   55 1    
   106   54  110 1    
   107   55   56 1    
   108   55   59 1    
   109   55  111 1    
   110   56   57 am   BACKBONE|DICT|INTERRES
   111   56   58 2    
   112   57  112 1    
   113   57  113 1    
   114   59   60 1    
   115   59  114 1    
   116   59  115 1    
   117   60   61 1    
   118   61  116 1    
   119   61  117 1    
@<TRIPOS>SUBSTRUCTURE
     1 UNK         1 GROUP             0       ****    0 ROOT    
