@<TRIPOS>MOLECULE
3R8
117   119    1
SMALL
USER_CHARGES


@<TRIPOS>ATOM
      1 CA         15.1849  -23.4813  -48.2828 C.3       0 UNK        -0.2013 
      2 C          16.2578  -24.5593  -48.3169 C.2       0 UNK         0.4866 
      3 O          17.0268  -24.6283  -49.2758 O.2       0 UNK        -0.5176 
      4 N          16.3159  -25.4024  -47.2778 N.am      1 UNK        -0.4884 
      5 CA         17.2677  -26.5161  -47.1552 C.3       1 UNK         0.0853 
      6 C6         16.8818  -27.4896  -46.0139 C.3       10 UNK        -0.0849 
      7 S7         15.1802  -28.1350  -46.0988 S.3       10 UNK        -0.2776 
      8 C8         15.3783  -29.7587  -45.2840 C.3       10 UNK         0.0316 
      9 C9         16.1774  -29.6893  -43.9840 C.ar      10 UNK        -0.0863 
     10 C10        17.3392  -30.4547  -43.8342 C.ar      10 UNK        -0.1009 
     11 C11        18.0710  -30.4122  -42.6436 C.ar      10 UNK        -0.0712 
     12 C12        17.6400  -29.5891  -41.6009 C.ar      10 UNK        -0.0894 
     13 C13        16.4979  -28.7951  -41.7467 C.ar      10 UNK        -0.0745 
     14 C14        15.7624  -28.8623  -42.9345 C.ar      10 UNK        -0.0972 
     15 C15        16.0454  -27.8770  -40.6180 C.3       10 UNK         0.0209 
     16 S16        17.3764  -26.7877  -40.0099 S.3       10 UNK        -0.2568 
     17 C17        17.7288  -25.7346  -41.4623 C.3       10 UNK        -0.0983 
     18 CA         19.0673  -26.0592  -42.1790 C.3       3 UNK         0.0876 
     19 N          19.2019  -25.2599  -43.4012 N.am      3 UNK        -0.4424 
     20 C          20.2146  -25.3001  -44.2814 C.2       2 UNK         0.4918 
     21 O          21.1972  -26.0366  -44.1833 O.2       2 UNK        -0.4875 
     22 CA         20.0297  -24.4037  -45.5220 C.3       2 UNK         0.0481 
     23 CB         21.2953  -24.2902  -46.3993 C.3       2 UNK        -0.1831 
     24 N          18.8621  -24.8637  -46.2847 N.am      2 UNK        -0.4498 
     25 C          18.7149  -26.0538  -46.8920 C.2       1 UNK         0.5027 
     26 O          19.6417  -26.8172  -47.1653 O.2       1 UNK        -0.4969 
     27 C          20.2879  -25.8838  -41.2479 C.2       3 UNK         0.5005 
     28 O          20.6882  -24.7510  -40.9648 O.2       3 UNK        -0.5279 
     29 N          20.8388  -27.0117  -40.7923 N.am      4 UNK        -0.4463 
     30 CA         21.9948  -27.1386  -39.9142 C.3       4 UNK         0.0283 
     31 CB         23.2896  -26.7753  -40.6728 C.3       4 UNK        -0.1875 
     32 C          22.0345  -28.5883  -39.4125 C.2       4 UNK         0.4949 
     33 O          21.2345  -29.4132  -39.8623 O.2       4 UNK        -0.5039 
     34 N          22.9792  -28.8732  -38.5136 N.am      5 UNK        -0.4663 
     35 CA         23.3499  -30.2201  -38.0863 C.3       5 UNK         0.0242 
     36 CB         23.1016  -30.3632  -36.5761 C.3       5 UNK        -0.1982 
     37 C          24.8348  -30.4148  -38.4124 C.2       5 UNK         0.5017 
     38 O          25.5965  -29.4451  -38.3507 O.2       5 UNK        -0.5012 
     39 N          25.2164  -31.6474  -38.7729 N.am      6 UNK        -0.4439 
     40 CA         26.5458  -32.1072  -39.2103 C.3       6 UNK         0.0297 
     41 CB         27.6226  -31.8777  -38.1313 C.3       6 UNK        -0.2006 
     42 C          26.9844  -31.5409  -40.5746 C.2       6 UNK         0.4892 
     43 O          27.3986  -32.3116  -41.4407 O.2       6 UNK        -0.5089 
     44 N          26.8506  -30.2210  -40.7588 N.am      7 UNK        -0.4243 
     45 CA         27.0220  -29.5180  -42.0340 C.3       7 UNK         0.0196 
     46 CB         27.1357  -28.0093  -41.7630 C.3       7 UNK        -0.2007 
     47 C          25.8804  -29.8033  -43.0292 C.2       7 UNK         0.5020 
     48 O          26.0766  -29.6538  -44.2351 O.2       7 UNK        -0.5147 
     49 N          24.7219  -30.2226  -42.5104 N.am      8 UNK        -0.4734 
     50 CA         23.5717  -30.7274  -43.2499 C.3       8 UNK         0.0238 
     51 CB         22.5615  -29.5883  -43.4749 C.3       8 UNK        -0.1912 
     52 C          22.9679  -31.8677  -42.4177 C.2       8 UNK         0.5038 
     53 O          23.1803  -31.9030  -41.2017 O.2       8 UNK        -0.5046 
     54 N          22.2416  -32.7791  -43.0800 N.am      9 UNK        -0.4200 
     55 CA         21.6183  -33.9778  -42.4813 C.3       9 UNK         0.0839 
     56 C          22.6334  -35.0183  -41.9070 C.2       9 UNK         0.5513 
     57 N          23.9049  -34.9830  -42.2885 N.am      9 UNK        -0.7519 
     58 O          22.2622  -35.8976  -41.1336 O.2       9 UNK        -0.4960 
     59 C59        20.4738  -33.6267  -41.4811 C.3       10 UNK        -0.0876 
     60 S60        18.9647  -33.0073  -42.2997 S.3       10 UNK        -0.2414 
     61 C61        19.3367  -31.2393  -42.4860 C.3       10 UNK         0.0169 
     62 H62        14.5764  -23.5390  -47.3804 H         1 UNK         0.0903 
     63 H63        15.6438  -22.4936  -48.3199 H         1 UNK         0.0903 
     64 H64        14.5244  -23.5826  -49.1435 H         1 UNK         0.0903 
     65 H65        15.6347  -25.3283  -46.5346 H         1 UNK         0.3096 
     66 H66        17.2670  -27.0682  -48.0980 H         1 UNK         0.1121 
     67 H67        16.9978  -27.0101  -45.0390 H         1 UNK         0.0849 
     68 H68        17.5683  -28.3395  -46.0141 H         1 UNK         0.0849 
     69 H69        14.3912  -30.1726  -45.0736 H         1 UNK         0.0865 
     70 H70        15.8510  -30.4436  -45.9898 H         1 UNK         0.0865 
     71 H71        17.6746  -31.0939  -44.6397 H         1 UNK         0.1346 
     72 H72        18.2031  -29.5535  -40.6777 H         1 UNK         0.1412 
     73 H73        14.8696  -28.2630  -43.0519 H         1 UNK         0.1426 
     74 H74        15.6904  -28.4916  -39.7899 H         1 UNK         0.0716 
     75 H75        15.2003  -27.2605  -40.9286 H         1 UNK         0.0716 
     76 H76        17.7214  -24.6946  -41.1305 H         1 UNK         0.0695 
     77 H77        16.9004  -25.8273  -42.1666 H         1 UNK         0.0695 
     78 H78        19.0309  -27.1014  -42.5038 H         1 UNK         0.0983 
     79 H79        18.4561  -24.6027  -43.5717 H         1 UNK         0.3095 
     80 H80        19.7930  -23.4014  -45.1617 H         1 UNK         0.0454 
     81 H81        21.1153  -23.6684  -47.2759 H         1 UNK         0.0851 
     82 H82        21.6519  -25.2607  -46.7443 H         1 UNK         0.0851 
     83 H83        22.1109  -23.8334  -45.8379 H         1 UNK         0.0851 
     84 H84        18.0192  -24.3210  -46.1576 H         1 UNK         0.2976 
     85 H85        20.4162  -27.9076  -41.0082 H         1 UNK         0.3116 
     86 H86        21.8640  -26.4762  -39.0563 H         1 UNK         0.0646 
     87 H87        23.4622  -27.4417  -41.5186 H         1 UNK         0.0847 
     88 H88        24.1625  -26.8402  -40.0228 H         1 UNK         0.0847 
     89 H89        23.2580  -25.7559  -41.0571 H         1 UNK         0.0847 
     90 H90        23.6343  -28.1511  -38.2433 H         1 UNK         0.3040 
     91 H91        22.7661  -30.9729  -38.6218 H         1 UNK         0.1015 
     92 H92        23.6880  -29.6466  -35.9994 H         1 UNK         0.0786 
     93 H93        23.3705  -31.3616  -36.2284 H         1 UNK         0.0786 
     94 H94        22.0502  -30.2074  -36.3335 H         1 UNK         0.0786 
     95 H95        24.4892  -32.3466  -38.8514 H         1 UNK         0.3172 
     96 H96        26.4469  -33.1862  -39.3408 H         1 UNK         0.0595 
     97 H97        27.8113  -30.8187  -37.9537 H         1 UNK         0.0839 
     98 H98        28.5707  -32.3266  -38.4302 H         1 UNK         0.0839 
     99 H99        27.3353  -32.3304  -37.1823 H         1 UNK         0.0839 
    100 H100       26.5065  -29.6792  -39.9695 H         1 UNK         0.2998 
    101 H101       27.9527  -29.8593  -42.4924 H         1 UNK         0.0822 
    102 H102       27.9828  -27.7858  -41.1142 H         1 UNK         0.0787 
    103 H103       27.2840  -27.4557  -42.6912 H         1 UNK         0.0787 
    104 H104       26.2364  -27.6160  -41.2883 H         1 UNK         0.0787 
    105 H105       24.6665  -30.3906  -41.5137 H         1 UNK         0.3055 
    106 H106       23.9018  -31.1264  -44.2119 H         1 UNK         0.1106 
    107 H107       21.7741  -29.8942  -44.1630 H         1 UNK         0.0828 
    108 H108       22.0848  -29.2791  -42.5445 H         1 UNK         0.0828 
    109 H109       23.0385  -28.7104  -43.9115 H         1 UNK         0.0828 
    110 H110       22.1292  -32.6867  -44.0792 H         1 UNK         0.2931 
    111 H111       21.1598  -34.5068  -43.3176 H         1 UNK         0.0412 
    112 H112       24.2290  -34.2809  -42.9334 H         1 UNK         0.3472 
    113 H113       24.5477  -35.6678  -41.9228 H         1 UNK         0.3472 
    114 H114       20.8076  -32.9191  -40.7210 H         1 UNK         0.0970 
    115 H115       20.1578  -34.5125  -40.9280 H         1 UNK         0.0970 
    116 H116       19.9160  -30.8925  -41.6299 H         1 UNK         0.0612 
    117 H117       19.9642  -31.1037  -43.3655 H         1 UNK         0.0612 
@<TRIPOS>BOND
     1    1    2 1    
     2    1   62 1    
     3    1   63 1    
     4    1   64 1    
     5    2    3 2    
     6    2    4 am   BACKBONE|DICT|INTERRES
     7    4    5 1    
     8    4   65 1    
     9    5    6 1    
    10    5   25 1    
    11    5   66 1    
    12    6    7 1    
    13    6   67 1    
    14    6   68 1    
    15    7    8 1    
    16    8    9 1    
    17    8   69 1    
    18    8   70 1    
    19    9   10 ar   
    20    9   14 ar   
    21   10   11 ar   
    22   10   71 1    
    23   11   12 ar   
    24   11   61 1    
    25   12   13 ar   
    26   12   72 1    
    27   13   14 ar   
    28   13   15 1    
    29   14   73 1    
    30   15   16 1    
    31   15   74 1    
    32   15   75 1    
    33   16   17 1    
    34   17   18 1    
    35   17   76 1    
    36   17   77 1    
    37   18   19 1    
    38   18   27 1    
    39   18   78 1    
    40   19   20 am   BACKBONE|DICT|INTERRES
    41   19   79 1    
    42   20   21 2    
    43   20   22 1    
    44   22   23 1    
    45   22   24 1    
    46   22   80 1    
    47   23   81 1    
    48   23   82 1    
    49   23   83 1    
    50   24   25 am   BACKBONE|DICT|INTERRES
    51   24   84 1    
    52   25   26 2    
    53   27   28 2    
    54   27   29 am   BACKBONE|DICT|INTERRES
    55   29   30 1    
    56   29   85 1    
    57   30   31 1    
    58   30   32 1    
    59   30   86 1    
    60   31   87 1    
    61   31   88 1    
    62   31   89 1    
    63   32   33 2    
    64   32   34 am   BACKBONE|DICT|INTERRES
    65   34   35 1    
    66   34   90 1    
    67   35   36 1    
    68   35   37 1    
    69   35   91 1    
    70   36   92 1    
    71   36   93 1    
    72   36   94 1    
    73   37   38 2    
    74   37   39 am   BACKBONE|DICT|INTERRES
    75   39   40 1    
    76   39   95 1    
    77   40   41 1    
    78   40   42 1    
    79   40   96 1    
    80   41   97 1    
    81   41   98 1    
    82   41   99 1    
    83   42   43 2    
    84   42   44 am   BACKBONE|DICT|INTERRES
    85   44   45 1    
    86   44  100 1    
    87   45   46 1    
    88   45   47 1    
    89   45  101 1    
    90   46  102 1    
    91   46  103 1    
    92   46  104 1    
    93   47   48 2    
    94   47   49 am   BACKBONE|DICT|INTERRES
    95   49   50 1    
    96   49  105 1    
    97   50   51 1    
    98   50   52 1    
    99   50  106 1    
   100   51  107 1    
   101   51  108 1    
   102   51  109 1    
   103   52   53 2    
   104   52   54 am   BACKBONE|DICT|INTERRES
   105   54   55 1    
   106   54  110 1    
   107   55   56 1    
   108   55   59 1    
   109   55  111 1    
   110   56   57 am   BACKBONE|DICT|INTERRES
   111   56   58 2    
   112   57  112 1    
   113   57  113 1    
   114   59   60 1    
   115   59  114 1    
   116   59  115 1    
   117   60   61 1    
   118   61  116 1    
   119   61  117 1    
@<TRIPOS>SUBSTRUCTURE
     1 UNK         1 GROUP             0       ****    0 ROOT    
