@<TRIPOS>MOLECULE
3R8
117   119    1
SMALL
USER_CHARGES


@<TRIPOS>ATOM
      1 CA         14.8453  -22.4149  -44.1797 C.3       0 UNK        -0.2013 
      2 C          15.7250  -23.4765  -43.5365 C.2       0 UNK         0.4866 
      3 O          16.0192  -23.3822  -42.3449 O.2       0 UNK        -0.5176 
      4 N          16.1504  -24.4770  -44.3220 N.am      1 UNK        -0.4884 
      5 CA         16.9830  -25.6219  -43.9119 C.3       1 UNK         0.0853 
      6 C6         16.2815  -26.5679  -42.8963 C.3       10 UNK        -0.0849 
      7 S7         14.8041  -27.3470  -43.6357 S.3       10 UNK        -0.2776 
      8 C8         15.1197  -29.1285  -43.3674 C.3       10 UNK         0.0316 
      9 C9         16.4243  -29.6606  -43.9637 C.ar      10 UNK        -0.0863 
     10 C10        17.0972  -30.6948  -43.3052 C.ar      10 UNK        -0.1009 
     11 C11        18.2838  -31.2242  -43.8218 C.ar      10 UNK        -0.0712 
     12 C12        18.8126  -30.6993  -45.0044 C.ar      10 UNK        -0.0894 
     13 C13        18.1435  -29.6771  -45.6849 C.ar      10 UNK        -0.0745 
     14 C14        16.9461  -29.1719  -45.1676 C.ar      10 UNK        -0.0972 
     15 C15        18.6885  -29.1414  -47.0008 C.3       10 UNK         0.0209 
     16 S16        19.4242  -27.4893  -46.8108 S.3       10 UNK        -0.2568 
     17 C17        21.0015  -27.8854  -45.9842 C.3       10 UNK        -0.0983 
     18 CA         21.8472  -26.6094  -45.7455 C.3       3 UNK         0.0876 
     19 N          21.1503  -25.6887  -44.8506 N.am      3 UNK        -0.4424 
     20 C          21.2271  -24.3561  -44.8708 C.2       2 UNK         0.4918 
     21 O          21.9455  -23.7229  -45.6466 O.2       2 UNK        -0.4875 
     22 CA         20.2946  -23.6184  -43.8857 C.3       2 UNK         0.0481 
     23 CB         20.3241  -22.0900  -44.0702 C.3       2 UNK        -0.1831 
     24 N          18.9101  -24.0881  -44.0174 N.am      2 UNK        -0.4498 
     25 C          18.4115  -25.2141  -43.4839 C.2       1 UNK         0.5027 
     26 O          19.0688  -25.9468  -42.7425 O.2       1 UNK        -0.4969 
     27 C          23.2328  -26.9559  -45.1718 C.2       3 UNK         0.5005 
     28 O          23.4703  -26.7752  -43.9743 O.2       3 UNK        -0.5279 
     29 N          24.1154  -27.4882  -46.0306 N.am      4 UNK        -0.4463 
     30 CA         25.5069  -27.8491  -45.7193 C.3       4 UNK         0.0283 
     31 CB         26.1993  -28.3393  -47.0017 C.3       4 UNK        -0.1875 
     32 C          25.6814  -28.8839  -44.5899 C.2       4 UNK         0.4949 
     33 O          26.7473  -28.9259  -43.9755 O.2       4 UNK        -0.5039 
     34 N          24.6379  -29.6814  -44.3218 N.am      5 UNK        -0.4663 
     35 CA         24.5640  -30.6043  -43.1864 C.3       5 UNK         0.0242 
     36 CB         23.3677  -31.5509  -43.3848 C.3       5 UNK        -0.1982 
     37 C          24.4534  -29.8941  -41.8237 C.2       5 UNK         0.5017 
     38 O          24.8111  -30.4968  -40.8119 O.2       5 UNK        -0.5012 
     39 N          23.9572  -28.6456  -41.8098 N.am      6 UNK        -0.4439 
     40 CA         23.6474  -27.8374  -40.6266 C.3       6 UNK         0.0297 
     41 CB         24.9484  -27.3688  -39.9343 C.3       6 UNK        -0.2006 
     42 C          22.6536  -28.5715  -39.7030 C.2       6 UNK         0.4892 
     43 O          21.5791  -28.9542  -40.1669 O.2       6 UNK        -0.5089 
     44 N          23.0253  -28.7738  -38.4330 N.am      7 UNK        -0.4243 
     45 CA         22.2610  -29.5625  -37.4644 C.3       7 UNK         0.0196 
     46 CB         22.6058  -29.0747  -36.0472 C.3       7 UNK        -0.2007 
     47 C          22.5146  -31.0776  -37.5846 C.2       7 UNK         0.5020 
     48 O          21.7461  -31.8565  -37.0208 O.2       7 UNK        -0.5147 
     49 N          23.5760  -31.4866  -38.2936 N.am      8 UNK        -0.4734 
     50 CA         24.0216  -32.8764  -38.4213 C.3       8 UNK         0.0238 
     51 CB         25.5620  -32.9084  -38.4455 C.3       8 UNK        -0.1912 
     52 C          23.3918  -33.5722  -39.6423 C.2       8 UNK         0.5038 
     53 O          24.1003  -34.2159  -40.4193 O.2       8 UNK        -0.5046 
     54 N          22.0679  -33.4396  -39.7851 N.am      9 UNK        -0.4200 
     55 CA         21.2475  -34.1743  -40.7581 C.3       9 UNK         0.0839 
     56 C          21.2637  -35.7063  -40.4959 C.2       9 UNK         0.5513 
     57 N          21.2492  -36.5151  -41.5463 N.am      9 UNK        -0.7519 
     58 O          21.2422  -36.1632  -39.3545 O.2       9 UNK        -0.4960 
     59 C59        19.7910  -33.6475  -40.7719 C.3       10 UNK        -0.0876 
     60 S60        19.6468  -31.9842  -41.5116 S.3       10 UNK        -0.2414 
     61 C61        18.9442  -32.4119  -43.1368 C.3       10 UNK         0.0169 
     62 H62        14.6661  -22.6165  -45.2356 H         1 UNK         0.0903 
     63 H63        13.8805  -22.3726  -43.6750 H         1 UNK         0.0903 
     64 H64        15.3166  -21.4359  -44.0964 H         1 UNK         0.0903 
     65 H65        15.8610  -24.4892  -45.2909 H         1 UNK         0.3096 
     66 H66        17.1479  -26.2011  -44.8218 H         1 UNK         0.1121 
     67 H67        16.9594  -27.3550  -42.5620 H         1 UNK         0.0849 
     68 H68        15.9874  -26.0286  -41.9950 H         1 UNK         0.0849 
     69 H69        15.0966  -29.3144  -42.2923 H         1 UNK         0.0865 
     70 H70        14.2905  -29.6951  -43.7929 H         1 UNK         0.0865 
     71 H71        16.6905  -31.1055  -42.3907 H         1 UNK         0.1346 
     72 H72        19.7279  -31.1068  -45.4116 H         1 UNK         0.1412 
     73 H73        16.4235  -28.3949  -45.7079 H         1 UNK         0.1426 
     74 H74        17.8757  -29.0808  -47.7260 H         1 UNK         0.0716 
     75 H75        19.4255  -29.8234  -47.4278 H         1 UNK         0.0716 
     76 H76        20.7901  -28.3933  -45.0408 H         1 UNK         0.0695 
     77 H77        21.5383  -28.5997  -46.6112 H         1 UNK         0.0695 
     78 H78        22.0049  -26.1123  -46.7057 H         1 UNK         0.0983 
     79 H79        20.5638  -26.1129  -44.1415 H         1 UNK         0.3095 
     80 H80        20.6505  -23.8372  -42.8769 H         1 UNK         0.0454 
     81 H81        21.3329  -21.6991  -43.9307 H         1 UNK         0.0851 
     82 H82        19.9952  -21.7959  -45.0676 H         1 UNK         0.0851 
     83 H83        19.6827  -21.5905  -43.3439 H         1 UNK         0.0851 
     84 H84        18.3129  -23.5613  -44.6385 H         1 UNK         0.2976 
     85 H85        23.8313  -27.6165  -46.9919 H         1 UNK         0.3116 
     86 H86        26.0086  -26.9365  -45.3909 H         1 UNK         0.0646 
     87 H87        27.2448  -28.5867  -46.8114 H         1 UNK         0.0847 
     88 H88        26.1884  -27.5747  -47.7786 H         1 UNK         0.0847 
     89 H89        25.7218  -29.2346  -47.4017 H         1 UNK         0.0847 
     90 H90        23.8100  -29.5888  -44.8910 H         1 UNK         0.3040 
     91 H91        25.4787  -31.2012  -43.1691 H         1 UNK         0.1015 
     92 H92        23.4525  -32.1131  -44.3148 H         1 UNK         0.0786 
     93 H93        22.4200  -31.0104  -43.3999 H         1 UNK         0.0786 
     94 H94        23.3114  -32.2776  -42.5732 H         1 UNK         0.0786 
     95 H95        23.7203  -28.2072  -42.6961 H         1 UNK         0.3172 
     96 H96        23.1278  -26.9497  -40.9906 H         1 UNK         0.0595 
     97 H97        25.5841  -26.8268  -40.6347 H         1 UNK         0.0839 
     98 H98        25.5343  -28.2006  -39.5416 H         1 UNK         0.0839 
     99 H99        24.7361  -26.6869  -39.1099 H         1 UNK         0.0839 
    100 H100       23.9269  -28.4315  -38.1333 H         1 UNK         0.2998 
    101 H101       21.1941  -29.3965  -37.6302 H         1 UNK         0.0822 
    102 H102       22.3779  -28.0155  -35.9255 H         1 UNK         0.0787 
    103 H103       22.0286  -29.6163  -35.2964 H         1 UNK         0.0787 
    104 H104       23.6613  -29.2213  -35.8144 H         1 UNK         0.0787 
    105 H105       24.0895  -30.8105  -38.8486 H         1 UNK         0.3055 
    106 H106       23.7006  -33.4419  -37.5433 H         1 UNK         0.1106 
    107 H107       25.9640  -32.4011  -39.3230 H         1 UNK         0.0828 
    108 H108       25.9830  -32.4318  -37.5602 H         1 UNK         0.0828 
    109 H109       25.9320  -33.9343  -38.4650 H         1 UNK         0.0828 
    110 H110       21.5687  -32.9010  -39.0909 H         1 UNK         0.2931 
    111 H111       21.6830  -34.0029  -41.7447 H         1 UNK         0.0412 
    112 H112       21.2426  -37.5124  -41.3973 H         1 UNK         0.3472 
    113 H113       21.2588  -36.1503  -42.4864 H         1 UNK         0.3472 
    114 H114       19.3896  -33.6109  -39.7573 H         1 UNK         0.0970 
    115 H115       19.1377  -34.3338  -41.3138 H         1 UNK         0.0970 
    116 H116       18.1900  -33.1914  -43.0214 H         1 UNK         0.0612 
    117 H117       19.7329  -32.8356  -43.7606 H         1 UNK         0.0612 
@<TRIPOS>BOND
     1    1    2 1    
     2    1   62 1    
     3    1   63 1    
     4    1   64 1    
     5    2    3 2    
     6    2    4 am   BACKBONE|DICT|INTERRES
     7    4    5 1    
     8    4   65 1    
     9    5    6 1    
    10    5   25 1    
    11    5   66 1    
    12    6    7 1    
    13    6   67 1    
    14    6   68 1    
    15    7    8 1    
    16    8    9 1    
    17    8   69 1    
    18    8   70 1    
    19    9   10 ar   
    20    9   14 ar   
    21   10   11 ar   
    22   10   71 1    
    23   11   12 ar   
    24   11   61 1    
    25   12   13 ar   
    26   12   72 1    
    27   13   14 ar   
    28   13   15 1    
    29   14   73 1    
    30   15   16 1    
    31   15   74 1    
    32   15   75 1    
    33   16   17 1    
    34   17   18 1    
    35   17   76 1    
    36   17   77 1    
    37   18   19 1    
    38   18   27 1    
    39   18   78 1    
    40   19   20 am   BACKBONE|DICT|INTERRES
    41   19   79 1    
    42   20   21 2    
    43   20   22 1    
    44   22   23 1    
    45   22   24 1    
    46   22   80 1    
    47   23   81 1    
    48   23   82 1    
    49   23   83 1    
    50   24   25 am   BACKBONE|DICT|INTERRES
    51   24   84 1    
    52   25   26 2    
    53   27   28 2    
    54   27   29 am   BACKBONE|DICT|INTERRES
    55   29   30 1    
    56   29   85 1    
    57   30   31 1    
    58   30   32 1    
    59   30   86 1    
    60   31   87 1    
    61   31   88 1    
    62   31   89 1    
    63   32   33 2    
    64   32   34 am   BACKBONE|DICT|INTERRES
    65   34   35 1    
    66   34   90 1    
    67   35   36 1    
    68   35   37 1    
    69   35   91 1    
    70   36   92 1    
    71   36   93 1    
    72   36   94 1    
    73   37   38 2    
    74   37   39 am   BACKBONE|DICT|INTERRES
    75   39   40 1    
    76   39   95 1    
    77   40   41 1    
    78   40   42 1    
    79   40   96 1    
    80   41   97 1    
    81   41   98 1    
    82   41   99 1    
    83   42   43 2    
    84   42   44 am   BACKBONE|DICT|INTERRES
    85   44   45 1    
    86   44  100 1    
    87   45   46 1    
    88   45   47 1    
    89   45  101 1    
    90   46  102 1    
    91   46  103 1    
    92   46  104 1    
    93   47   48 2    
    94   47   49 am   BACKBONE|DICT|INTERRES
    95   49   50 1    
    96   49  105 1    
    97   50   51 1    
    98   50   52 1    
    99   50  106 1    
   100   51  107 1    
   101   51  108 1    
   102   51  109 1    
   103   52   53 2    
   104   52   54 am   BACKBONE|DICT|INTERRES
   105   54   55 1    
   106   54  110 1    
   107   55   56 1    
   108   55   59 1    
   109   55  111 1    
   110   56   57 am   BACKBONE|DICT|INTERRES
   111   56   58 2    
   112   57  112 1    
   113   57  113 1    
   114   59   60 1    
   115   59  114 1    
   116   59  115 1    
   117   60   61 1    
   118   61  116 1    
   119   61  117 1    
@<TRIPOS>SUBSTRUCTURE
     1 UNK         1 GROUP             0       ****    0 ROOT    
