@<TRIPOS>MOLECULE
3R8
117   119    1
SMALL
USER_CHARGES


@<TRIPOS>ATOM
      1 CA         17.9227  -28.6511  -41.4029 C.3       0 UNK        -0.2013 
      2 C          17.9538  -27.8785  -42.7116 C.2       0 UNK         0.4866 
      3 O          18.9606  -27.9045  -43.4196 O.2       0 UNK        -0.5176 
      4 N          16.8609  -27.1674  -43.0190 N.am      1 UNK        -0.4884 
      5 CA         16.6746  -26.3354  -44.2181 C.3       1 UNK         0.0853 
      6 C6         16.5937  -27.1655  -45.5341 C.3       10 UNK        -0.0849 
      7 S7         15.3473  -28.4971  -45.4681 S.3       10 UNK        -0.2776 
      8 C8         16.0259  -29.6932  -46.6658 C.3       10 UNK         0.0316 
      9 C9         17.3484  -30.2980  -46.2097 C.ar      10 UNK        -0.0863 
     10 C10        17.3774  -31.2005  -45.1415 C.ar      10 UNK        -0.1009 
     11 C11        18.5832  -31.7794  -44.7353 C.ar      10 UNK        -0.0712 
     12 C12        19.7646  -31.4468  -45.4031 C.ar      10 UNK        -0.0894 
     13 C13        19.7541  -30.5376  -46.4641 C.ar      10 UNK        -0.0745 
     14 C14        18.5400  -29.9732  -46.8689 C.ar      10 UNK        -0.0972 
     15 C15        21.0500  -30.1999  -47.1929 C.3       10 UNK         0.0209 
     16 S16        21.5024  -28.4388  -47.0705 S.3       10 UNK        -0.2568 
     17 C17        21.9133  -28.2666  -45.3006 C.3       10 UNK        -0.0983 
     18 CA         22.0406  -26.7814  -44.8770 C.3       3 UNK         0.0876 
     19 N          20.8388  -26.0030  -45.1927 N.am      3 UNK        -0.4424 
     20 C          20.7856  -24.6651  -45.2685 C.2       2 UNK         0.4918 
     21 O          21.7573  -23.9318  -45.0840 O.2       2 UNK        -0.4875 
     22 CA         19.4326  -24.0253  -45.6384 C.3       2 UNK         0.0481 
     23 CB         19.4507  -23.5507  -47.1006 C.3       2 UNK        -0.1831 
     24 N          18.3007  -24.9350  -45.4479 N.am      2 UNK        -0.4498 
     25 C          17.7296  -25.2015  -44.2644 C.2       1 UNK         0.5027 
     26 O          18.0182  -24.6014  -43.2256 O.2       1 UNK        -0.4969 
     27 C          22.3913  -26.6503  -43.3837 C.2       3 UNK         0.5005 
     28 O          23.5441  -26.3717  -43.0468 O.2       3 UNK        -0.5279 
     29 N          21.3735  -26.8110  -42.5245 N.am      4 UNK        -0.4463 
     30 CA         21.3906  -26.6150  -41.0736 C.3       4 UNK         0.0283 
     31 CB         21.4056  -25.1040  -40.7516 C.3       4 UNK        -0.1875 
     32 C          22.5145  -27.4226  -40.3997 C.2       4 UNK         0.4949 
     33 O          22.5337  -28.6468  -40.5329 O.2       4 UNK        -0.5039 
     34 N          23.4462  -26.7371  -39.7247 N.am      5 UNK        -0.4663 
     35 CA         24.5908  -27.3175  -39.0170 C.3       5 UNK         0.0242 
     36 CB         25.3132  -26.2042  -38.2410 C.3       5 UNK        -0.1982 
     37 C          25.5867  -28.0844  -39.9075 C.2       5 UNK         0.5017 
     38 O          26.3297  -28.9107  -39.3771 O.2       5 UNK        -0.5012 
     39 N          25.5887  -27.8261  -41.2257 N.am      6 UNK        -0.4439 
     40 CA         26.3994  -28.5729  -42.1938 C.3       6 UNK         0.0297 
     41 CB         26.4862  -27.7987  -43.5188 C.3       6 UNK        -0.2006 
     42 C          25.8658  -29.9963  -42.4362 C.2       6 UNK         0.4892 
     43 O          26.6578  -30.8853  -42.7510 O.2       6 UNK        -0.5089 
     44 N          24.5482  -30.1858  -42.2812 N.am      7 UNK        -0.4243 
     45 CA         23.8813  -31.4846  -42.3685 C.3       7 UNK         0.0196 
     46 CB         22.5389  -31.3143  -43.0928 C.3       7 UNK        -0.2007 
     47 C          23.6653  -32.0999  -40.9788 C.2       7 UNK         0.5020 
     48 O          23.7904  -33.3155  -40.8345 O.2       7 UNK        -0.5147 
     49 N          23.3318  -31.2525  -39.9926 N.am      8 UNK        -0.4734 
     50 CA         23.0168  -31.5739  -38.5935 C.3       8 UNK         0.0238 
     51 CB         24.2335  -32.1962  -37.8763 C.3       8 UNK        -0.1912 
     52 C          21.7269  -32.4036  -38.4212 C.2       8 UNK         0.5038 
     53 O          21.5480  -33.0442  -37.3839 O.2       8 UNK        -0.5046 
     54 N          20.8455  -32.3625  -39.4284 N.am      9 UNK        -0.4200 
     55 CA         19.5363  -33.0309  -39.4524 C.3       9 UNK         0.0839 
     56 C          18.4098  -32.2868  -38.6764 C.2       9 UNK         0.5513 
     57 N          18.6277  -31.0730  -38.1832 N.am      9 UNK        -0.7519 
     58 O          17.3219  -32.8309  -38.5046 O.2       9 UNK        -0.4960 
     59 C59        19.1161  -33.3930  -40.9020 C.3       10 UNK        -0.0876 
     60 S60        19.0616  -31.9580  -42.0279 S.3       10 UNK        -0.2414 
     61 C61        18.6146  -32.7747  -43.5863 C.3       10 UNK         0.0169 
     62 H62        17.5504  -28.0294  -40.5892 H         1 UNK         0.0903 
     63 H63        17.2781  -29.5246  -41.4968 H         1 UNK         0.0903 
     64 H64        18.9217  -28.9953  -41.1357 H         1 UNK         0.0903 
     65 H65        16.0804  -27.1699  -42.3775 H         1 UNK         0.3096 
     66 H66        15.7152  -25.8315  -44.0898 H         1 UNK         0.1121 
     67 H67        17.5673  -27.6025  -45.7580 H         1 UNK         0.0849 
     68 H68        16.3327  -26.5280  -46.3806 H         1 UNK         0.0849 
     69 H69        15.3002  -30.4946  -46.8112 H         1 UNK         0.0865 
     70 H70        16.1351  -29.2054  -47.6358 H         1 UNK         0.0865 
     71 H71        16.4594  -31.4519  -44.6279 H         1 UNK         0.1346 
     72 H72        20.6931  -31.9051  -45.0978 H         1 UNK         0.1412 
     73 H73        18.5281  -29.2788  -47.6979 H         1 UNK         0.1426 
     74 H74        20.9361  -30.4579  -48.2466 H         1 UNK         0.0716 
     75 H75        21.8788  -30.8033  -46.8192 H         1 UNK         0.0716 
     76 H76        22.8510  -28.7938  -45.1162 H         1 UNK         0.0695 
     77 H77        21.1485  -28.7748  -44.7106 H         1 UNK         0.0695 
     78 H78        22.8717  -26.3482  -45.4383 H         1 UNK         0.0983 
     79 H79        19.9927  -26.5375  -45.3234 H         1 UNK         0.3095 
     80 H80        19.2953  -23.1494  -45.0007 H         1 UNK         0.0454 
     81 H81        19.5944  -24.3799  -47.7946 H         1 UNK         0.0851 
     82 H82        20.2619  -22.8412  -47.2703 H         1 UNK         0.0851 
     83 H83        18.5220  -23.0456  -47.3664 H         1 UNK         0.0851 
     84 H84        17.9968  -25.4489  -46.2621 H         1 UNK         0.2976 
     85 H85        20.4816  -27.1228  -42.9109 H         1 UNK         0.3116 
     86 H86        20.4542  -27.0247  -40.6940 H         1 UNK         0.0646 
     87 H87        22.3017  -24.6100  -41.1294 H         1 UNK         0.0847 
     88 H88        21.3460  -24.9240  -39.6774 H         1 UNK         0.0847 
     89 H89        20.5468  -24.6057  -41.2026 H         1 UNK         0.0847 
     90 H90        23.3660  -25.7308  -39.6990 H         1 UNK         0.3040 
     91 H91        24.1971  -28.0370  -38.2955 H         1 UNK         0.1015 
     92 H92        25.7080  -25.4378  -38.9093 H         1 UNK         0.0786 
     93 H93        26.1539  -26.6051  -37.6727 H         1 UNK         0.0786 
     94 H94        24.6466  -25.7190  -37.5276 H         1 UNK         0.0786 
     95 H95        24.9345  -27.1455  -41.6002 H         1 UNK         0.3172 
     96 H96        27.4113  -28.6605  -41.7923 H         1 UNK         0.0595 
     97 H97        25.5242  -27.7565  -44.0298 H         1 UNK         0.0839 
     98 H98        27.1898  -28.2786  -44.2003 H         1 UNK         0.0839 
     99 H99        26.8312  -26.7763  -43.3638 H         1 UNK         0.0839 
    100 H100       23.9808  -29.4039  -41.9783 H         1 UNK         0.2998 
    101 H101       24.4895  -32.1821  -42.9489 H         1 UNK         0.0822 
    102 H102       22.6916  -30.9985  -44.1240 H         1 UNK         0.0787 
    103 H103       21.9915  -32.2575  -43.1194 H         1 UNK         0.0787 
    104 H104       21.8987  -30.5764  -42.6066 H         1 UNK         0.0787 
    105 H105       23.1788  -30.2755  -40.2417 H         1 UNK         0.3055 
    106 H106       22.8120  -30.6168  -38.1109 H         1 UNK         0.1106 
    107 H107       24.0550  -32.2809  -36.8037 H         1 UNK         0.0828 
    108 H108       24.4556  -33.1972  -38.2467 H         1 UNK         0.0828 
    109 H109       25.1255  -31.5832  -38.0072 H         1 UNK         0.0828 
    110 H110       21.0635  -31.7999  -40.2374 H         1 UNK         0.2931 
    111 H111       19.6558  -33.9804  -38.9270 H         1 UNK         0.0412 
    112 H112       17.8919  -30.6074  -37.6759 H         1 UNK         0.3472 
    113 H113       19.5162  -30.6193  -38.3164 H         1 UNK         0.3472 
    114 H114       19.8239  -34.1165  -41.3098 H         1 UNK         0.0970 
    115 H115       18.1454  -33.8926  -40.9117 H         1 UNK         0.0970 
    116 H116       19.3349  -33.5655  -43.8015 H         1 UNK         0.0612 
    117 H117       17.6433  -33.2591  -43.4750 H         1 UNK         0.0612 
@<TRIPOS>BOND
     1    1    2 1    
     2    1   62 1    
     3    1   63 1    
     4    1   64 1    
     5    2    3 2    
     6    2    4 am   BACKBONE|DICT|INTERRES
     7    4    5 1    
     8    4   65 1    
     9    5    6 1    
    10    5   25 1    
    11    5   66 1    
    12    6    7 1    
    13    6   67 1    
    14    6   68 1    
    15    7    8 1    
    16    8    9 1    
    17    8   69 1    
    18    8   70 1    
    19    9   10 ar   
    20    9   14 ar   
    21   10   11 ar   
    22   10   71 1    
    23   11   12 ar   
    24   11   61 1    
    25   12   13 ar   
    26   12   72 1    
    27   13   14 ar   
    28   13   15 1    
    29   14   73 1    
    30   15   16 1    
    31   15   74 1    
    32   15   75 1    
    33   16   17 1    
    34   17   18 1    
    35   17   76 1    
    36   17   77 1    
    37   18   19 1    
    38   18   27 1    
    39   18   78 1    
    40   19   20 am   BACKBONE|DICT|INTERRES
    41   19   79 1    
    42   20   21 2    
    43   20   22 1    
    44   22   23 1    
    45   22   24 1    
    46   22   80 1    
    47   23   81 1    
    48   23   82 1    
    49   23   83 1    
    50   24   25 am   BACKBONE|DICT|INTERRES
    51   24   84 1    
    52   25   26 2    
    53   27   28 2    
    54   27   29 am   BACKBONE|DICT|INTERRES
    55   29   30 1    
    56   29   85 1    
    57   30   31 1    
    58   30   32 1    
    59   30   86 1    
    60   31   87 1    
    61   31   88 1    
    62   31   89 1    
    63   32   33 2    
    64   32   34 am   BACKBONE|DICT|INTERRES
    65   34   35 1    
    66   34   90 1    
    67   35   36 1    
    68   35   37 1    
    69   35   91 1    
    70   36   92 1    
    71   36   93 1    
    72   36   94 1    
    73   37   38 2    
    74   37   39 am   BACKBONE|DICT|INTERRES
    75   39   40 1    
    76   39   95 1    
    77   40   41 1    
    78   40   42 1    
    79   40   96 1    
    80   41   97 1    
    81   41   98 1    
    82   41   99 1    
    83   42   43 2    
    84   42   44 am   BACKBONE|DICT|INTERRES
    85   44   45 1    
    86   44  100 1    
    87   45   46 1    
    88   45   47 1    
    89   45  101 1    
    90   46  102 1    
    91   46  103 1    
    92   46  104 1    
    93   47   48 2    
    94   47   49 am   BACKBONE|DICT|INTERRES
    95   49   50 1    
    96   49  105 1    
    97   50   51 1    
    98   50   52 1    
    99   50  106 1    
   100   51  107 1    
   101   51  108 1    
   102   51  109 1    
   103   52   53 2    
   104   52   54 am   BACKBONE|DICT|INTERRES
   105   54   55 1    
   106   54  110 1    
   107   55   56 1    
   108   55   59 1    
   109   55  111 1    
   110   56   57 am   BACKBONE|DICT|INTERRES
   111   56   58 2    
   112   57  112 1    
   113   57  113 1    
   114   59   60 1    
   115   59  114 1    
   116   59  115 1    
   117   60   61 1    
   118   61  116 1    
   119   61  117 1    
@<TRIPOS>SUBSTRUCTURE
     1 UNK         1 GROUP             0       ****    0 ROOT    
