@<TRIPOS>MOLECULE
3R8
117   119    1
SMALL
USER_CHARGES


@<TRIPOS>ATOM
      1 CA         15.7964  -25.7093  -44.9000 C.3       0 UNK        -0.2013 
      2 C          16.0977  -24.7814  -43.7278 C.2       0 UNK         0.4866 
      3 O          15.5184  -23.6997  -43.6544 O.2       0 UNK        -0.5176 
      4 N          16.9895  -25.1353  -42.7931 N.am      1 UNK        -0.4884 
      5 CA         17.7892  -26.3686  -42.7231 C.3       1 UNK         0.0853 
      6 C6         17.3263  -27.2850  -41.5569 C.3       10 UNK        -0.0849 
      7 S7         15.7355  -28.0911  -41.9545 S.3       10 UNK        -0.2776 
      8 C8         16.2163  -29.8186  -42.3094 C.3       10 UNK         0.0316 
      9 C9         17.4467  -29.9319  -43.2029 C.ar      10 UNK        -0.0863 
     10 C10        18.6425  -30.4302  -42.6760 C.ar      10 UNK        -0.1009 
     11 C11        19.7875  -30.5169  -43.4714 C.ar      10 UNK        -0.0712 
     12 C12        19.7322  -30.0967  -44.8015 C.ar      10 UNK        -0.0894 
     13 C13        18.5540  -29.5732  -45.3345 C.ar      10 UNK        -0.0745 
     14 C14        17.4038  -29.5176  -44.5390 C.ar      10 UNK        -0.0972 
     15 C15        18.5396  -29.0330  -46.7551 C.3       10 UNK         0.0209 
     16 S16        18.8634  -27.2396  -46.7633 S.3       10 UNK        -0.2568 
     17 C17        20.5674  -27.0786  -47.4265 C.3       10 UNK        -0.0983 
     18 CA         21.6682  -26.6170  -46.4201 C.3       3 UNK         0.0876 
     19 N          21.1278  -25.7726  -45.3524 N.am      3 UNK        -0.4424 
     20 C          21.8336  -25.0527  -44.4713 C.2       2 UNK         0.4918 
     21 O          23.0518  -24.8892  -44.5426 O.2       2 UNK        -0.4875 
     22 CA         21.0511  -24.3809  -43.3238 C.3       2 UNK         0.0481 
     23 CB         21.0429  -22.8537  -43.4997 C.3       2 UNK        -0.1831 
     24 N          19.6673  -24.8531  -43.1979 N.am      2 UNK        -0.4498 
     25 C          19.2940  -26.0289  -42.6679 C.2       1 UNK         0.5027 
     26 O          20.0879  -26.8277  -42.1727 O.2       1 UNK        -0.4969 
     27 C          22.4834  -27.8012  -45.8563 C.2       3 UNK         0.5005 
     28 O          22.2434  -28.2310  -44.7275 O.2       3 UNK        -0.5279 
     29 N          23.4258  -28.3102  -46.6673 N.am      4 UNK        -0.4463 
     30 CA         24.3446  -29.4181  -46.3671 C.3       4 UNK         0.0283 
     31 CB         23.5804  -30.7629  -46.3675 C.3       4 UNK        -0.1875 
     32 C          25.1646  -29.1553  -45.0848 C.2       4 UNK         0.4949 
     33 O          25.7192  -28.0638  -44.9393 O.2       4 UNK        -0.5039 
     34 N          25.2262  -30.1379  -44.1774 N.am      5 UNK        -0.4663 
     35 CA         25.7377  -29.9775  -42.8182 C.3       5 UNK         0.0242 
     36 CB         26.2021  -31.3479  -42.2921 C.3       5 UNK        -0.1982 
     37 C          24.6163  -29.3728  -41.9590 C.2       5 UNK         0.5017 
     38 O          23.7933  -30.1259  -41.4371 O.2       5 UNK        -0.5012 
     39 N          24.5793  -28.0327  -41.9001 N.am      6 UNK        -0.4439 
     40 CA         23.5208  -27.1802  -41.3415 C.3       6 UNK         0.0297 
     41 CB         24.0750  -25.7593  -41.1400 C.3       6 UNK        -0.2006 
     42 C          22.8864  -27.7075  -40.0413 C.2       6 UNK         0.4892 
     43 O          23.5389  -27.6971  -38.9956 O.2       6 UNK        -0.5089 
     44 N          21.6383  -28.1808  -40.1619 N.am      7 UNK        -0.4243 
     45 CA         20.7781  -28.7697  -39.1282 C.3       7 UNK         0.0196 
     46 CB         20.3794  -27.6958  -38.0950 C.3       7 UNK        -0.2007 
     47 C          21.3128  -30.0526  -38.4506 C.2       7 UNK         0.5020 
     48 O          20.7122  -30.4948  -37.4704 O.2       7 UNK        -0.5147 
     49 N          22.3967  -30.6516  -38.9642 N.am      8 UNK        -0.4734 
     50 CA         23.0126  -31.8631  -38.4071 C.3       8 UNK         0.0238 
     51 CB         24.5333  -31.7985  -38.6253 C.3       8 UNK        -0.1912 
     52 C          22.4401  -33.1592  -39.0074 C.2       8 UNK         0.5038 
     53 O          22.7086  -34.2345  -38.4695 O.2       8 UNK        -0.5046 
     54 N          21.6904  -33.0401  -40.1104 N.am      9 UNK        -0.4200 
     55 CA         21.0329  -34.1334  -40.8414 C.3       9 UNK         0.0839 
     56 C          20.0346  -34.9364  -39.9631 C.2       9 UNK         0.5513 
     57 N          19.9954  -36.2532  -40.1131 N.am      9 UNK        -0.7519 
     58 O          19.2652  -34.3711  -39.1888 O.2       9 UNK        -0.4960 
     59 C59        20.3177  -33.6121  -42.1153 C.3       10 UNK        -0.0876 
     60 S60        21.4401  -32.7498  -43.2686 S.3       10 UNK        -0.2414 
     61 C61        21.1029  -31.0028  -42.8852 C.3       10 UNK         0.0169 
     62 H62        14.9423  -25.3407  -45.4677 H         1 UNK         0.0903 
     63 H63        16.6474  -25.7570  -45.5765 H         1 UNK         0.0903 
     64 H64        15.5529  -26.7151  -44.5620 H         1 UNK         0.0903 
     65 H65        17.1502  -24.4912  -42.0302 H         1 UNK         0.3096 
     66 H66        17.7001  -26.9346  -43.6497 H         1 UNK         0.1121 
     67 H67        17.2086  -26.7063  -40.6393 H         1 UNK         0.0849 
     68 H68        18.0601  -28.0558  -41.3206 H         1 UNK         0.0849 
     69 H69        16.3814  -30.3340  -41.3619 H         1 UNK         0.0865 
     70 H70        15.3781  -30.3280  -42.7867 H         1 UNK         0.0865 
     71 H71        18.6874  -30.7324  -41.6390 H         1 UNK         0.1346 
     72 H72        20.6214  -30.1424  -45.4127 H         1 UNK         0.1412 
     73 H73        16.4868  -29.1132  -44.9456 H         1 UNK         0.1426 
     74 H74        17.5628  -29.2147  -47.2058 H         1 UNK         0.0716 
     75 H75        19.2628  -29.5621  -47.3769 H         1 UNK         0.0716 
     76 H76        20.5001  -26.3279  -48.2153 H         1 UNK         0.0695 
     77 H77        20.8518  -27.9940  -47.9484 H         1 UNK         0.0695 
     78 H78        22.3787  -25.9956  -46.9700 H         1 UNK         0.0983 
     79 H79        20.1355  -25.8712  -45.2028 H         1 UNK         0.3095 
     80 H80        21.5763  -24.6108  -42.3953 H         1 UNK         0.0454 
     81 H81        22.0593  -22.4611  -43.5537 H         1 UNK         0.0851 
     82 H82        20.5527  -22.3594  -42.6609 H         1 UNK         0.0851 
     83 H83        20.5298  -22.5544  -44.4144 H         1 UNK         0.0851 
     84 H84        18.9466  -24.2541  -43.5762 H         1 UNK         0.2976 
     85 H85        23.5718  -27.8660  -47.5634 H         1 UNK         0.3116 
     86 H86        25.0656  -29.4488  -47.1852 H         1 UNK         0.0646 
     87 H87        22.8829  -30.8392  -45.5333 H         1 UNK         0.0847 
     88 H88        23.0069  -30.8879  -47.2860 H         1 UNK         0.0847 
     89 H89        24.2656  -31.6094  -46.3073 H         1 UNK         0.0847 
     90 H90        24.7107  -30.9868  -44.3591 H         1 UNK         0.3040 
     91 H91        26.5977  -29.3036  -42.8162 H         1 UNK         0.1015 
     92 H92        26.5885  -31.2612  -41.2760 H         1 UNK         0.0786 
     93 H93        27.0031  -31.7565  -42.9083 H         1 UNK         0.0786 
     94 H94        25.3905  -32.0768  -42.2738 H         1 UNK         0.0786 
     95 H95        25.2907  -27.5408  -42.4225 H         1 UNK         0.3172 
     96 H96        22.7434  -27.1244  -42.1056 H         1 UNK         0.0595 
     97 H97        24.3887  -25.3161  -42.0853 H         1 UNK         0.0839 
     98 H98        24.9310  -25.7537  -40.4641 H         1 UNK         0.0839 
     99 H99        23.3184  -25.1015  -40.7105 H         1 UNK         0.0839 
    100 H100       21.1922  -28.0612  -41.0679 H         1 UNK         0.2998 
    101 H101       19.8687  -29.0737  -39.6484 H         1 UNK         0.0822 
    102 H102       19.6266  -28.0736  -37.4020 H         1 UNK         0.0787 
    103 H103       19.9551  -26.8175  -38.5818 H         1 UNK         0.0787 
    104 H104       21.2343  -27.3710  -37.5011 H         1 UNK         0.0787 
    105 H105       22.8466  -30.2534  -39.7868 H         1 UNK         0.3055 
    106 H106       22.8315  -31.8989  -37.3303 H         1 UNK         0.1106 
    107 H107       24.9543  -30.8736  -38.2304 H         1 UNK         0.0828 
    108 H108       25.0347  -32.6257  -38.1213 H         1 UNK         0.0828 
    109 H109       24.7902  -31.8613  -39.6822 H         1 UNK         0.0828 
    110 H110       21.5513  -32.1130  -40.4786 H         1 UNK         0.2931 
    111 H111       21.8273  -34.8133  -41.1563 H         1 UNK         0.0412 
    112 H112       20.6154  -36.7238  -40.7545 H         1 UNK         0.3472 
    113 H113       19.3414  -36.7904  -39.5647 H         1 UNK         0.3472 
    114 H114       19.8769  -34.4470  -42.6634 H         1 UNK         0.0970 
    115 H115       19.4830  -32.9633  -41.8500 H         1 UNK         0.0970 
    116 H116       21.1229  -30.8427  -41.8075 H         1 UNK         0.0612 
    117 H117       21.9165  -30.4013  -43.2895 H         1 UNK         0.0612 
@<TRIPOS>BOND
     1    1    2 1    
     2    1   62 1    
     3    1   63 1    
     4    1   64 1    
     5    2    3 2    
     6    2    4 am   BACKBONE|DICT|INTERRES
     7    4    5 1    
     8    4   65 1    
     9    5    6 1    
    10    5   25 1    
    11    5   66 1    
    12    6    7 1    
    13    6   67 1    
    14    6   68 1    
    15    7    8 1    
    16    8    9 1    
    17    8   69 1    
    18    8   70 1    
    19    9   10 ar   
    20    9   14 ar   
    21   10   11 ar   
    22   10   71 1    
    23   11   12 ar   
    24   11   61 1    
    25   12   13 ar   
    26   12   72 1    
    27   13   14 ar   
    28   13   15 1    
    29   14   73 1    
    30   15   16 1    
    31   15   74 1    
    32   15   75 1    
    33   16   17 1    
    34   17   18 1    
    35   17   76 1    
    36   17   77 1    
    37   18   19 1    
    38   18   27 1    
    39   18   78 1    
    40   19   20 am   BACKBONE|DICT|INTERRES
    41   19   79 1    
    42   20   21 2    
    43   20   22 1    
    44   22   23 1    
    45   22   24 1    
    46   22   80 1    
    47   23   81 1    
    48   23   82 1    
    49   23   83 1    
    50   24   25 am   BACKBONE|DICT|INTERRES
    51   24   84 1    
    52   25   26 2    
    53   27   28 2    
    54   27   29 am   BACKBONE|DICT|INTERRES
    55   29   30 1    
    56   29   85 1    
    57   30   31 1    
    58   30   32 1    
    59   30   86 1    
    60   31   87 1    
    61   31   88 1    
    62   31   89 1    
    63   32   33 2    
    64   32   34 am   BACKBONE|DICT|INTERRES
    65   34   35 1    
    66   34   90 1    
    67   35   36 1    
    68   35   37 1    
    69   35   91 1    
    70   36   92 1    
    71   36   93 1    
    72   36   94 1    
    73   37   38 2    
    74   37   39 am   BACKBONE|DICT|INTERRES
    75   39   40 1    
    76   39   95 1    
    77   40   41 1    
    78   40   42 1    
    79   40   96 1    
    80   41   97 1    
    81   41   98 1    
    82   41   99 1    
    83   42   43 2    
    84   42   44 am   BACKBONE|DICT|INTERRES
    85   44   45 1    
    86   44  100 1    
    87   45   46 1    
    88   45   47 1    
    89   45  101 1    
    90   46  102 1    
    91   46  103 1    
    92   46  104 1    
    93   47   48 2    
    94   47   49 am   BACKBONE|DICT|INTERRES
    95   49   50 1    
    96   49  105 1    
    97   50   51 1    
    98   50   52 1    
    99   50  106 1    
   100   51  107 1    
   101   51  108 1    
   102   51  109 1    
   103   52   53 2    
   104   52   54 am   BACKBONE|DICT|INTERRES
   105   54   55 1    
   106   54  110 1    
   107   55   56 1    
   108   55   59 1    
   109   55  111 1    
   110   56   57 am   BACKBONE|DICT|INTERRES
   111   56   58 2    
   112   57  112 1    
   113   57  113 1    
   114   59   60 1    
   115   59  114 1    
   116   59  115 1    
   117   60   61 1    
   118   61  116 1    
   119   61  117 1    
@<TRIPOS>SUBSTRUCTURE
     1 UNK         1 GROUP             0       ****    0 ROOT    
