@<TRIPOS>MOLECULE
3R8
117   119    1
SMALL
USER_CHARGES


@<TRIPOS>ATOM
      1 CA         15.2362  -25.5457  -47.8917 C.3       0 UNK        -0.2013 
      2 C          16.4963  -25.8157  -47.0841 C.2       0 UNK         0.4866 
      3 O          17.4818  -26.3117  -47.6303 O.2       0 UNK        -0.5176 
      4 N          16.4864  -25.4743  -45.7894 N.am      1 UNK        -0.4884 
      5 CA         17.5708  -25.6960  -44.8201 C.3       1 UNK         0.0853 
      6 C6         17.0246  -25.7173  -43.3670 C.3       10 UNK        -0.0849 
      7 S7         15.9337  -27.1498  -43.0575 S.3       10 UNK        -0.2776 
      8 C8         16.7141  -27.9184  -41.5963 C.3       10 UNK         0.0316 
      9 C9         17.7617  -28.9706  -41.9499 C.ar      10 UNK        -0.0863 
     10 C10        17.5992  -30.2888  -41.5089 C.ar      10 UNK        -0.1009 
     11 C11        18.5816  -31.2511  -41.7608 C.ar      10 UNK        -0.0712 
     12 C12        19.7200  -30.8985  -42.4869 C.ar      10 UNK        -0.0894 
     13 C13        19.8997  -29.5885  -42.9328 C.ar      10 UNK        -0.0745 
     14 C14        18.9189  -28.6288  -42.6589 C.ar      10 UNK        -0.0972 
     15 C15        21.1902  -29.2053  -43.6393 C.3       10 UNK         0.0209 
     16 S16        20.9031  -28.4003  -45.2389 S.3       10 UNK        -0.2568 
     17 C17        22.5839  -27.7636  -45.5760 C.3       10 UNK        -0.0983 
     18 CA         22.7501  -26.2531  -45.2624 C.3       3 UNK         0.0876 
     19 N          21.6794  -25.4791  -45.8905 N.am      3 UNK        -0.4424 
     20 C          21.6541  -24.1624  -46.1243 C.2       2 UNK         0.4918 
     21 O          22.6111  -23.4111  -45.9409 O.2       2 UNK        -0.4875 
     22 CA         20.3051  -23.5878  -46.6029 C.3       2 UNK         0.0481 
     23 CB         20.3179  -23.3815  -48.1253 C.3       2 UNK        -0.1831 
     24 N          19.1503  -24.4227  -46.2381 N.am      2 UNK        -0.4498 
     25 C          18.7518  -24.7062  -44.9890 C.2       1 UNK         0.5027 
     26 O          19.3194  -24.2492  -43.9948 O.2       1 UNK        -0.4969 
     27 C          22.9155  -25.9817  -43.7443 C.2       3 UNK         0.5005 
     28 O          23.8791  -26.4786  -43.1606 O.2       3 UNK        -0.5279 
     29 N          22.0006  -25.2122  -43.1275 N.am      4 UNK        -0.4463 
     30 CA         22.0675  -24.6743  -41.7607 C.3       4 UNK         0.0283 
     31 CB         23.1931  -23.6232  -41.6560 C.3       4 UNK        -0.1875 
     32 C          22.1523  -25.7498  -40.6591 C.2       4 UNK         0.4949 
     33 O          22.9560  -25.6254  -39.7340 O.2       4 UNK        -0.5039 
     34 N          21.3092  -26.7849  -40.7845 N.am      5 UNK        -0.4663 
     35 CA         21.1403  -27.9149  -39.8549 C.3       5 UNK         0.0242 
     36 CB         20.5966  -27.4309  -38.4936 C.3       5 UNK        -0.1982 
     37 C          22.3758  -28.8289  -39.7087 C.2       5 UNK         0.5017 
     38 O          22.4553  -29.5806  -38.7369 O.2       5 UNK        -0.5012 
     39 N          23.2996  -28.7721  -40.6770 N.am      6 UNK        -0.4439 
     40 CA         24.4363  -29.6831  -40.8162 C.3       6 UNK         0.0297 
     41 CB         25.5984  -28.9125  -41.4744 C.3       6 UNK        -0.2006 
     42 C          24.0322  -30.9482  -41.6042 C.2       6 UNK         0.4892 
     43 O          22.8537  -31.3122  -41.6308 O.2       6 UNK        -0.5089 
     44 N          25.0184  -31.5985  -42.2410 N.am      7 UNK        -0.4243 
     45 CA         24.8850  -32.7813  -43.1006 C.3       7 UNK         0.0196 
     46 CB         24.1945  -32.4002  -44.4316 C.3       7 UNK        -0.2007 
     47 C          24.2175  -33.9516  -42.3536 C.2       7 UNK         0.5020 
     48 O          24.7670  -34.4103  -41.3512 O.2       7 UNK        -0.5147 
     49 N          23.0402  -34.3908  -42.8193 N.am      8 UNK        -0.4734 
     50 CA         22.2318  -35.4566  -42.2160 C.3       8 UNK         0.0238 
     51 CB         21.0422  -35.7669  -43.1395 C.3       8 UNK        -0.1912 
     52 C          21.7382  -35.1533  -40.7879 C.2       8 UNK         0.5038 
     53 O          21.4608  -36.0957  -40.0449 O.2       8 UNK        -0.5046 
     54 N          21.6489  -33.8659  -40.4316 N.am      9 UNK        -0.4200 
     55 CA         21.3327  -33.3857  -39.0797 C.3       9 UNK         0.0839 
     56 C          22.6022  -33.0624  -38.2364 C.2       9 UNK         0.5513 
     57 N          23.8183  -33.2677  -38.7325 N.am      9 UNK        -0.7519 
     58 O          22.4831  -32.6599  -37.0820 O.2       9 UNK        -0.4960 
     59 C59        20.3323  -32.1999  -39.1337 C.3       10 UNK        -0.0876 
     60 S60        18.6146  -32.7572  -39.4215 S.3       10 UNK        -0.2414 
     61 C61        18.4290  -32.6687  -41.2321 C.3       10 UNK         0.0169 
     62 H62        15.4557  -24.8644  -48.7133 H         1 UNK         0.0903 
     63 H63        14.8553  -26.4758  -48.3127 H         1 UNK         0.0903 
     64 H64        14.4487  -25.1016  -47.2832 H         1 UNK         0.0903 
     65 H65        15.6517  -25.0546  -45.4044 H         1 UNK         0.3096 
     66 H66        17.9957  -26.6820  -45.0233 H         1 UNK         0.1121 
     67 H67        16.4671  -24.8028  -43.1568 H         1 UNK         0.0849 
     68 H68        17.8348  -25.7350  -42.6372 H         1 UNK         0.0849 
     69 H69        17.1610  -27.1573  -40.9554 H         1 UNK         0.0865 
     70 H70        15.9194  -28.3697  -41.0002 H         1 UNK         0.0865 
     71 H71        16.7216  -30.5663  -40.9408 H         1 UNK         0.1346 
     72 H72        20.4845  -31.6393  -42.6760 H         1 UNK         0.1412 
     73 H73        19.0701  -27.6133  -42.9892 H         1 UNK         0.1426 
     74 H74        21.7547  -28.5394  -42.9906 H         1 UNK         0.0716 
     75 H75        21.8193  -30.0801  -43.8052 H         1 UNK         0.0716 
     76 H76        23.3301  -28.3653  -45.0527 H         1 UNK         0.0695 
     77 H77        22.7794  -27.9280  -46.6368 H         1 UNK         0.0695 
     78 H78        23.6887  -25.9274  -45.7162 H         1 UNK         0.0983 
     79 H79        20.8462  -26.0096  -46.1011 H         1 UNK         0.3095 
     80 H80        20.1759  -22.6146  -46.1253 H         1 UNK         0.0454 
     81 H81        19.4030  -22.8980  -48.4681 H         1 UNK         0.0851 
     82 H82        21.1510  -22.7449  -48.4267 H         1 UNK         0.0851 
     83 H83        20.4192  -24.3266  -48.6604 H         1 UNK         0.0851 
     84 H84        18.6527  -24.8860  -46.9935 H         1 UNK         0.2976 
     85 H85        21.2084  -24.8822  -43.6701 H         1 UNK         0.3116 
     86 H86        21.1226  -24.1537  -41.5974 H         1 UNK         0.0646 
     87 H87        23.1738  -23.1228  -40.6870 H         1 UNK         0.0847 
     88 H88        23.0881  -22.8520  -42.4192 H         1 UNK         0.0847 
     89 H89        24.1794  -24.0747  -41.7689 H         1 UNK         0.0847 
     90 H90        20.7013  -26.7873  -41.5900 H         1 UNK         0.3040 
     91 H91        20.3711  -28.5548  -40.2873 H         1 UNK         0.1015 
     92 H92        21.3356  -26.8446  -37.9470 H         1 UNK         0.0786 
     93 H93        20.3195  -28.2744  -37.8599 H         1 UNK         0.0786 
     94 H94        19.7043  -26.8175  -38.6182 H         1 UNK         0.0786 
     95 H95        23.1726  -28.0976  -41.4189 H         1 UNK         0.3172 
     96 H96        24.7613  -30.0068  -39.8254 H         1 UNK         0.0595 
     97 H97        25.3943  -28.6901  -42.5229 H         1 UNK         0.0839 
     98 H98        26.5317  -29.4744  -41.4286 H         1 UNK         0.0839 
     99 H99        25.7795  -27.9640  -40.9677 H         1 UNK         0.0839 
    100 H100       25.9602  -31.2524  -42.1257 H         1 UNK         0.2998 
    101 H101       25.8978  -33.1116  -43.3365 H         1 UNK         0.0822 
    102 H102       24.7416  -31.6056  -44.9393 H         1 UNK         0.0787 
    103 H103       24.1613  -33.2483  -45.1169 H         1 UNK         0.0787 
    104 H104       23.1732  -32.0481  -44.2848 H         1 UNK         0.0787 
    105 H105       22.6586  -33.9399  -43.6382 H         1 UNK         0.3055 
    106 H106       22.8588  -36.3487  -42.1509 H         1 UNK         0.1106 
    107 H107       20.4258  -36.5676  -42.7278 H         1 UNK         0.0828 
    108 H108       20.3978  -34.8976  -43.2756 H         1 UNK         0.0828 
    109 H109       21.3777  -36.0946  -44.1236 H         1 UNK         0.0828 
    110 H110       21.9580  -33.1525  -41.0825 H         1 UNK         0.2931 
    111 H111       20.8457  -34.1896  -38.5247 H         1 UNK         0.0412 
    112 H112       24.6184  -33.0679  -38.1541 H         1 UNK         0.3472 
    113 H113       23.9538  -33.6482  -39.6618 H         1 UNK         0.3472 
    114 H114       20.3200  -31.6567  -38.1870 H         1 UNK         0.0970 
    115 H115       20.6357  -31.4666  -39.8813 H         1 UNK         0.0970 
    116 H116       19.1494  -33.3406  -41.6995 H         1 UNK         0.0612 
    117 H117       17.4418  -33.0461  -41.5017 H         1 UNK         0.0612 
@<TRIPOS>BOND
     1    1    2 1    
     2    1   62 1    
     3    1   63 1    
     4    1   64 1    
     5    2    3 2    
     6    2    4 am   BACKBONE|DICT|INTERRES
     7    4    5 1    
     8    4   65 1    
     9    5    6 1    
    10    5   25 1    
    11    5   66 1    
    12    6    7 1    
    13    6   67 1    
    14    6   68 1    
    15    7    8 1    
    16    8    9 1    
    17    8   69 1    
    18    8   70 1    
    19    9   10 ar   
    20    9   14 ar   
    21   10   11 ar   
    22   10   71 1    
    23   11   12 ar   
    24   11   61 1    
    25   12   13 ar   
    26   12   72 1    
    27   13   14 ar   
    28   13   15 1    
    29   14   73 1    
    30   15   16 1    
    31   15   74 1    
    32   15   75 1    
    33   16   17 1    
    34   17   18 1    
    35   17   76 1    
    36   17   77 1    
    37   18   19 1    
    38   18   27 1    
    39   18   78 1    
    40   19   20 am   BACKBONE|DICT|INTERRES
    41   19   79 1    
    42   20   21 2    
    43   20   22 1    
    44   22   23 1    
    45   22   24 1    
    46   22   80 1    
    47   23   81 1    
    48   23   82 1    
    49   23   83 1    
    50   24   25 am   BACKBONE|DICT|INTERRES
    51   24   84 1    
    52   25   26 2    
    53   27   28 2    
    54   27   29 am   BACKBONE|DICT|INTERRES
    55   29   30 1    
    56   29   85 1    
    57   30   31 1    
    58   30   32 1    
    59   30   86 1    
    60   31   87 1    
    61   31   88 1    
    62   31   89 1    
    63   32   33 2    
    64   32   34 am   BACKBONE|DICT|INTERRES
    65   34   35 1    
    66   34   90 1    
    67   35   36 1    
    68   35   37 1    
    69   35   91 1    
    70   36   92 1    
    71   36   93 1    
    72   36   94 1    
    73   37   38 2    
    74   37   39 am   BACKBONE|DICT|INTERRES
    75   39   40 1    
    76   39   95 1    
    77   40   41 1    
    78   40   42 1    
    79   40   96 1    
    80   41   97 1    
    81   41   98 1    
    82   41   99 1    
    83   42   43 2    
    84   42   44 am   BACKBONE|DICT|INTERRES
    85   44   45 1    
    86   44  100 1    
    87   45   46 1    
    88   45   47 1    
    89   45  101 1    
    90   46  102 1    
    91   46  103 1    
    92   46  104 1    
    93   47   48 2    
    94   47   49 am   BACKBONE|DICT|INTERRES
    95   49   50 1    
    96   49  105 1    
    97   50   51 1    
    98   50   52 1    
    99   50  106 1    
   100   51  107 1    
   101   51  108 1    
   102   51  109 1    
   103   52   53 2    
   104   52   54 am   BACKBONE|DICT|INTERRES
   105   54   55 1    
   106   54  110 1    
   107   55   56 1    
   108   55   59 1    
   109   55  111 1    
   110   56   57 am   BACKBONE|DICT|INTERRES
   111   56   58 2    
   112   57  112 1    
   113   57  113 1    
   114   59   60 1    
   115   59  114 1    
   116   59  115 1    
   117   60   61 1    
   118   61  116 1    
   119   61  117 1    
@<TRIPOS>SUBSTRUCTURE
     1 UNK         1 GROUP             0       ****    0 ROOT    
