@<TRIPOS>MOLECULE
3R8
117   119    1
SMALL
USER_CHARGES


@<TRIPOS>ATOM
      1 CA         20.1058  -25.5981  -39.6217 C.3       0 UNK        -0.2013 
      2 C          19.4190  -25.0507  -40.8641 C.2       0 UNK         0.4866 
      3 O          19.2997  -23.8358  -41.0179 O.2       0 UNK        -0.5176 
      4 N          18.9793  -25.9400  -41.7632 N.am      1 UNK        -0.4884 
      5 CA         18.2438  -25.6190  -42.9977 C.3       1 UNK         0.0853 
      6 C6         17.4753  -26.8550  -43.5391 C.3       10 UNK        -0.0849 
      7 S7         16.4358  -27.7026  -42.3042 S.3       10 UNK        -0.2776 
      8 C8         15.4883  -28.8392  -43.3720 C.3       10 UNK         0.0316 
      9 C9         16.3932  -29.7427  -44.2017 C.ar      10 UNK        -0.0863 
     10 C10        17.1059  -30.7765  -43.5891 C.ar      10 UNK        -0.1009 
     11 C11        17.9653  -31.5977  -44.3337 C.ar      10 UNK        -0.0712 
     12 C12        18.0749  -31.3839  -45.7126 C.ar      10 UNK        -0.0894 
     13 C13        17.3566  -30.3626  -46.3422 C.ar      10 UNK        -0.0745 
     14 C14        16.5201  -29.5428  -45.5791 C.ar      10 UNK        -0.0972 
     15 C15        17.4575  -30.1591  -47.8505 C.3       10 UNK         0.0209 
     16 S16        19.1145  -29.6337  -48.4036 S.3       10 UNK        -0.2568 
     17 C17        19.3296  -28.0421  -47.5328 C.3       10 UNK        -0.0983 
     18 CA         20.7456  -27.8002  -46.9453 C.3       3 UNK         0.0876 
     19 N          20.7848  -26.4850  -46.2917 N.am      3 UNK        -0.4424 
     20 C          21.8438  -25.8978  -45.7189 C.2       2 UNK         0.4918 
     21 O          22.9887  -26.3437  -45.7775 O.2       2 UNK        -0.4875 
     22 CA         21.5561  -24.6753  -44.8274 C.3       2 UNK         0.0481 
     23 CB         21.3549  -23.3931  -45.6578 C.3       2 UNK        -0.1831 
     24 N          20.4552  -24.9214  -43.8785 N.am      2 UNK        -0.4498 
     25 C          19.1421  -25.0581  -44.1267 C.2       1 UNK         0.5027 
     26 O          18.6483  -24.8629  -45.2383 O.2       1 UNK        -0.4969 
     27 C          21.2063  -28.9345  -45.9934 C.2       3 UNK         0.5005 
     28 O          21.8556  -29.8837  -46.4346 O.2       3 UNK        -0.5279 
     29 N          20.9190  -28.7758  -44.6931 N.am      4 UNK        -0.4463 
     30 CA         21.3425  -29.6625  -43.6073 C.3       4 UNK         0.0283 
     31 CB         20.4606  -29.3756  -42.3818 C.3       4 UNK        -0.1875 
     32 C          22.8367  -29.5421  -43.2354 C.2       4 UNK         0.4949 
     33 O          23.2974  -30.3128  -42.3942 O.2       4 UNK        -0.5039 
     34 N          23.5577  -28.5821  -43.8408 N.am      5 UNK        -0.4663 
     35 CA         24.9663  -28.2371  -43.6046 C.3       5 UNK         0.0242 
     36 CB         25.9008  -29.4058  -43.9860 C.3       5 UNK        -0.1982 
     37 C          25.2086  -27.7033  -42.1803 C.2       5 UNK         0.5017 
     38 O          26.1732  -28.1007  -41.5253 O.2       5 UNK        -0.5012 
     39 N          24.3005  -26.8275  -41.7212 N.am      6 UNK        -0.4439 
     40 CA         24.2356  -26.1427  -40.4173 C.3       6 UNK         0.0297 
     41 CB         25.4866  -25.2768  -40.1719 C.3       6 UNK        -0.2006 
     42 C          23.9495  -27.0547  -39.2068 C.2       6 UNK         0.4892 
     43 O          23.2897  -26.6092  -38.2671 O.2       6 UNK        -0.5089 
     44 N          24.4281  -28.3017  -39.2495 N.am      7 UNK        -0.4243 
     45 CA         24.1287  -29.3745  -38.3032 C.3       7 UNK         0.0196 
     46 CB         25.1734  -30.4880  -38.5017 C.3       7 UNK        -0.2007 
     47 C          22.7034  -29.9236  -38.4972 C.2       7 UNK         0.5020 
     48 O          22.0066  -29.5503  -39.4428 O.2       7 UNK        -0.5147 
     49 N          22.3014  -30.8555  -37.6248 N.am      8 UNK        -0.4734 
     50 CA         21.0319  -31.5879  -37.7059 C.3       8 UNK         0.0238 
     51 CB         20.6629  -32.1011  -36.3008 C.3       8 UNK        -0.1912 
     52 C          21.0831  -32.7169  -38.7586 C.2       8 UNK         0.5038 
     53 O          20.8531  -33.8804  -38.4237 O.2       8 UNK        -0.5046 
     54 N          21.4104  -32.3496  -40.0044 N.am      9 UNK        -0.4200 
     55 CA         21.5434  -33.2249  -41.1838 C.3       9 UNK         0.0839 
     56 C          22.7499  -34.2109  -41.1301 C.2       9 UNK         0.5513 
     57 N          23.7160  -34.0300  -40.2372 N.am      9 UNK        -0.7519 
     58 O          22.8313  -35.1399  -41.9298 O.2       9 UNK        -0.4960 
     59 C59        20.2111  -33.9251  -41.5833 C.3       10 UNK        -0.0876 
     60 S60        18.8636  -32.7317  -41.8824 S.3       10 UNK        -0.2414 
     61 C61        18.7903  -32.7259  -43.7078 C.3       10 UNK         0.0169 
     62 H62        20.3298  -26.6615  -39.7108 H         1 UNK         0.0903 
     63 H63        21.0439  -25.0724  -39.4453 H         1 UNK         0.0903 
     64 H64        19.4694  -25.4559  -38.7488 H         1 UNK         0.0903 
     65 H65        19.0508  -26.9252  -41.5529 H         1 UNK         0.3096 
     66 H66        17.5137  -24.8407  -42.7638 H         1 UNK         0.1121 
     67 H67        16.8294  -26.5634  -44.3702 H         1 UNK         0.0849 
     68 H68        18.1727  -27.5913  -43.9421 H         1 UNK         0.0849 
     69 H69        14.8386  -29.4540  -42.7473 H         1 UNK         0.0865 
     70 H70        14.8269  -28.2569  -44.0156 H         1 UNK         0.0865 
     71 H71        16.9918  -30.9168  -42.5241 H         1 UNK         0.1346 
     72 H72        18.7267  -32.0137  -46.3032 H         1 UNK         0.1412 
     73 H73        15.9646  -28.7483  -46.0587 H         1 UNK         0.1426 
     74 H74        16.7259  -29.4255  -48.1930 H         1 UNK         0.0716 
     75 H75        17.2039  -31.0952  -48.3499 H         1 UNK         0.0716 
     76 H76        19.0913  -27.2508  -48.2453 H         1 UNK         0.0695 
     77 H77        18.5844  -27.9558  -46.7413 H         1 UNK         0.0695 
     78 H78        21.4588  -27.7714  -47.7718 H         1 UNK         0.0983 
     79 H79        19.8930  -26.0108  -46.1816 H         1 UNK         0.3095 
     80 H80        22.4421  -24.5208  -44.2093 H         1 UNK         0.0454 
     81 H81        22.2489  -23.1680  -46.2406 H         1 UNK         0.0851 
     82 H82        20.5280  -23.4777  -46.3630 H         1 UNK         0.0851 
     83 H83        21.1617  -22.5331  -45.0170 H         1 UNK         0.0851 
     84 H84        20.7410  -25.0939  -42.9250 H         1 UNK         0.2976 
     85 H85        20.3927  -27.9597  -44.4267 H         1 UNK         0.3116 
     86 H86        21.1670  -30.6920  -43.9236 H         1 UNK         0.0646 
     87 H87        20.6158  -30.1310  -41.6132 H         1 UNK         0.0847 
     88 H88        19.4004  -29.3970  -42.6309 H         1 UNK         0.0847 
     89 H89        20.6908  -28.4090  -41.9336 H         1 UNK         0.0847 
     90 H90        23.0982  -28.0150  -44.5442 H         1 UNK         0.3040 
     91 H91        25.1945  -27.4085  -44.2774 H         1 UNK         0.1015 
     92 H92        25.7851  -30.2572  -43.3147 H         1 UNK         0.0786 
     93 H93        26.9464  -29.0989  -43.9405 H         1 UNK         0.0786 
     94 H94        25.7088  -29.7509  -45.0019 H         1 UNK         0.0786 
     95 H95        23.5318  -26.6231  -42.3425 H         1 UNK         0.3172 
     96 H96        23.3844  -25.4642  -40.4930 H         1 UNK         0.0595 
     97 H97        25.3779  -24.6883  -39.2599 H         1 UNK         0.0839 
     98 H98        26.3869  -25.8814  -40.0585 H         1 UNK         0.0839 
     99 H99        25.6527  -24.5768  -40.9906 H         1 UNK         0.0839 
    100 H100       24.9774  -28.5529  -40.0647 H         1 UNK         0.2998 
    101 H101       24.2100  -28.9793  -37.2885 H         1 UNK         0.0822 
    102 H102       25.0509  -31.2899  -37.7730 H         1 UNK         0.0787 
    103 H103       25.1001  -30.9329  -39.4957 H         1 UNK         0.0787 
    104 H104       26.1871  -30.1039  -38.3842 H         1 UNK         0.0787 
    105 H105       22.9332  -31.1345  -36.8873 H         1 UNK         0.3055 
    106 H106       20.2453  -30.8982  -38.0219 H         1 UNK         0.1106 
    107 H107       20.5787  -31.2808  -35.5878 H         1 UNK         0.0828 
    108 H108       19.7009  -32.6155  -36.3128 H         1 UNK         0.0828 
    109 H109       21.4039  -32.8044  -35.9187 H         1 UNK         0.0828 
    110 H110       21.6234  -31.3687  -40.1579 H         1 UNK         0.2931 
    111 H111       21.7944  -32.5493  -42.0015 H         1 UNK         0.0412 
    112 H112       24.4971  -34.6667  -40.2178 H         1 UNK         0.3472 
    113 H113       23.6652  -33.2685  -39.5812 H         1 UNK         0.3472 
    114 H114       20.3456  -34.5325  -42.4800 H         1 UNK         0.0970 
    115 H115       19.8932  -34.6185  -40.8035 H         1 UNK         0.0970 
    116 H116       18.3860  -33.6823  -44.0416 H         1 UNK         0.0612 
    117 H117       19.8099  -32.6667  -44.0908 H         1 UNK         0.0612 
@<TRIPOS>BOND
     1    1    2 1    
     2    1   62 1    
     3    1   63 1    
     4    1   64 1    
     5    2    3 2    
     6    2    4 am   BACKBONE|DICT|INTERRES
     7    4    5 1    
     8    4   65 1    
     9    5    6 1    
    10    5   25 1    
    11    5   66 1    
    12    6    7 1    
    13    6   67 1    
    14    6   68 1    
    15    7    8 1    
    16    8    9 1    
    17    8   69 1    
    18    8   70 1    
    19    9   10 ar   
    20    9   14 ar   
    21   10   11 ar   
    22   10   71 1    
    23   11   12 ar   
    24   11   61 1    
    25   12   13 ar   
    26   12   72 1    
    27   13   14 ar   
    28   13   15 1    
    29   14   73 1    
    30   15   16 1    
    31   15   74 1    
    32   15   75 1    
    33   16   17 1    
    34   17   18 1    
    35   17   76 1    
    36   17   77 1    
    37   18   19 1    
    38   18   27 1    
    39   18   78 1    
    40   19   20 am   BACKBONE|DICT|INTERRES
    41   19   79 1    
    42   20   21 2    
    43   20   22 1    
    44   22   23 1    
    45   22   24 1    
    46   22   80 1    
    47   23   81 1    
    48   23   82 1    
    49   23   83 1    
    50   24   25 am   BACKBONE|DICT|INTERRES
    51   24   84 1    
    52   25   26 2    
    53   27   28 2    
    54   27   29 am   BACKBONE|DICT|INTERRES
    55   29   30 1    
    56   29   85 1    
    57   30   31 1    
    58   30   32 1    
    59   30   86 1    
    60   31   87 1    
    61   31   88 1    
    62   31   89 1    
    63   32   33 2    
    64   32   34 am   BACKBONE|DICT|INTERRES
    65   34   35 1    
    66   34   90 1    
    67   35   36 1    
    68   35   37 1    
    69   35   91 1    
    70   36   92 1    
    71   36   93 1    
    72   36   94 1    
    73   37   38 2    
    74   37   39 am   BACKBONE|DICT|INTERRES
    75   39   40 1    
    76   39   95 1    
    77   40   41 1    
    78   40   42 1    
    79   40   96 1    
    80   41   97 1    
    81   41   98 1    
    82   41   99 1    
    83   42   43 2    
    84   42   44 am   BACKBONE|DICT|INTERRES
    85   44   45 1    
    86   44  100 1    
    87   45   46 1    
    88   45   47 1    
    89   45  101 1    
    90   46  102 1    
    91   46  103 1    
    92   46  104 1    
    93   47   48 2    
    94   47   49 am   BACKBONE|DICT|INTERRES
    95   49   50 1    
    96   49  105 1    
    97   50   51 1    
    98   50   52 1    
    99   50  106 1    
   100   51  107 1    
   101   51  108 1    
   102   51  109 1    
   103   52   53 2    
   104   52   54 am   BACKBONE|DICT|INTERRES
   105   54   55 1    
   106   54  110 1    
   107   55   56 1    
   108   55   59 1    
   109   55  111 1    
   110   56   57 am   BACKBONE|DICT|INTERRES
   111   56   58 2    
   112   57  112 1    
   113   57  113 1    
   114   59   60 1    
   115   59  114 1    
   116   59  115 1    
   117   60   61 1    
   118   61  116 1    
   119   61  117 1    
@<TRIPOS>SUBSTRUCTURE
     1 UNK         1 GROUP             0       ****    0 ROOT    
