@<TRIPOS>MOLECULE
3R8
117   119    1
SMALL
USER_CHARGES


@<TRIPOS>ATOM
      1 CA         16.9721  -24.9987  -49.5687 C.3       0 UNK        -0.2013 
      2 C          17.8996  -25.5060  -48.4746 C.2       0 UNK         0.4866 
      3 O          18.9516  -24.9109  -48.2387 O.2       0 UNK        -0.5176 
      4 N          17.5227  -26.6061  -47.8123 N.am      1 UNK        -0.4884 
      5 CA         18.2412  -27.1977  -46.6792 C.3       1 UNK         0.0853 
      6 C6         17.8195  -28.6695  -46.4271 C.3       10 UNK        -0.0849 
      7 S7         16.0123  -28.9469  -46.4084 S.3       10 UNK        -0.2776 
      8 C8         15.9234  -30.7025  -45.9255 C.3       10 UNK         0.0316 
      9 C9         16.4076  -30.9230  -44.4997 C.ar      10 UNK        -0.0863 
     10 C10        17.5189  -31.7309  -44.2410 C.ar      10 UNK        -0.1009 
     11 C11        17.9796  -31.9018  -42.9313 C.ar      10 UNK        -0.0712 
     12 C12        17.3140  -31.2712  -41.8762 C.ar      10 UNK        -0.0894 
     13 C13        16.2189  -30.4418  -42.1289 C.ar      10 UNK        -0.0745 
     14 C14        15.7559  -30.2918  -43.4377 C.ar      10 UNK        -0.0972 
     15 C15        15.5605  -29.6577  -41.0079 C.3       10 UNK         0.0209 
     16 S16        16.0999  -27.9183  -41.0509 S.3       10 UNK        -0.2568 
     17 C17        17.6450  -27.9596  -40.0817 C.3       10 UNK        -0.0983 
     18 CA         18.9464  -28.1900  -40.9048 C.3       3 UNK         0.0876 
     19 N          19.1022  -27.3279  -42.0890 N.am      3 UNK        -0.4424 
     20 C          19.1469  -25.9899  -42.1409 C.2       2 UNK         0.4918 
     21 O          19.0420  -25.2633  -41.1518 O.2       2 UNK        -0.4875 
     22 CA         19.4040  -25.3396  -43.5102 C.3       2 UNK         0.0481 
     23 CB         20.8403  -24.7918  -43.5594 C.3       2 UNK        -0.1831 
     24 N          19.2209  -26.2510  -44.6445 N.am      2 UNK        -0.4498 
     25 C          18.1276  -26.3144  -45.4148 C.2       1 UNK         0.5027 
     26 O          17.0833  -25.7005  -45.1787 O.2       1 UNK        -0.4969 
     27 C          20.1697  -28.1615  -39.9605 C.2       3 UNK         0.5005 
     28 O          20.7371  -29.2108  -39.6586 O.2       3 UNK        -0.5279 
     29 N          20.5401  -26.9639  -39.4911 N.am      4 UNK        -0.4463 
     30 CA         21.5562  -26.7184  -38.4634 C.3       4 UNK         0.0283 
     31 CB         21.2954  -25.3368  -37.8402 C.3       4 UNK        -0.1875 
     32 C          23.0089  -26.8141  -38.9624 C.2       4 UNK         0.4949 
     33 O          23.9261  -26.7534  -38.1418 O.2       4 UNK        -0.5039 
     34 N          23.2113  -26.9381  -40.2806 N.am      5 UNK        -0.4663 
     35 CA         24.5193  -26.9965  -40.9372 C.3       5 UNK         0.0242 
     36 CB         24.3462  -26.6693  -42.4309 C.3       5 UNK        -0.1982 
     37 C          25.2393  -28.3392  -40.7049 C.2       5 UNK         0.5017 
     38 O          25.3280  -29.1575  -41.6223 O.2       5 UNK        -0.5012 
     39 N          25.7195  -28.5408  -39.4691 N.am      6 UNK        -0.4439 
     40 CA         26.6173  -29.6083  -38.9994 C.3       6 UNK         0.0297 
     41 CB         28.0344  -29.3747  -39.5649 C.3       6 UNK        -0.2006 
     42 C          26.1241  -31.0477  -39.2596 C.2       6 UNK         0.4892 
     43 O          26.9465  -31.9525  -39.4074 O.2       6 UNK        -0.5089 
     44 N          24.7970  -31.2256  -39.3463 N.am      7 UNK        -0.4243 
     45 CA         24.0763  -32.4472  -39.7372 C.3       7 UNK         0.0196 
     46 CB         24.3407  -33.6006  -38.7461 C.3       7 UNK        -0.2007 
     47 C          24.2916  -32.8799  -41.2054 C.2       7 UNK         0.5020 
     48 O          23.7695  -33.9218  -41.6034 O.2       7 UNK        -0.5147 
     49 N          25.0083  -32.0719  -42.0001 N.am      8 UNK        -0.4734 
     50 CA         25.0773  -32.1849  -43.4591 C.3       8 UNK         0.0238 
     51 CB         26.3877  -31.5568  -43.9604 C.3       8 UNK        -0.1912 
     52 C          23.8618  -31.5065  -44.1121 C.2       8 UNK         0.5038 
     53 O          23.4239  -31.9437  -45.1762 O.2       8 UNK        -0.5046 
     54 N          23.3340  -30.4741  -43.4388 N.am      9 UNK        -0.4200 
     55 CA         22.0815  -29.7617  -43.7336 C.3       9 UNK         0.0839 
     56 C          22.1324  -28.8116  -44.9632 C.2       9 UNK         0.5513 
     57 N          23.2737  -28.6069  -45.6068 N.am      9 UNK        -0.7519 
     58 O          21.1226  -28.2021  -45.3027 O.2       9 UNK        -0.4960 
     59 C59        20.8342  -30.6898  -43.7598 C.3       10 UNK        -0.0876 
     60 S60        20.6434  -31.6657  -42.2284 S.3       10 UNK        -0.2414 
     61 C61        19.2276  -32.7266  -42.6575 C.3       10 UNK         0.0169 
     62 H62        17.4943  -24.9800  -50.5250 H         1 UNK         0.0903 
     63 H63        16.0880  -25.6267  -49.6775 H         1 UNK         0.0903 
     64 H64        16.6421  -23.9856  -49.3404 H         1 UNK         0.0903 
     65 H65        16.6324  -27.0385  -48.0178 H         1 UNK         0.3096 
     66 H66        19.2975  -27.2135  -46.9585 H         1 UNK         0.1121 
     67 H67        18.2389  -29.2986  -47.2138 H         1 UNK         0.0849 
     68 H68        18.2552  -29.0388  -45.4971 H         1 UNK         0.0849 
     69 H69        16.4976  -31.3010  -46.6345 H         1 UNK         0.0865 
     70 H70        14.8892  -31.0403  -46.0050 H         1 UNK         0.0865 
     71 H71        18.0395  -32.2092  -45.0595 H         1 UNK         0.1346 
     72 H72        17.6830  -31.3867  -40.8660 H         1 UNK         0.1412 
     73 H73        14.9124  -29.6442  -43.6362 H         1 UNK         0.1426 
     74 H74        15.7723  -30.1018  -40.0343 H         1 UNK         0.0716 
     75 H75        14.4769  -29.6934  -41.1304 H         1 UNK         0.0716 
     76 H76        17.5499  -28.7234  -39.3077 H         1 UNK         0.0695 
     77 H77        17.6979  -27.0097  -39.5466 H         1 UNK         0.0695 
     78 H78        18.9070  -29.2023  -41.3036 H         1 UNK         0.0983 
     79 H79        19.1842  -27.8182  -42.9666 H         1 UNK         0.3095 
     80 H80        18.7190  -24.4941  -43.6012 H         1 UNK         0.0454 
     81 H81        21.0241  -24.2487  -44.4866 H         1 UNK         0.0851 
     82 H82        21.5798  -25.5899  -43.4885 H         1 UNK         0.0851 
     83 H83        21.0274  -24.0977  -42.7386 H         1 UNK         0.0851 
     84 H84        20.0223  -26.8243  -44.9061 H         1 UNK         0.2976 
     85 H85        20.0283  -26.1557  -39.8396 H         1 UNK         0.3116 
     86 H86        21.4385  -27.4710  -37.6810 H         1 UNK         0.0646 
     87 H87        22.0034  -25.1268  -37.0371 H         1 UNK         0.0847 
     88 H88        20.2958  -25.2776  -37.4091 H         1 UNK         0.0847 
     89 H89        21.3914  -24.5378  -38.5765 H         1 UNK         0.0847 
     90 H90        22.3980  -27.0024  -40.8732 H         1 UNK         0.3040 
     91 H91        25.1545  -26.2175  -40.5089 H         1 UNK         0.1015 
     92 H92        23.9549  -25.6620  -42.5729 H         1 UNK         0.0786 
     93 H93        23.6696  -27.3651  -42.9223 H         1 UNK         0.0786 
     94 H94        25.3011  -26.7197  -42.9560 H         1 UNK         0.0786 
     95 H95        25.4573  -27.8476  -38.7725 H         1 UNK         0.3172 
     96 H96        26.6715  -29.5027  -37.9150 H         1 UNK         0.0595 
     97 H97        28.0631  -29.5150  -40.6462 H         1 UNK         0.0839 
     98 H98        28.7549  -30.0667  -39.1270 H         1 UNK         0.0839 
     99 H99        28.3881  -28.3667  -39.3482 H         1 UNK         0.0839 
    100 H100       24.2176  -30.4075  -39.2168 H         1 UNK         0.2998 
    101 H101       23.0171  -32.1939  -39.6648 H         1 UNK         0.0822 
    102 H102       25.3629  -33.9728  -38.8163 H         1 UNK         0.0787 
    103 H103       24.1657  -33.2879  -37.7167 H         1 UNK         0.0787 
    104 H104       23.6778  -34.4439  -38.9438 H         1 UNK         0.0787 
    105 H105       25.3880  -31.2203  -41.6009 H         1 UNK         0.3055 
    106 H106       25.0670  -33.2398  -43.7431 H         1 UNK         0.1106 
    107 H107       26.4744  -31.6505  -45.0437 H         1 UNK         0.0828 
    108 H108       26.4498  -30.4951  -43.7185 H         1 UNK         0.0828 
    109 H109       27.2553  -32.0504  -43.5221 H         1 UNK         0.0828 
    110 H110       23.8385  -30.1467  -42.6236 H         1 UNK         0.2931 
    111 H111       21.9483  -29.0911  -42.8838 H         1 UNK         0.0412 
    112 H112       24.1102  -29.0946  -45.3306 H         1 UNK         0.3472 
    113 H113       23.2916  -27.9730  -46.3897 H         1 UNK         0.3472 
    114 H114       19.9277  -30.0971  -43.8885 H         1 UNK         0.0970 
    115 H115       20.8753  -31.3693  -44.6124 H         1 UNK         0.0970 
    116 H116       19.4873  -33.3428  -43.5197 H         1 UNK         0.0612 
    117 H117       19.0362  -33.4139  -41.8323 H         1 UNK         0.0612 
@<TRIPOS>BOND
     1    1    2 1    
     2    1   62 1    
     3    1   63 1    
     4    1   64 1    
     5    2    3 2    
     6    2    4 am   BACKBONE|DICT|INTERRES
     7    4    5 1    
     8    4   65 1    
     9    5    6 1    
    10    5   25 1    
    11    5   66 1    
    12    6    7 1    
    13    6   67 1    
    14    6   68 1    
    15    7    8 1    
    16    8    9 1    
    17    8   69 1    
    18    8   70 1    
    19    9   10 ar   
    20    9   14 ar   
    21   10   11 ar   
    22   10   71 1    
    23   11   12 ar   
    24   11   61 1    
    25   12   13 ar   
    26   12   72 1    
    27   13   14 ar   
    28   13   15 1    
    29   14   73 1    
    30   15   16 1    
    31   15   74 1    
    32   15   75 1    
    33   16   17 1    
    34   17   18 1    
    35   17   76 1    
    36   17   77 1    
    37   18   19 1    
    38   18   27 1    
    39   18   78 1    
    40   19   20 am   BACKBONE|DICT|INTERRES
    41   19   79 1    
    42   20   21 2    
    43   20   22 1    
    44   22   23 1    
    45   22   24 1    
    46   22   80 1    
    47   23   81 1    
    48   23   82 1    
    49   23   83 1    
    50   24   25 am   BACKBONE|DICT|INTERRES
    51   24   84 1    
    52   25   26 2    
    53   27   28 2    
    54   27   29 am   BACKBONE|DICT|INTERRES
    55   29   30 1    
    56   29   85 1    
    57   30   31 1    
    58   30   32 1    
    59   30   86 1    
    60   31   87 1    
    61   31   88 1    
    62   31   89 1    
    63   32   33 2    
    64   32   34 am   BACKBONE|DICT|INTERRES
    65   34   35 1    
    66   34   90 1    
    67   35   36 1    
    68   35   37 1    
    69   35   91 1    
    70   36   92 1    
    71   36   93 1    
    72   36   94 1    
    73   37   38 2    
    74   37   39 am   BACKBONE|DICT|INTERRES
    75   39   40 1    
    76   39   95 1    
    77   40   41 1    
    78   40   42 1    
    79   40   96 1    
    80   41   97 1    
    81   41   98 1    
    82   41   99 1    
    83   42   43 2    
    84   42   44 am   BACKBONE|DICT|INTERRES
    85   44   45 1    
    86   44  100 1    
    87   45   46 1    
    88   45   47 1    
    89   45  101 1    
    90   46  102 1    
    91   46  103 1    
    92   46  104 1    
    93   47   48 2    
    94   47   49 am   BACKBONE|DICT|INTERRES
    95   49   50 1    
    96   49  105 1    
    97   50   51 1    
    98   50   52 1    
    99   50  106 1    
   100   51  107 1    
   101   51  108 1    
   102   51  109 1    
   103   52   53 2    
   104   52   54 am   BACKBONE|DICT|INTERRES
   105   54   55 1    
   106   54  110 1    
   107   55   56 1    
   108   55   59 1    
   109   55  111 1    
   110   56   57 am   BACKBONE|DICT|INTERRES
   111   56   58 2    
   112   57  112 1    
   113   57  113 1    
   114   59   60 1    
   115   59  114 1    
   116   59  115 1    
   117   60   61 1    
   118   61  116 1    
   119   61  117 1    
@<TRIPOS>SUBSTRUCTURE
     1 UNK         1 GROUP             0       ****    0 ROOT    
