@<TRIPOS>MOLECULE
3R8
117   119    1
SMALL
USER_CHARGES


@<TRIPOS>ATOM
      1 CA         20.7647  -29.1591  -50.0727 C.3       0 UNK        -0.2013 
      2 C          20.9790  -29.2222  -48.5679 C.2       0 UNK         0.4866 
      3 O          22.1216  -29.1985  -48.1110 O.2       0 UNK        -0.5176 
      4 N          19.8894  -29.3109  -47.7961 N.am      1 UNK        -0.4884 
      5 CA         19.8932  -29.3048  -46.3307 C.3       1 UNK         0.0853 
      6 C6         18.5610  -29.8496  -45.7611 C.3       10 UNK        -0.0849 
      7 S7         17.0496  -29.0103  -46.3702 S.3       10 UNK        -0.2776 
      8 C8         15.7331  -29.8957  -45.4650 C.3       10 UNK         0.0316 
      9 C9         15.9917  -29.8761  -43.9671 C.ar      10 UNK        -0.0863 
     10 C10        16.4640  -31.0198  -43.3209 C.ar      10 UNK        -0.1009 
     11 C11        16.8730  -30.9650  -41.9858 C.ar      10 UNK        -0.0712 
     12 C12        16.7348  -29.7667  -41.2743 C.ar      10 UNK        -0.0894 
     13 C13        16.2085  -28.6293  -41.8987 C.ar      10 UNK        -0.0745 
     14 C14        15.8384  -28.6926  -43.2446 C.ar      10 UNK        -0.0972 
     15 C15        16.0423  -27.3190  -41.1445 C.3       10 UNK         0.0209 
     16 S16        17.1790  -26.0438  -41.7799 S.3       10 UNK        -0.2568 
     17 C17        18.5138  -26.0682  -40.5415 C.3       10 UNK        -0.0983 
     18 CA         19.5676  -27.1957  -40.7512 C.3       3 UNK         0.0876 
     19 N          20.1351  -27.2540  -42.1070 N.am      3 UNK        -0.4424 
     20 C          20.8998  -26.3164  -42.6844 C.2       2 UNK         0.4918 
     21 O          21.1548  -25.2286  -42.1652 O.2       2 UNK        -0.4875 
     22 CA         21.5179  -26.6375  -44.0558 C.3       2 UNK         0.0481 
     23 CB         23.0437  -26.7696  -43.9257 C.3       2 UNK        -0.1831 
     24 N          20.9955  -27.8690  -44.6600 N.am      2 UNK        -0.4498 
     25 C          20.2500  -27.9068  -45.7740 C.2       1 UNK         0.5027 
     26 O          19.8540  -26.8985  -46.3662 O.2       1 UNK        -0.4969 
     27 C          20.6919  -27.1723  -39.6866 C.2       3 UNK         0.5005 
     28 O          21.7830  -27.6826  -39.9437 O.2       3 UNK        -0.5279 
     29 N          20.4410  -26.5742  -38.5131 N.am      4 UNK        -0.4463 
     30 CA         21.3631  -26.5123  -37.3697 C.3       4 UNK         0.0283 
     31 CB         20.6517  -25.8189  -36.1957 C.3       4 UNK        -0.1875 
     32 C          22.7269  -25.8409  -37.6406 C.2       4 UNK         0.4949 
     33 O          23.6402  -26.0049  -36.8313 O.2       4 UNK        -0.5039 
     34 N          22.8502  -25.1031  -38.7530 N.am      5 UNK        -0.4663 
     35 CA         24.0846  -24.4497  -39.1863 C.3       5 UNK         0.0242 
     36 CB         23.7656  -23.4530  -40.3122 C.3       5 UNK        -0.1982 
     37 C          25.1823  -25.4313  -39.6351 C.2       5 UNK         0.5017 
     38 O          26.3556  -25.1505  -39.3858 O.2       5 UNK        -0.5012 
     39 N          24.8050  -26.5402  -40.2925 N.am      6 UNK        -0.4439 
     40 CA         25.7585  -27.5091  -40.8573 C.3       6 UNK         0.0297 
     41 CB         26.4285  -26.9274  -42.1227 C.3       6 UNK        -0.2006 
     42 C          25.1790  -28.9100  -41.1339 C.2       6 UNK         0.4892 
     43 O          25.9070  -29.7439  -41.6743 O.2       6 UNK        -0.5089 
     44 N          23.9118  -29.1647  -40.7754 N.am      7 UNK        -0.4243 
     45 CA         23.1372  -30.3825  -41.0268 C.3       7 UNK         0.0196 
     46 CB         23.7279  -31.6074  -40.2917 C.3       7 UNK        -0.2007 
     47 C          22.9004  -30.6067  -42.5275 C.2       7 UNK         0.5020 
     48 O          21.9345  -30.0698  -43.0744 O.2       7 UNK        -0.5147 
     49 N          23.7493  -31.4344  -43.1514 N.am      8 UNK        -0.4734 
     50 CA         23.7143  -31.9256  -44.5392 C.3       8 UNK         0.0238 
     51 CB         23.7944  -30.7657  -45.5510 C.3       8 UNK        -0.1912 
     52 C          22.5501  -32.8884  -44.8536 C.2       8 UNK         0.5038 
     53 O          22.6731  -33.6896  -45.7803 O.2       8 UNK        -0.5046 
     54 N          21.4728  -32.8326  -44.0629 N.am      9 UNK        -0.4200 
     55 CA         20.3431  -33.7697  -44.0616 C.3       9 UNK         0.0839 
     56 C          20.6301  -35.1500  -43.4007 C.2       9 UNK         0.5513 
     57 N          21.7734  -35.3593  -42.7581 N.am      9 UNK        -0.7519 
     58 O          19.8029  -36.0538  -43.4873 O.2       9 UNK        -0.4960 
     59 C59        19.0662  -33.0986  -43.4952 C.3       10 UNK        -0.0876 
     60 S60        19.2285  -32.4354  -41.7963 S.3       10 UNK        -0.2414 
     61 C61        17.4799  -32.1973  -41.3262 C.3       10 UNK         0.0169 
     62 H62        21.2701  -29.9932  -50.5589 H         1 UNK         0.0903 
     63 H63        19.7081  -29.2023  -50.3367 H         1 UNK         0.0903 
     64 H64        21.1762  -28.2320  -50.4710 H         1 UNK         0.0903 
     65 H65        18.9713  -29.2830  -48.2175 H         1 UNK         0.3096 
     66 H66        20.6799  -29.9910  -46.0104 H         1 UNK         0.1121 
     67 H67        18.5900  -29.8043  -44.6713 H         1 UNK         0.0849 
     68 H68        18.4713  -30.9062  -46.0162 H         1 UNK         0.0849 
     69 H69        14.7710  -29.4279  -45.6787 H         1 UNK         0.0865 
     70 H70        15.6668  -30.9198  -45.8360 H         1 UNK         0.0865 
     71 H71        16.5628  -31.9411  -43.8762 H         1 UNK         0.1346 
     72 H72        17.0404  -29.7199  -40.2381 H         1 UNK         0.1412 
     73 H73        15.4717  -27.8049  -43.7424 H         1 UNK         0.1426 
     74 H74        16.1805  -27.4612  -40.0719 H         1 UNK         0.0716 
     75 H75        15.0178  -26.9667  -41.2731 H         1 UNK         0.0716 
     76 H76        18.0458  -26.1443  -39.5590 H         1 UNK         0.0695 
     77 H77        18.9950  -25.0889  -40.5692 H         1 UNK         0.0695 
     78 H78        19.0617  -28.1504  -40.6070 H         1 UNK         0.0983 
     79 H79        20.0122  -28.1290  -42.5935 H         1 UNK         0.3095 
     80 H80        21.3152  -25.7779  -44.6973 H         1 UNK         0.0454 
     81 H81        23.5115  -26.9372  -44.8958 H         1 UNK         0.0851 
     82 H82        23.3205  -27.5977  -43.2736 H         1 UNK         0.0851 
     83 H83        23.4805  -25.8616  -43.5079 H         1 UNK         0.0851 
     84 H84        21.2876  -28.7368  -44.2124 H         1 UNK         0.2976 
     85 H85        19.5338  -26.1526  -38.3749 H         1 UNK         0.3116 
     86 H86        21.5767  -27.5419  -37.0755 H         1 UNK         0.0646 
     87 H87        19.7415  -26.3473  -35.9117 H         1 UNK         0.0847 
     88 H88        21.2913  -25.7882  -35.3123 H         1 UNK         0.0847 
     89 H89        20.3838  -24.7897  -36.4378 H         1 UNK         0.0847 
     90 H90        22.0535  -25.0322  -39.3703 H         1 UNK         0.3040 
     91 H91        24.4795  -23.8865  -38.3374 H         1 UNK         0.1015 
     92 H92        23.3617  -23.9530  -41.1933 H         1 UNK         0.0786 
     93 H93        24.6637  -22.9185  -40.6254 H         1 UNK         0.0786 
     94 H94        23.0414  -22.7051  -39.9887 H         1 UNK         0.0786 
     95 H95        23.8165  -26.7059  -40.4332 H         1 UNK         0.3172 
     96 H96        26.5402  -27.6741  -40.1128 H         1 UNK         0.0595 
     97 H97        25.7015  -26.7219  -42.9066 H         1 UNK         0.0839 
     98 H98        27.1634  -27.6190  -42.5368 H         1 UNK         0.0839 
     99 H99        26.9599  -26.0001  -41.9104 H         1 UNK         0.0839 
    100 H100       23.3473  -28.4344  -40.3476 H         1 UNK         0.2998 
    101 H101       22.1494  -30.2082  -40.5974 H         1 UNK         0.0822 
    102 H102       23.1249  -32.4982  -40.4735 H         1 UNK         0.0787 
    103 H103       24.7496  -31.8351  -40.5951 H         1 UNK         0.0787 
    104 H104       23.7372  -31.4434  -39.2142 H         1 UNK         0.0787 
    105 H105       24.5210  -31.7808  -42.5964 H         1 UNK         0.3055 
    106 H106       24.6221  -32.5190  -44.6612 H         1 UNK         0.1106 
    107 H107       23.8203  -31.1403  -46.5752 H         1 UNK         0.0828 
    108 H108       22.9440  -30.0907  -45.4792 H         1 UNK         0.0828 
    109 H109       24.6975  -30.1744  -45.4006 H         1 UNK         0.0828 
    110 H110       21.4431  -32.1076  -43.3579 H         1 UNK         0.2931 
    111 H111       20.1295  -33.9994  -45.1074 H         1 UNK         0.0412 
    112 H112       21.9470  -36.2602  -42.3405 H         1 UNK         0.3472 
    113 H113       22.4584  -34.6259  -42.6808 H         1 UNK         0.3472 
    114 H114       18.2230  -33.7908  -43.5365 H         1 UNK         0.0970 
    115 H115       18.8032  -32.2692  -44.1475 H         1 UNK         0.0970 
    116 H116       17.4237  -32.1055  -40.2406 H         1 UNK         0.0612 
    117 H117       16.9021  -33.0857  -41.5852 H         1 UNK         0.0612 
@<TRIPOS>BOND
     1    1    2 1    
     2    1   62 1    
     3    1   63 1    
     4    1   64 1    
     5    2    3 2    
     6    2    4 am   BACKBONE|DICT|INTERRES
     7    4    5 1    
     8    4   65 1    
     9    5    6 1    
    10    5   25 1    
    11    5   66 1    
    12    6    7 1    
    13    6   67 1    
    14    6   68 1    
    15    7    8 1    
    16    8    9 1    
    17    8   69 1    
    18    8   70 1    
    19    9   10 ar   
    20    9   14 ar   
    21   10   11 ar   
    22   10   71 1    
    23   11   12 ar   
    24   11   61 1    
    25   12   13 ar   
    26   12   72 1    
    27   13   14 ar   
    28   13   15 1    
    29   14   73 1    
    30   15   16 1    
    31   15   74 1    
    32   15   75 1    
    33   16   17 1    
    34   17   18 1    
    35   17   76 1    
    36   17   77 1    
    37   18   19 1    
    38   18   27 1    
    39   18   78 1    
    40   19   20 am   BACKBONE|DICT|INTERRES
    41   19   79 1    
    42   20   21 2    
    43   20   22 1    
    44   22   23 1    
    45   22   24 1    
    46   22   80 1    
    47   23   81 1    
    48   23   82 1    
    49   23   83 1    
    50   24   25 am   BACKBONE|DICT|INTERRES
    51   24   84 1    
    52   25   26 2    
    53   27   28 2    
    54   27   29 am   BACKBONE|DICT|INTERRES
    55   29   30 1    
    56   29   85 1    
    57   30   31 1    
    58   30   32 1    
    59   30   86 1    
    60   31   87 1    
    61   31   88 1    
    62   31   89 1    
    63   32   33 2    
    64   32   34 am   BACKBONE|DICT|INTERRES
    65   34   35 1    
    66   34   90 1    
    67   35   36 1    
    68   35   37 1    
    69   35   91 1    
    70   36   92 1    
    71   36   93 1    
    72   36   94 1    
    73   37   38 2    
    74   37   39 am   BACKBONE|DICT|INTERRES
    75   39   40 1    
    76   39   95 1    
    77   40   41 1    
    78   40   42 1    
    79   40   96 1    
    80   41   97 1    
    81   41   98 1    
    82   41   99 1    
    83   42   43 2    
    84   42   44 am   BACKBONE|DICT|INTERRES
    85   44   45 1    
    86   44  100 1    
    87   45   46 1    
    88   45   47 1    
    89   45  101 1    
    90   46  102 1    
    91   46  103 1    
    92   46  104 1    
    93   47   48 2    
    94   47   49 am   BACKBONE|DICT|INTERRES
    95   49   50 1    
    96   49  105 1    
    97   50   51 1    
    98   50   52 1    
    99   50  106 1    
   100   51  107 1    
   101   51  108 1    
   102   51  109 1    
   103   52   53 2    
   104   52   54 am   BACKBONE|DICT|INTERRES
   105   54   55 1    
   106   54  110 1    
   107   55   56 1    
   108   55   59 1    
   109   55  111 1    
   110   56   57 am   BACKBONE|DICT|INTERRES
   111   56   58 2    
   112   57  112 1    
   113   57  113 1    
   114   59   60 1    
   115   59  114 1    
   116   59  115 1    
   117   60   61 1    
   118   61  116 1    
   119   61  117 1    
@<TRIPOS>SUBSTRUCTURE
     1 UNK         1 GROUP             0       ****    0 ROOT    
