@<TRIPOS>MOLECULE
3R8
117   119    1
SMALL
USER_CHARGES


@<TRIPOS>ATOM
      1 CA         19.0081  -24.6175  -41.4783 C.3       0 UNK        -0.2013 
      2 C          18.5361  -25.1374  -42.8266 C.2       0 UNK         0.4866 
      3 O          19.2237  -25.9515  -43.4441 O.2       0 UNK        -0.5176 
      4 N          17.3847  -24.6478  -43.3102 N.am      1 UNK        -0.4884 
      5 CA         16.6726  -25.0944  -44.5253 C.3       1 UNK         0.0853 
      6 C6         16.1941  -26.5723  -44.4281 C.3       10 UNK        -0.0849 
      7 S7         15.2453  -26.9560  -42.9125 S.3       10 UNK        -0.2776 
      8 C8         14.8586  -28.7265  -43.1436 C.3       10 UNK         0.0316 
      9 C9         16.1070  -29.5591  -43.4053 C.ar      10 UNK        -0.0863 
     10 C10        16.9646  -29.9053  -42.3565 C.ar      10 UNK        -0.1009 
     11 C11        18.1527  -30.6013  -42.6080 C.ar      10 UNK        -0.0712 
     12 C12        18.4766  -30.9412  -43.9263 C.ar      10 UNK        -0.0894 
     13 C13        17.6030  -30.6469  -44.9768 C.ar      10 UNK        -0.0745 
     14 C14        16.4183  -29.9573  -44.7081 C.ar      10 UNK        -0.0972 
     15 C15        17.9322  -31.0617  -46.4071 C.3       10 UNK         0.0209 
     16 S16        19.5126  -30.3885  -47.0184 S.3       10 UNK        -0.2568 
     17 C17        19.3043  -28.5943  -46.7419 C.3       10 UNK        -0.0983 
     18 CA         20.5962  -27.8294  -46.3455 C.3       3 UNK         0.0876 
     19 N          20.2941  -26.4084  -46.1492 N.am      3 UNK        -0.4424 
     20 C          20.2548  -25.4986  -47.1331 C.2       2 UNK         0.4918 
     21 O          20.6222  -25.7276  -48.2868 O.2       2 UNK        -0.4875 
     22 CA         19.6800  -24.1082  -46.7730 C.3       2 UNK         0.0481 
     23 CB         19.2194  -23.3077  -48.0095 C.3       2 UNK        -0.1831 
     24 N          18.6131  -24.1832  -45.7656 N.am      2 UNK        -0.4498 
     25 C          17.4595  -24.8689  -45.8435 C.2       1 UNK         0.5027 
     26 O          17.0291  -25.3546  -46.8908 O.2       1 UNK        -0.4969 
     27 C          21.3421  -28.4343  -45.1328 C.2       3 UNK         0.5005 
     28 O          22.1280  -29.3679  -45.3175 O.2       3 UNK        -0.5279 
     29 N          21.1218  -27.9085  -43.9190 N.am      4 UNK        -0.4463 
     30 CA         21.8166  -28.3397  -42.7070 C.3       4 UNK         0.0283 
     31 CB         21.1041  -27.7663  -41.4719 C.3       4 UNK        -0.1875 
     32 C          23.2980  -27.9343  -42.7026 C.2       4 UNK         0.4949 
     33 O          23.6528  -26.8591  -43.1908 O.2       4 UNK        -0.5039 
     34 N          24.1179  -28.7924  -42.0952 N.am      5 UNK        -0.4663 
     35 CA         25.5343  -28.5886  -41.8224 C.3       5 UNK         0.0242 
     36 CB         26.3491  -29.6638  -42.5640 C.3       5 UNK        -0.1982 
     37 C          25.6916  -28.6587  -40.2998 C.2       5 UNK         0.5017 
     38 O          26.1267  -29.6810  -39.7648 O.2       5 UNK        -0.5012 
     39 N          25.2501  -27.5852  -39.6282 N.am      6 UNK        -0.4439 
     40 CA         25.0980  -27.4596  -38.1760 C.3       6 UNK         0.0297 
     41 CB         26.4708  -27.4751  -37.4629 C.3       6 UNK        -0.2006 
     42 C          24.0894  -28.4988  -37.6501 C.2       6 UNK         0.4892 
     43 O          22.9002  -28.3734  -37.9450 O.2       6 UNK        -0.5089 
     44 N          24.5701  -29.4973  -36.8991 N.am      7 UNK        -0.4243 
     45 CA         23.7636  -30.5965  -36.3661 C.3       7 UNK         0.0196 
     46 CB         24.5030  -31.2211  -35.1711 C.3       7 UNK        -0.2007 
     47 C          23.4248  -31.6774  -37.4102 C.2       7 UNK         0.5020 
     48 O          22.4789  -32.4348  -37.1895 O.2       7 UNK        -0.5147 
     49 N          24.1986  -31.7627  -38.5010 N.am      8 UNK        -0.4734 
     50 CA         24.0011  -32.7425  -39.5714 C.3       8 UNK         0.0238 
     51 CB         25.3708  -33.1133  -40.1641 C.3       8 UNK        -0.1912 
     52 C          23.0689  -32.1936  -40.6619 C.2       8 UNK         0.5038 
     53 O          22.9559  -30.9765  -40.8191 O.2       8 UNK        -0.5046 
     54 N          22.4550  -33.1075  -41.4184 N.am      9 UNK        -0.4200 
     55 CA         21.6056  -32.8213  -42.5800 C.3       9 UNK         0.0839 
     56 C          22.2977  -33.3533  -43.8572 C.2       9 UNK         0.5513 
     57 N          22.4773  -32.5200  -44.8739 N.am      9 UNK        -0.7519 
     58 O          22.6497  -34.5281  -43.9400 O.2       9 UNK        -0.4960 
     59 C59        20.1916  -33.4450  -42.4080 C.3       10 UNK        -0.0876 
     60 S60        19.1914  -32.7108  -41.0612 S.3       10 UNK        -0.2414 
     61 C61        19.1008  -30.9296  -41.4588 C.3       10 UNK         0.0169 
     62 H62        20.0252  -24.2351  -41.5581 H         1 UNK         0.0903 
     63 H63        18.3718  -23.8156  -41.1046 H         1 UNK         0.0903 
     64 H64        19.0026  -25.4245  -40.7463 H         1 UNK         0.0903 
     65 H65        16.8861  -23.9590  -42.7631 H         1 UNK         0.3096 
     66 H66        15.7850  -24.4648  -44.6050 H         1 UNK         0.1121 
     67 H67        17.0599  -27.2346  -44.4645 H         1 UNK         0.0849 
     68 H68        15.5711  -26.8343  -45.2854 H         1 UNK         0.0849 
     69 H69        14.3508  -29.0991  -42.2528 H         1 UNK         0.0865 
     70 H70        14.1471  -28.8322  -43.9641 H         1 UNK         0.0865 
     71 H71        16.7189  -29.6028  -41.3477 H         1 UNK         0.1346 
     72 H72        19.4147  -31.4246  -44.1495 H         1 UNK         0.1412 
     73 H73        15.7504  -29.7019  -45.5196 H         1 UNK         0.1426 
     74 H74        17.1402  -30.7540  -47.0915 H         1 UNK         0.0716 
     75 H75        17.9731  -32.1505  -46.4571 H         1 UNK         0.0716 
     76 H76        18.5435  -28.4217  -45.9818 H         1 UNK         0.0695 
     77 H77        18.8958  -28.1719  -47.6613 H         1 UNK         0.0695 
     78 H78        21.2982  -27.9178  -47.1778 H         1 UNK         0.0983 
     79 H79        19.9666  -26.1381  -45.2269 H         1 UNK         0.3095 
     80 H80        20.4971  -23.5548  -46.3083 H         1 UNK         0.0454 
     81 H81        18.8201  -22.3341  -47.7262 H         1 UNK         0.0851 
     82 H82        18.4492  -23.8358  -48.5721 H         1 UNK         0.0851 
     83 H83        20.0518  -23.1287  -48.6910 H         1 UNK         0.0851 
     84 H84        18.8572  -23.8317  -44.8499 H         1 UNK         0.2976 
     85 H85        20.4445  -27.1580  -43.7960 H         1 UNK         0.3116 
     86 H86        21.7601  -29.4269  -42.6690 H         1 UNK         0.0646 
     87 H87        21.2000  -26.6814  -41.4236 H         1 UNK         0.0847 
     88 H88        21.5309  -28.1733  -40.5537 H         1 UNK         0.0847 
     89 H89        20.0414  -28.0088  -41.4729 H         1 UNK         0.0847 
     90 H90        23.7057  -29.6166  -41.6529 H         1 UNK         0.3040 
     91 H91        25.8691  -27.6042  -42.1574 H         1 UNK         0.1015 
     92 H92        26.0159  -30.6709  -42.3138 H         1 UNK         0.0786 
     93 H93        27.4085  -29.5941  -42.3140 H         1 UNK         0.0786 
     94 H94        26.2604  -29.5460  -43.6441 H         1 UNK         0.0786 
     95 H95        24.8587  -26.8264  -40.1694 H         1 UNK         0.3172 
     96 H96        24.6491  -26.4818  -37.9953 H         1 UNK         0.0595 
     97 H97        27.0206  -28.4028  -37.6227 H         1 UNK         0.0839 
     98 H98        26.3552  -27.3393  -36.3866 H         1 UNK         0.0839 
     99 H99        27.1009  -26.6597  -37.8184 H         1 UNK         0.0839 
    100 H100       25.5647  -29.5342  -36.7288 H         1 UNK         0.2998 
    101 H101       22.8175  -30.1880  -36.0035 H         1 UNK         0.0822 
    102 H102       23.9151  -32.0245  -34.7247 H         1 UNK         0.0787 
    103 H103       25.4629  -31.6462  -35.4674 H         1 UNK         0.0787 
    104 H104       24.6876  -30.4845  -34.3888 H         1 UNK         0.0787 
    105 H105       24.9014  -31.0506  -38.6684 H         1 UNK         0.3055 
    106 H106       23.5501  -33.6479  -39.1582 H         1 UNK         0.1106 
    107 H107       25.8824  -32.2445  -40.5765 H         1 UNK         0.0828 
    108 H108       26.0214  -33.5526  -39.4078 H         1 UNK         0.0828 
    109 H109       25.2708  -33.8446  -40.9672 H         1 UNK         0.0828 
    110 H110       22.6489  -34.0864  -41.2627 H         1 UNK         0.2931 
    111 H111       21.5017  -31.7466  -42.7120 H         1 UNK         0.0412 
    112 H112       22.2157  -31.5427  -44.8260 H         1 UNK         0.3472 
    113 H113       22.9165  -32.8681  -45.7115 H         1 UNK         0.3472 
    114 H114       20.2863  -34.5112  -42.1938 H         1 UNK         0.0970 
    115 H115       19.6168  -33.4046  -43.3326 H         1 UNK         0.0970 
    116 H116       20.0896  -30.5302  -41.6595 H         1 UNK         0.0612 
    117 H117       18.7711  -30.4152  -40.5550 H         1 UNK         0.0612 
@<TRIPOS>BOND
     1    1    2 1    
     2    1   62 1    
     3    1   63 1    
     4    1   64 1    
     5    2    3 2    
     6    2    4 am   BACKBONE|DICT|INTERRES
     7    4    5 1    
     8    4   65 1    
     9    5    6 1    
    10    5   25 1    
    11    5   66 1    
    12    6    7 1    
    13    6   67 1    
    14    6   68 1    
    15    7    8 1    
    16    8    9 1    
    17    8   69 1    
    18    8   70 1    
    19    9   10 ar   
    20    9   14 ar   
    21   10   11 ar   
    22   10   71 1    
    23   11   12 ar   
    24   11   61 1    
    25   12   13 ar   
    26   12   72 1    
    27   13   14 ar   
    28   13   15 1    
    29   14   73 1    
    30   15   16 1    
    31   15   74 1    
    32   15   75 1    
    33   16   17 1    
    34   17   18 1    
    35   17   76 1    
    36   17   77 1    
    37   18   19 1    
    38   18   27 1    
    39   18   78 1    
    40   19   20 am   BACKBONE|DICT|INTERRES
    41   19   79 1    
    42   20   21 2    
    43   20   22 1    
    44   22   23 1    
    45   22   24 1    
    46   22   80 1    
    47   23   81 1    
    48   23   82 1    
    49   23   83 1    
    50   24   25 am   BACKBONE|DICT|INTERRES
    51   24   84 1    
    52   25   26 2    
    53   27   28 2    
    54   27   29 am   BACKBONE|DICT|INTERRES
    55   29   30 1    
    56   29   85 1    
    57   30   31 1    
    58   30   32 1    
    59   30   86 1    
    60   31   87 1    
    61   31   88 1    
    62   31   89 1    
    63   32   33 2    
    64   32   34 am   BACKBONE|DICT|INTERRES
    65   34   35 1    
    66   34   90 1    
    67   35   36 1    
    68   35   37 1    
    69   35   91 1    
    70   36   92 1    
    71   36   93 1    
    72   36   94 1    
    73   37   38 2    
    74   37   39 am   BACKBONE|DICT|INTERRES
    75   39   40 1    
    76   39   95 1    
    77   40   41 1    
    78   40   42 1    
    79   40   96 1    
    80   41   97 1    
    81   41   98 1    
    82   41   99 1    
    83   42   43 2    
    84   42   44 am   BACKBONE|DICT|INTERRES
    85   44   45 1    
    86   44  100 1    
    87   45   46 1    
    88   45   47 1    
    89   45  101 1    
    90   46  102 1    
    91   46  103 1    
    92   46  104 1    
    93   47   48 2    
    94   47   49 am   BACKBONE|DICT|INTERRES
    95   49   50 1    
    96   49  105 1    
    97   50   51 1    
    98   50   52 1    
    99   50  106 1    
   100   51  107 1    
   101   51  108 1    
   102   51  109 1    
   103   52   53 2    
   104   52   54 am   BACKBONE|DICT|INTERRES
   105   54   55 1    
   106   54  110 1    
   107   55   56 1    
   108   55   59 1    
   109   55  111 1    
   110   56   57 am   BACKBONE|DICT|INTERRES
   111   56   58 2    
   112   57  112 1    
   113   57  113 1    
   114   59   60 1    
   115   59  114 1    
   116   59  115 1    
   117   60   61 1    
   118   61  116 1    
   119   61  117 1    
@<TRIPOS>SUBSTRUCTURE
     1 UNK         1 GROUP             0       ****    0 ROOT    
