@<TRIPOS>MOLECULE
3R8
117   119    1
SMALL
USER_CHARGES


@<TRIPOS>ATOM
      1 CA         16.3772  -26.4820  -38.7044 C.3       0 UNK        -0.2013 
      2 C          16.7449  -25.9309  -40.0742 C.2       0 UNK         0.4866 
      3 O          16.4649  -24.7667  -40.3634 O.2       0 UNK        -0.5176 
      4 N          17.3613  -26.7645  -40.9181 N.am      1 UNK        -0.4884 
      5 CA         17.8514  -26.4095  -42.2564 C.3       1 UNK         0.0853 
      6 C6         17.9124  -27.6618  -43.1654 C.3       10 UNK        -0.0849 
      7 S7         16.2733  -28.4315  -43.4151 S.3       10 UNK        -0.2776 
      8 C8         16.6421  -30.2055  -43.1743 C.3       10 UNK         0.0316 
      9 C9         17.8723  -30.6722  -43.9475 C.ar      10 UNK        -0.0863 
     10 C10        18.8655  -31.4105  -43.2972 C.ar      10 UNK        -0.1009 
     11 C11        20.0278  -31.7906  -43.9754 C.ar      10 UNK        -0.0712 
     12 C12        20.1968  -31.4246  -45.3125 C.ar      10 UNK        -0.0894 
     13 C13        19.2234  -30.6624  -45.9642 C.ar      10 UNK        -0.0745 
     14 C14        18.0494  -30.3214  -45.2898 C.ar      10 UNK        -0.0972 
     15 C15        19.4641  -30.1421  -47.3717 C.3       10 UNK         0.0209 
     16 S16        20.0307  -28.4085  -47.3342 S.3       10 UNK        -0.2568 
     17 C17        21.7178  -28.6083  -46.6741 C.3       10 UNK        -0.0983 
     18 CA         22.3734  -27.2630  -46.2835 C.3       3 UNK         0.0876 
     19 N          21.7345  -26.6512  -45.1106 N.am      3 UNK        -0.4424 
     20 C          21.8529  -25.3575  -44.7812 C.2       2 UNK         0.4918 
     21 O          22.4682  -24.5418  -45.4697 O.2       2 UNK        -0.4875 
     22 CA         21.1924  -24.9011  -43.4703 C.3       2 UNK         0.0481 
     23 CB         21.1599  -23.3664  -43.3133 C.3       2 UNK        -0.1831 
     24 N          19.8446  -25.4573  -43.3501 N.am      2 UNK        -0.4498 
     25 C          19.2193  -25.6836  -42.1868 C.2       1 UNK         0.5027 
     26 O          19.6974  -25.3551  -41.0974 O.2       1 UNK        -0.4969 
     27 C          23.8680  -27.4532  -45.9706 C.2       3 UNK         0.5005 
     28 O          24.2241  -28.4283  -45.3094 O.2       3 UNK        -0.5279 
     29 N          24.7043  -26.4774  -46.3588 N.am      4 UNK        -0.4463 
     30 CA         26.1213  -26.3529  -45.9769 C.3       4 UNK         0.0283 
     31 CB         26.9746  -27.4438  -46.6584 C.3       4 UNK        -0.1875 
     32 C          26.3038  -26.3161  -44.4431 C.2       4 UNK         0.4949 
     33 O          27.2239  -26.9353  -43.9085 O.2       4 UNK        -0.5039 
     34 N          25.3726  -25.6172  -43.7762 N.am      5 UNK        -0.4663 
     35 CA         25.1866  -25.4912  -42.3256 C.3       5 UNK         0.0242 
     36 CB         26.4401  -24.9011  -41.6443 C.3       5 UNK        -0.1982 
     37 C          24.6815  -26.7648  -41.6121 C.2       5 UNK         0.5017 
     38 O          24.5555  -26.7302  -40.3870 O.2       5 UNK        -0.5012 
     39 N          24.3623  -27.8462  -42.3433 N.am      6 UNK        -0.4439 
     40 CA         23.7090  -29.0334  -41.7834 C.3       6 UNK         0.0297 
     41 CB         23.9325  -30.2490  -42.6964 C.3       6 UNK        -0.2006 
     42 C          22.2111  -28.7490  -41.5971 C.2       6 UNK         0.4892 
     43 O          21.5481  -28.3532  -42.5608 O.2       6 UNK        -0.5089 
     44 N          21.7288  -28.9237  -40.3600 N.am      7 UNK        -0.4243 
     45 CA         20.3840  -28.5222  -39.9455 C.3       7 UNK         0.0196 
     46 CB         20.4793  -27.6700  -38.6695 C.3       7 UNK        -0.2007 
     47 C          19.4192  -29.6904  -39.7247 C.2       7 UNK         0.5020 
     48 O          18.2231  -29.5132  -39.9584 O.2       7 UNK        -0.5147 
     49 N          19.9274  -30.8369  -39.2568 N.am      8 UNK        -0.4734 
     50 CA         19.1245  -31.9869  -38.8389 C.3       8 UNK         0.0238 
     51 CB         18.4982  -31.7241  -37.4525 C.3       8 UNK        -0.1912 
     52 C          19.9964  -33.2486  -38.8672 C.2       8 UNK         0.5038 
     53 O          20.3570  -33.7808  -37.8161 O.2       8 UNK        -0.5046 
     54 N          20.3498  -33.6774  -40.0822 N.am      9 UNK        -0.4200 
     55 CA         21.1359  -34.8888  -40.3691 C.3       9 UNK         0.0839 
     56 C          20.3567  -36.2300  -40.2232 C.2       9 UNK         0.5513 
     57 N          19.0420  -36.2244  -40.0361 N.am      9 UNK        -0.7519 
     58 O          20.9628  -37.2976  -40.2661 O.2       9 UNK        -0.4960 
     59 C59        21.8622  -34.7788  -41.7384 C.3       10 UNK        -0.0876 
     60 S60        20.7495  -34.3155  -43.1135 S.3       10 UNK        -0.2414 
     61 C61        21.1254  -32.5422  -43.2445 C.3       10 UNK         0.0169 
     62 H62        16.8886  -25.9187  -37.9244 H         1 UNK         0.0903 
     63 H63        16.6531  -27.5317  -38.6009 H         1 UNK         0.0903 
     64 H64        15.3034  -26.3964  -38.5403 H         1 UNK         0.0903 
     65 H65        17.5618  -27.7144  -40.6197 H         1 UNK         0.3096 
     66 H66        17.1505  -25.7007  -42.7035 H         1 UNK         0.1121 
     67 H67        18.6087  -28.3892  -42.7438 H         1 UNK         0.0849 
     68 H68        18.2936  -27.4237  -44.1595 H         1 UNK         0.0849 
     69 H69        16.7675  -30.3869  -42.1057 H         1 UNK         0.0865 
     70 H70        15.7796  -30.7947  -43.4882 H         1 UNK         0.0865 
     71 H71        18.7444  -31.6705  -42.2552 H         1 UNK         0.1346 
     72 H72        21.1077  -31.6907  -45.8311 H         1 UNK         0.1412 
     73 H73        17.3000  -29.7260  -45.7936 H         1 UNK         0.1426 
     74 H74        20.1964  -30.7581  -47.8961 H         1 UNK         0.0716 
     75 H75        18.5402  -30.2027  -47.9488 H         1 UNK         0.0716 
     76 H76        22.3084  -29.1202  -47.4366 H         1 UNK         0.0695 
     77 H77        21.6951  -29.2676  -45.8062 H         1 UNK         0.0695 
     78 H78        22.2837  -26.5854  -47.1358 H         1 UNK         0.0983 
     79 H79        21.3262  -27.2915  -44.4375 H         1 UNK         0.3095 
     80 H80        21.8113  -25.3122  -42.6698 H         1 UNK         0.0454 
     81 H81        20.7463  -23.0709  -42.3492 H         1 UNK         0.0851 
     82 H82        20.5596  -22.8970  -44.0932 H         1 UNK         0.0851 
     83 H83        22.1632  -22.9427  -43.3718 H         1 UNK         0.0851 
     84 H84        19.4067  -25.7386  -44.2170 H         1 UNK         0.2976 
     85 H85        24.3116  -25.6852  -46.8519 H         1 UNK         0.3116 
     86 H86        26.4612  -25.3854  -46.3495 H         1 UNK         0.0646 
     87 H87        26.8328  -27.4419  -47.7389 H         1 UNK         0.0847 
     88 H88        28.0368  -27.2815  -46.4716 H         1 UNK         0.0847 
     89 H89        26.7303  -28.4406  -46.2897 H         1 UNK         0.0847 
     90 H90        24.6714  -25.1527  -44.3386 H         1 UNK         0.3040 
     91 H91        24.3853  -24.7609  -42.2011 H         1 UNK         0.1015 
     92 H92        27.2712  -25.6066  -41.6377 H         1 UNK         0.0786 
     93 H93        26.2340  -24.6395  -40.6056 H         1 UNK         0.0786 
     94 H94        26.7739  -23.9917  -42.1440 H         1 UNK         0.0786 
     95 H95        24.4626  -27.8254  -43.3531 H         1 UNK         0.3172 
     96 H96        24.1654  -29.2588  -40.8170 H         1 UNK         0.0595 
     97 H97        24.9823  -30.3579  -42.9688 H         1 UNK         0.0839 
     98 H98        23.3528  -30.1794  -43.6176 H         1 UNK         0.0839 
     99 H99        23.6318  -31.1676  -42.1926 H         1 UNK         0.0839 
    100 H100       22.3604  -29.2266  -39.6324 H         1 UNK         0.2998 
    101 H101       19.9383  -27.9058  -40.7206 H         1 UNK         0.0822 
    102 H102       19.4924  -27.3306  -38.3516 H         1 UNK         0.0787 
    103 H103       20.9192  -28.2246  -37.8398 H         1 UNK         0.0787 
    104 H104       21.0842  -26.7785  -38.8385 H         1 UNK         0.0787 
    105 H105       20.9241  -30.9174  -39.1122 H         1 UNK         0.3055 
    106 H106       18.3117  -32.1388  -39.5534 H         1 UNK         0.1106 
    107 H107       17.8085  -30.8804  -37.4791 H         1 UNK         0.0828 
    108 H108       17.9316  -32.5904  -37.1087 H         1 UNK         0.0828 
    109 H109       19.2585  -31.5103  -36.7004 H         1 UNK         0.0828 
    110 H110       20.0037  -33.1913  -40.8951 H         1 UNK         0.2931 
    111 H111       21.9203  -34.9406  -39.6113 H         1 UNK         0.0412 
    112 H112       18.5308  -35.3579  -40.0035 H         1 UNK         0.3472 
    113 H113       18.5547  -37.1015  -39.9377 H         1 UNK         0.3472 
    114 H114       22.6659  -34.0444  -41.6647 H         1 UNK         0.0970 
    115 H115       22.3613  -35.7156  -41.9939 H         1 UNK         0.0970 
    116 H116       21.2527  -32.1059  -42.2530 H         1 UNK         0.0612 
    117 H117       22.0808  -32.4231  -43.7574 H         1 UNK         0.0612 
@<TRIPOS>BOND
     1    1    2 1    
     2    1   62 1    
     3    1   63 1    
     4    1   64 1    
     5    2    3 2    
     6    2    4 am   BACKBONE|DICT|INTERRES
     7    4    5 1    
     8    4   65 1    
     9    5    6 1    
    10    5   25 1    
    11    5   66 1    
    12    6    7 1    
    13    6   67 1    
    14    6   68 1    
    15    7    8 1    
    16    8    9 1    
    17    8   69 1    
    18    8   70 1    
    19    9   10 ar   
    20    9   14 ar   
    21   10   11 ar   
    22   10   71 1    
    23   11   12 ar   
    24   11   61 1    
    25   12   13 ar   
    26   12   72 1    
    27   13   14 ar   
    28   13   15 1    
    29   14   73 1    
    30   15   16 1    
    31   15   74 1    
    32   15   75 1    
    33   16   17 1    
    34   17   18 1    
    35   17   76 1    
    36   17   77 1    
    37   18   19 1    
    38   18   27 1    
    39   18   78 1    
    40   19   20 am   BACKBONE|DICT|INTERRES
    41   19   79 1    
    42   20   21 2    
    43   20   22 1    
    44   22   23 1    
    45   22   24 1    
    46   22   80 1    
    47   23   81 1    
    48   23   82 1    
    49   23   83 1    
    50   24   25 am   BACKBONE|DICT|INTERRES
    51   24   84 1    
    52   25   26 2    
    53   27   28 2    
    54   27   29 am   BACKBONE|DICT|INTERRES
    55   29   30 1    
    56   29   85 1    
    57   30   31 1    
    58   30   32 1    
    59   30   86 1    
    60   31   87 1    
    61   31   88 1    
    62   31   89 1    
    63   32   33 2    
    64   32   34 am   BACKBONE|DICT|INTERRES
    65   34   35 1    
    66   34   90 1    
    67   35   36 1    
    68   35   37 1    
    69   35   91 1    
    70   36   92 1    
    71   36   93 1    
    72   36   94 1    
    73   37   38 2    
    74   37   39 am   BACKBONE|DICT|INTERRES
    75   39   40 1    
    76   39   95 1    
    77   40   41 1    
    78   40   42 1    
    79   40   96 1    
    80   41   97 1    
    81   41   98 1    
    82   41   99 1    
    83   42   43 2    
    84   42   44 am   BACKBONE|DICT|INTERRES
    85   44   45 1    
    86   44  100 1    
    87   45   46 1    
    88   45   47 1    
    89   45  101 1    
    90   46  102 1    
    91   46  103 1    
    92   46  104 1    
    93   47   48 2    
    94   47   49 am   BACKBONE|DICT|INTERRES
    95   49   50 1    
    96   49  105 1    
    97   50   51 1    
    98   50   52 1    
    99   50  106 1    
   100   51  107 1    
   101   51  108 1    
   102   51  109 1    
   103   52   53 2    
   104   52   54 am   BACKBONE|DICT|INTERRES
   105   54   55 1    
   106   54  110 1    
   107   55   56 1    
   108   55   59 1    
   109   55  111 1    
   110   56   57 am   BACKBONE|DICT|INTERRES
   111   56   58 2    
   112   57  112 1    
   113   57  113 1    
   114   59   60 1    
   115   59  114 1    
   116   59  115 1    
   117   60   61 1    
   118   61  116 1    
   119   61  117 1    
@<TRIPOS>SUBSTRUCTURE
     1 UNK         1 GROUP             0       ****    0 ROOT    
