@<TRIPOS>MOLECULE
3R8
117   119    1
SMALL
USER_CHARGES


@<TRIPOS>ATOM
      1 CA         15.5176  -24.2726  -40.0422 C.3       0 UNK        -0.2013 
      2 C          16.1134  -24.6327  -41.3945 C.2       0 UNK         0.4866 
      3 O          16.9368  -23.8834  -41.9222 O.2       0 UNK        -0.5176 
      4 N          15.7136  -25.7786  -41.9615 N.am      1 UNK        -0.4884 
      5 CA         16.1915  -26.3007  -43.2471 C.3       1 UNK         0.0853 
      6 C6         15.1199  -27.2027  -43.9113 C.3       10 UNK        -0.0849 
      7 S7         15.3739  -27.3734  -45.7114 S.3       10 UNK        -0.2776 
      8 C8         14.7831  -29.0703  -46.0117 C.3       10 UNK         0.0316 
      9 C9         15.7624  -30.1227  -45.5097 C.ar      10 UNK        -0.0863 
     10 C10        15.5227  -30.7980  -44.3080 C.ar      10 UNK        -0.1009 
     11 C11        16.4071  -31.7822  -43.8558 C.ar      10 UNK        -0.0712 
     12 C12        17.5262  -32.1025  -44.6285 C.ar      10 UNK        -0.0894 
     13 C13        17.7945  -31.4145  -45.8144 C.ar      10 UNK        -0.0745 
     14 C14        16.9033  -30.4325  -46.2569 C.ar      10 UNK        -0.0972 
     15 C15        19.0525  -31.7391  -46.6044 C.3       10 UNK         0.0209 
     16 S16        20.5099  -30.8974  -45.9093 S.3       10 UNK        -0.2568 
     17 C17        20.4050  -29.2606  -46.7132 C.3       10 UNK        -0.0983 
     18 CA         21.1045  -28.1072  -45.9500 C.3       3 UNK         0.0876 
     19 N          20.4893  -27.8349  -44.6479 N.am      3 UNK        -0.4424 
     20 C          20.6377  -26.6866  -43.9753 C.2       2 UNK         0.4918 
     21 O          21.2327  -25.7038  -44.4217 O.2       2 UNK        -0.4875 
     22 CA         19.9724  -26.6059  -42.5929 C.3       2 UNK         0.0481 
     23 CB         20.7056  -25.6347  -41.6502 C.3       2 UNK        -0.1831 
     24 N          18.5831  -26.1828  -42.7320 N.am      2 UNK        -0.4498 
     25 C          17.5682  -26.9837  -43.0773 C.2       1 UNK         0.5027 
     26 O          17.6910  -28.2001  -43.2207 O.2       1 UNK        -0.4969 
     27 C          22.6349  -28.2958  -45.8482 C.2       3 UNK         0.5005 
     28 O          23.3487  -27.9327  -46.7856 O.2       3 UNK        -0.5279 
     29 N          23.1099  -28.8253  -44.7134 N.am      4 UNK        -0.4463 
     30 CA         24.5185  -28.9467  -44.3556 C.3       4 UNK         0.0283 
     31 CB         24.7825  -30.3791  -43.8651 C.3       4 UNK        -0.1875 
     32 C          24.8413  -27.9403  -43.2445 C.2       4 UNK         0.4949 
     33 O          24.0089  -27.7013  -42.3659 O.2       4 UNK        -0.5039 
     34 N          26.0621  -27.3933  -43.2763 N.am      5 UNK        -0.4663 
     35 CA         26.5953  -26.5234  -42.2264 C.3       5 UNK         0.0242 
     36 CB         27.8669  -25.8266  -42.7364 C.3       5 UNK        -0.1982 
     37 C          26.8939  -27.3382  -40.9585 C.2       5 UNK         0.5017 
     38 O          27.4944  -28.4106  -41.0630 O.2       5 UNK        -0.5012 
     39 N          26.4556  -26.8296  -39.7981 N.am      6 UNK        -0.4439 
     40 CA         26.5578  -27.3995  -38.4429 C.3       6 UNK         0.0297 
     41 CB         28.0271  -27.5774  -38.0123 C.3       6 UNK        -0.2006 
     42 C          25.7557  -28.6980  -38.2183 C.2       6 UNK         0.4892 
     43 O          25.1099  -28.8303  -37.1787 O.2       6 UNK        -0.5089 
     44 N          25.7942  -29.6201  -39.1873 N.am      7 UNK        -0.4243 
     45 CA         25.0709  -30.8938  -39.1893 C.3       7 UNK         0.0196 
     46 CB         25.7278  -31.8347  -40.2125 C.3       7 UNK        -0.2007 
     47 C          23.5632  -30.7556  -39.4713 C.2       7 UNK         0.5020 
     48 O          22.8323  -31.7236  -39.2575 O.2       7 UNK        -0.5147 
     49 N          23.1244  -29.5833  -39.9540 N.am      8 UNK        -0.4734 
     50 CA         21.7496  -29.2204  -40.3119 C.3       8 UNK         0.0238 
     51 CB         20.8437  -29.1447  -39.0628 C.3       8 UNK        -0.1912 
     52 C          21.2016  -30.1217  -41.4303 C.2       8 UNK         0.5038 
     53 O          21.5200  -29.8786  -42.5935 O.2       8 UNK        -0.5046 
     54 N          20.4111  -31.1389  -41.0692 N.am      9 UNK        -0.4200 
     55 CA         19.9517  -32.1875  -41.9906 C.3       9 UNK         0.0839 
     56 C          21.0678  -33.1841  -42.4219 C.2       9 UNK         0.5513 
     57 N          22.2052  -33.2519  -41.7385 N.am      9 UNK        -0.7519 
     58 O          20.8904  -33.9166  -43.3914 O.2       9 UNK        -0.4960 
     59 C59        18.7258  -32.9558  -41.4296 C.3       10 UNK        -0.0876 
     60 S60        17.2493  -31.9026  -41.2074 S.3       10 UNK        -0.2414 
     61 C61        16.1494  -32.4980  -42.5367 C.3       10 UNK         0.0169 
     62 H62        15.0007  -23.3152  -40.1036 H         1 UNK         0.0903 
     63 H63        14.8046  -25.0213  -39.6974 H         1 UNK         0.0903 
     64 H64        16.3069  -24.1865  -39.2959 H         1 UNK         0.0903 
     65 H65        15.0622  -26.3716  -41.4660 H         1 UNK         0.3096 
     66 H66        16.3476  -25.4472  -43.9118 H         1 UNK         0.1121 
     67 H67        15.0755  -28.1786  -43.4272 H         1 UNK         0.0849 
     68 H68        14.1300  -26.7628  -43.7786 H         1 UNK         0.0849 
     69 H69        13.8021  -29.2016  -45.5522 H         1 UNK         0.0865 
     70 H70        14.6323  -29.2038  -47.0840 H         1 UNK         0.0865 
     71 H71        14.6477  -30.5552  -43.7211 H         1 UNK         0.1346 
     72 H72        18.2086  -32.8716  -44.2962 H         1 UNK         0.1412 
     73 H73        17.0981  -29.9030  -47.1795 H         1 UNK         0.1426 
     74 H74        18.9341  -31.4727  -47.6559 H         1 UNK         0.0716 
     75 H75        19.2277  -32.8157  -46.5812 H         1 UNK         0.0716 
     76 H76        20.8197  -29.3504  -47.7188 H         1 UNK         0.0695 
     77 H77        19.3544  -29.0035  -46.8509 H         1 UNK         0.0695 
     78 H78        20.9590  -27.2102  -46.5566 H         1 UNK         0.0983 
     79 H79        19.9760  -28.5968  -44.2219 H         1 UNK         0.3095 
     80 H80        19.9952  -27.5957  -42.1382 H         1 UNK         0.0454 
     81 H81        21.7630  -25.8920  -41.5713 H         1 UNK         0.0851 
     82 H82        20.2864  -25.6671  -40.6445 H         1 UNK         0.0851 
     83 H83        20.6490  -24.6044  -42.0035 H         1 UNK         0.0851 
     84 H84        18.3804  -25.1980  -42.5940 H         1 UNK         0.2976 
     85 H85        22.4522  -29.0841  -43.9781 H         1 UNK         0.3116 
     86 H86        25.1558  -28.7472  -45.2195 H         1 UNK         0.0646 
     87 H87        25.8284  -30.5111  -43.5854 H         1 UNK         0.0847 
     88 H88        24.5579  -31.1104  -44.6417 H         1 UNK         0.0847 
     89 H89        24.1742  -30.6246  -42.9933 H         1 UNK         0.0847 
     90 H90        26.7057  -27.6719  -44.0032 H         1 UNK         0.3040 
     91 H91        25.8476  -25.7597  -41.9995 H         1 UNK         0.1015 
     92 H92        28.6489  -26.5446  -42.9878 H         1 UNK         0.0786 
     93 H93        28.2735  -25.1546  -41.9793 H         1 UNK         0.0786 
     94 H94        27.6628  -25.2273  -43.6241 H         1 UNK         0.0786 
     95 H95        25.9503  -25.9546  -39.8421 H         1 UNK         0.3172 
     96 H96        26.1183  -26.6500  -37.7824 H         1 UNK         0.0595 
     97 H97        28.0900  -27.8987  -36.9718 H         1 UNK         0.0839 
     98 H98        28.5433  -28.3277  -38.6119 H         1 UNK         0.0839 
     99 H99        28.5811  -26.6425  -38.0958 H         1 UNK         0.0839 
    100 H100       26.3814  -29.4156  -39.9930 H         1 UNK         0.2998 
    101 H101       25.1702  -31.3441  -38.1993 H         1 UNK         0.0822 
    102 H102       25.2238  -32.8019  -40.2388 H         1 UNK         0.0787 
    103 H103       25.6941  -31.4207  -41.2199 H         1 UNK         0.0787 
    104 H104       26.7724  -32.0223  -39.9634 H         1 UNK         0.0787 
    105 H105       23.8195  -28.8827  -40.1747 H         1 UNK         0.3055 
    106 H106       21.8089  -28.2171  -40.7330 H         1 UNK         0.1106 
    107 H107       21.2038  -28.3854  -38.3686 H         1 UNK         0.0828 
    108 H108       19.8236  -28.8702  -39.3359 H         1 UNK         0.0828 
    109 H109       20.7979  -30.0880  -38.5183 H         1 UNK         0.0828 
    110 H110       20.2258  -31.2866  -40.0888 H         1 UNK         0.2931 
    111 H111       19.6373  -31.6823  -42.9045 H         1 UNK         0.0412 
    112 H112       22.3474  -32.6812  -40.9116 H         1 UNK         0.3472 
    113 H113       22.9144  -33.9051  -42.0292 H         1 UNK         0.3472 
    114 H114       18.9734  -33.4011  -40.4645 H         1 UNK         0.0970 
    115 H115       18.4670  -33.7956  -42.0766 H         1 UNK         0.0970 
    116 H116       15.1181  -32.3350  -42.2203 H         1 UNK         0.0612 
    117 H117       16.2531  -33.5760  -42.6667 H         1 UNK         0.0612 
@<TRIPOS>BOND
     1    1    2 1    
     2    1   62 1    
     3    1   63 1    
     4    1   64 1    
     5    2    3 2    
     6    2    4 am   BACKBONE|DICT|INTERRES
     7    4    5 1    
     8    4   65 1    
     9    5    6 1    
    10    5   25 1    
    11    5   66 1    
    12    6    7 1    
    13    6   67 1    
    14    6   68 1    
    15    7    8 1    
    16    8    9 1    
    17    8   69 1    
    18    8   70 1    
    19    9   10 ar   
    20    9   14 ar   
    21   10   11 ar   
    22   10   71 1    
    23   11   12 ar   
    24   11   61 1    
    25   12   13 ar   
    26   12   72 1    
    27   13   14 ar   
    28   13   15 1    
    29   14   73 1    
    30   15   16 1    
    31   15   74 1    
    32   15   75 1    
    33   16   17 1    
    34   17   18 1    
    35   17   76 1    
    36   17   77 1    
    37   18   19 1    
    38   18   27 1    
    39   18   78 1    
    40   19   20 am   BACKBONE|DICT|INTERRES
    41   19   79 1    
    42   20   21 2    
    43   20   22 1    
    44   22   23 1    
    45   22   24 1    
    46   22   80 1    
    47   23   81 1    
    48   23   82 1    
    49   23   83 1    
    50   24   25 am   BACKBONE|DICT|INTERRES
    51   24   84 1    
    52   25   26 2    
    53   27   28 2    
    54   27   29 am   BACKBONE|DICT|INTERRES
    55   29   30 1    
    56   29   85 1    
    57   30   31 1    
    58   30   32 1    
    59   30   86 1    
    60   31   87 1    
    61   31   88 1    
    62   31   89 1    
    63   32   33 2    
    64   32   34 am   BACKBONE|DICT|INTERRES
    65   34   35 1    
    66   34   90 1    
    67   35   36 1    
    68   35   37 1    
    69   35   91 1    
    70   36   92 1    
    71   36   93 1    
    72   36   94 1    
    73   37   38 2    
    74   37   39 am   BACKBONE|DICT|INTERRES
    75   39   40 1    
    76   39   95 1    
    77   40   41 1    
    78   40   42 1    
    79   40   96 1    
    80   41   97 1    
    81   41   98 1    
    82   41   99 1    
    83   42   43 2    
    84   42   44 am   BACKBONE|DICT|INTERRES
    85   44   45 1    
    86   44  100 1    
    87   45   46 1    
    88   45   47 1    
    89   45  101 1    
    90   46  102 1    
    91   46  103 1    
    92   46  104 1    
    93   47   48 2    
    94   47   49 am   BACKBONE|DICT|INTERRES
    95   49   50 1    
    96   49  105 1    
    97   50   51 1    
    98   50   52 1    
    99   50  106 1    
   100   51  107 1    
   101   51  108 1    
   102   51  109 1    
   103   52   53 2    
   104   52   54 am   BACKBONE|DICT|INTERRES
   105   54   55 1    
   106   54  110 1    
   107   55   56 1    
   108   55   59 1    
   109   55  111 1    
   110   56   57 am   BACKBONE|DICT|INTERRES
   111   56   58 2    
   112   57  112 1    
   113   57  113 1    
   114   59   60 1    
   115   59  114 1    
   116   59  115 1    
   117   60   61 1    
   118   61  116 1    
   119   61  117 1    
@<TRIPOS>SUBSTRUCTURE
     1 UNK         1 GROUP             0       ****    0 ROOT    
