@<TRIPOS>MOLECULE
3R8
117   119    1
SMALL
USER_CHARGES


@<TRIPOS>ATOM
      1 CA         15.7705  -23.6872  -42.9834 C.3       0 UNK        -0.2013 
      2 C          16.3443  -25.0699  -43.2522 C.2       0 UNK         0.4866 
      3 O          17.3197  -25.1951  -43.9935 O.2       0 UNK        -0.5176 
      4 N          15.7513  -26.1107  -42.6537 N.am      1 UNK        -0.4884 
      5 CA         16.1627  -27.5133  -42.7839 C.3       1 UNK         0.0853 
      6 C6         15.0019  -28.4852  -42.4534 C.3       10 UNK        -0.0849 
      7 S7         13.7672  -28.4912  -43.7948 S.3       10 UNK        -0.2776 
      8 C8         14.1809  -30.0422  -44.6640 C.3       10 UNK         0.0316 
      9 C9         15.6397  -30.1058  -45.1062 C.ar      10 UNK        -0.0863 
     10 C10        16.5181  -31.0173  -44.5085 C.ar      10 UNK        -0.1009 
     11 C11        17.8478  -31.1028  -44.9316 C.ar      10 UNK        -0.0712 
     12 C12        18.2967  -30.2703  -45.9578 C.ar      10 UNK        -0.0894 
     13 C13        17.4429  -29.3298  -46.5385 C.ar      10 UNK        -0.0745 
     14 C14        16.1104  -29.2612  -46.1177 C.ar      10 UNK        -0.0972 
     15 C15        17.9563  -28.3964  -47.6250 C.3       10 UNK         0.0209 
     16 S16        18.8748  -26.9856  -46.9261 S.3       10 UNK        -0.2568 
     17 C17        20.5784  -27.6392  -46.8348 C.3       10 UNK        -0.0983 
     18 CA         21.3255  -27.2307  -45.5404 C.3       3 UNK         0.0876 
     19 N          20.5989  -27.6032  -44.3155 N.am      3 UNK        -0.4424 
     20 C          20.9078  -27.1785  -43.0791 C.2       2 UNK         0.4918 
     21 O          21.9110  -26.5109  -42.8248 O.2       2 UNK        -0.4875 
     22 CA         19.9164  -27.5298  -41.9595 C.3       2 UNK         0.0481 
     23 CB         20.1737  -26.7412  -40.6588 C.3       2 UNK        -0.1831 
     24 N          18.5622  -27.2983  -42.4519 N.am      2 UNK        -0.4498 
     25 C          17.4291  -27.8002  -41.9544 C.2       1 UNK         0.5027 
     26 O          17.3533  -28.4362  -40.9027 O.2       1 UNK        -0.4969 
     27 C          22.7855  -27.7356  -45.5792 C.2       3 UNK         0.5005 
     28 O          23.5876  -27.1928  -46.3409 O.2       3 UNK        -0.5279 
     29 N          23.1172  -28.7367  -44.7493 N.am      4 UNK        -0.4463 
     30 CA         24.4830  -29.2152  -44.5202 C.3       4 UNK         0.0283 
     31 CB         24.4314  -30.5458  -43.7522 C.3       4 UNK        -0.1875 
     32 C          25.3767  -28.1999  -43.7802 C.2       4 UNK         0.4949 
     33 O          26.5993  -28.3250  -43.8571 O.2       4 UNK        -0.5039 
     34 N          24.7685  -27.2318  -43.0738 N.am      5 UNK        -0.4663 
     35 CA         25.3543  -26.1149  -42.3149 C.3       5 UNK         0.0242 
     36 CB         26.1701  -25.1801  -43.2286 C.3       5 UNK        -0.1982 
     37 C          26.1656  -26.5329  -41.0765 C.2       5 UNK         0.5017 
     38 O          25.9498  -25.9819  -39.9971 O.2       5 UNK        -0.5012 
     39 N          27.0638  -27.5089  -41.2448 N.am      6 UNK        -0.4439 
     40 CA         27.8628  -28.1313  -40.1875 C.3       6 UNK         0.0297 
     41 CB         29.0765  -28.8233  -40.8298 C.3       6 UNK        -0.2006 
     42 C          27.0626  -29.1325  -39.3320 C.2       6 UNK         0.4892 
     43 O          27.5567  -29.5513  -38.2843 O.2       6 UNK        -0.5089 
     44 N          25.8604  -29.5060  -39.7853 N.am      7 UNK        -0.4243 
     45 CA         24.9382  -30.4138  -39.1163 C.3       7 UNK         0.0196 
     46 CB         25.2164  -31.8571  -39.5749 C.3       7 UNK        -0.2007 
     47 C          23.5035  -29.9979  -39.4559 C.2       7 UNK         0.5020 
     48 O          23.2791  -29.3173  -40.4597 O.2       7 UNK        -0.5147 
     49 N          22.5548  -30.4524  -38.6291 N.am      8 UNK        -0.4734 
     50 CA         21.1151  -30.2341  -38.8120 C.3       8 UNK         0.0238 
     51 CB         20.4141  -30.3725  -37.4495 C.3       8 UNK        -0.1912 
     52 C          20.4728  -31.1729  -39.8523 C.2       8 UNK         0.5038 
     53 O          19.3063  -30.9719  -40.1815 O.2       8 UNK        -0.5046 
     54 N          21.2278  -32.1806  -40.3165 N.am      9 UNK        -0.4200 
     55 CA         20.9018  -33.1810  -41.3519 C.3       9 UNK         0.0839 
     56 C          19.6068  -34.0304  -41.1608 C.2       9 UNK         0.5513 
     57 N          18.9612  -34.0121  -40.0021 N.am      9 UNK        -0.7519 
     58 O          19.2124  -34.7706  -42.0582 O.2       9 UNK        -0.4960 
     59 C59        21.1272  -32.6675  -42.8067 C.3       10 UNK        -0.0876 
     60 S60        20.1025  -31.2537  -43.3427 S.3       10 UNK        -0.2414 
     61 C61        18.8062  -32.0995  -44.2994 C.3       10 UNK         0.0169 
     62 H62        14.9088  -23.7247  -42.3172 H         1 UNK         0.0903 
     63 H63        16.5267  -23.0503  -42.5251 H         1 UNK         0.0903 
     64 H64        15.4562  -23.2243  -43.9185 H         1 UNK         0.0903 
     65 H65        14.9607  -25.9463  -42.0466 H         1 UNK         0.3096 
     66 H66        16.4480  -27.6845  -43.8242 H         1 UNK         0.1121 
     67 H67        14.5153  -28.2072  -41.5169 H         1 UNK         0.0849 
     68 H68        15.3638  -29.5048  -42.3072 H         1 UNK         0.0849 
     69 H69        13.9361  -30.8862  -44.0170 H         1 UNK         0.0865 
     70 H70        13.5376  -30.1379  -45.5399 H         1 UNK         0.0865 
     71 H71        16.1657  -31.6675  -43.7192 H         1 UNK         0.1346 
     72 H72        19.3201  -30.3573  -46.2900 H         1 UNK         0.1412 
     73 H73        15.4379  -28.5446  -46.5699 H         1 UNK         0.1426 
     74 H74        17.1194  -28.0075  -48.2071 H         1 UNK         0.0716 
     75 H75        18.5837  -28.9429  -48.3307 H         1 UNK         0.0716 
     76 H76        21.1100  -27.2583  -47.7092 H         1 UNK         0.0695 
     77 H77        20.5757  -28.7222  -46.9455 H         1 UNK         0.0695 
     78 H78        21.3908  -26.1402  -45.5363 H         1 UNK         0.0983 
     79 H79        19.7646  -28.1574  -44.4475 H         1 UNK         0.3095 
     80 H80        20.0353  -28.5943  -41.7503 H         1 UNK         0.0454 
     81 H81        20.0574  -25.6679  -40.8121 H         1 UNK         0.0851 
     82 H82        21.1871  -26.9126  -40.2928 H         1 UNK         0.0851 
     83 H83        19.4916  -27.0431  -39.8644 H         1 UNK         0.0851 
     84 H84        18.4809  -26.6862  -43.2605 H         1 UNK         0.2976 
     85 H85        22.3914  -29.1312  -44.1679 H         1 UNK         0.3116 
     86 H86        24.9438  -29.4018  -45.4925 H         1 UNK         0.0646 
     87 H87        23.9281  -30.4397  -42.7911 H         1 UNK         0.0847 
     88 H88        25.4352  -30.9243  -43.5541 H         1 UNK         0.0847 
     89 H89        23.9076  -31.3108  -44.3252 H         1 UNK         0.0847 
     90 H90        23.7525  -27.2390  -43.0579 H         1 UNK         0.3040 
     91 H91        24.5019  -25.5425  -41.9437 H         1 UNK         0.1015 
     92 H92        27.0506  -25.6737  -43.6409 H         1 UNK         0.0786 
     93 H93        26.5180  -24.3051  -42.6780 H         1 UNK         0.0786 
     94 H94        25.5675  -24.8198  -44.0626 H         1 UNK         0.0786 
     95 H95        27.1428  -27.8984  -42.1835 H         1 UNK         0.3172 
     96 H96        28.2274  -27.3474  -39.5205 H         1 UNK         0.0595 
     97 H97        28.7727  -29.6165  -41.5143 H         1 UNK         0.0839 
     98 H98        29.7174  -29.2747  -40.0710 H         1 UNK         0.0839 
     99 H99        29.6885  -28.1144  -41.3878 H         1 UNK         0.0839 
    100 H100       25.4849  -29.0636  -40.6143 H         1 UNK         0.2998 
    101 H101       25.0706  -30.3373  -38.0347 H         1 UNK         0.0822 
    102 H102       26.2400  -32.1540  -39.3452 H         1 UNK         0.0787 
    103 H103       24.5572  -32.5666  -39.0736 H         1 UNK         0.0787 
    104 H104       25.0696  -31.9732  -40.6497 H         1 UNK         0.0787 
    105 H105       22.8293  -31.0023  -37.8264 H         1 UNK         0.3055 
    106 H106       20.9601  -29.2147  -39.1718 H         1 UNK         0.1106 
    107 H107       20.5251  -31.3756  -37.0362 H         1 UNK         0.0828 
    108 H108       19.3450  -30.1732  -37.5380 H         1 UNK         0.0828 
    109 H109       20.8124  -29.6628  -36.7242 H         1 UNK         0.0828 
    110 H110       22.1556  -32.2595  -39.9301 H         1 UNK         0.2931 
    111 H111       21.6807  -33.9299  -41.2026 H         1 UNK         0.0412 
    112 H112       19.2541  -33.3872  -39.2687 H         1 UNK         0.3472 
    113 H113       18.1384  -34.5821  -39.8850 H         1 UNK         0.3472 
    114 H114       21.0191  -33.4847  -43.5219 H         1 UNK         0.0970 
    115 H115       22.1665  -32.3541  -42.9024 H         1 UNK         0.0970 
    116 H116       19.2654  -32.7045  -45.0824 H         1 UNK         0.0612 
    117 H117       18.2670  -32.7862  -43.6463 H         1 UNK         0.0612 
@<TRIPOS>BOND
     1    1    2 1    
     2    1   62 1    
     3    1   63 1    
     4    1   64 1    
     5    2    3 2    
     6    2    4 am   BACKBONE|DICT|INTERRES
     7    4    5 1    
     8    4   65 1    
     9    5    6 1    
    10    5   25 1    
    11    5   66 1    
    12    6    7 1    
    13    6   67 1    
    14    6   68 1    
    15    7    8 1    
    16    8    9 1    
    17    8   69 1    
    18    8   70 1    
    19    9   10 ar   
    20    9   14 ar   
    21   10   11 ar   
    22   10   71 1    
    23   11   12 ar   
    24   11   61 1    
    25   12   13 ar   
    26   12   72 1    
    27   13   14 ar   
    28   13   15 1    
    29   14   73 1    
    30   15   16 1    
    31   15   74 1    
    32   15   75 1    
    33   16   17 1    
    34   17   18 1    
    35   17   76 1    
    36   17   77 1    
    37   18   19 1    
    38   18   27 1    
    39   18   78 1    
    40   19   20 am   BACKBONE|DICT|INTERRES
    41   19   79 1    
    42   20   21 2    
    43   20   22 1    
    44   22   23 1    
    45   22   24 1    
    46   22   80 1    
    47   23   81 1    
    48   23   82 1    
    49   23   83 1    
    50   24   25 am   BACKBONE|DICT|INTERRES
    51   24   84 1    
    52   25   26 2    
    53   27   28 2    
    54   27   29 am   BACKBONE|DICT|INTERRES
    55   29   30 1    
    56   29   85 1    
    57   30   31 1    
    58   30   32 1    
    59   30   86 1    
    60   31   87 1    
    61   31   88 1    
    62   31   89 1    
    63   32   33 2    
    64   32   34 am   BACKBONE|DICT|INTERRES
    65   34   35 1    
    66   34   90 1    
    67   35   36 1    
    68   35   37 1    
    69   35   91 1    
    70   36   92 1    
    71   36   93 1    
    72   36   94 1    
    73   37   38 2    
    74   37   39 am   BACKBONE|DICT|INTERRES
    75   39   40 1    
    76   39   95 1    
    77   40   41 1    
    78   40   42 1    
    79   40   96 1    
    80   41   97 1    
    81   41   98 1    
    82   41   99 1    
    83   42   43 2    
    84   42   44 am   BACKBONE|DICT|INTERRES
    85   44   45 1    
    86   44  100 1    
    87   45   46 1    
    88   45   47 1    
    89   45  101 1    
    90   46  102 1    
    91   46  103 1    
    92   46  104 1    
    93   47   48 2    
    94   47   49 am   BACKBONE|DICT|INTERRES
    95   49   50 1    
    96   49  105 1    
    97   50   51 1    
    98   50   52 1    
    99   50  106 1    
   100   51  107 1    
   101   51  108 1    
   102   51  109 1    
   103   52   53 2    
   104   52   54 am   BACKBONE|DICT|INTERRES
   105   54   55 1    
   106   54  110 1    
   107   55   56 1    
   108   55   59 1    
   109   55  111 1    
   110   56   57 am   BACKBONE|DICT|INTERRES
   111   56   58 2    
   112   57  112 1    
   113   57  113 1    
   114   59   60 1    
   115   59  114 1    
   116   59  115 1    
   117   60   61 1    
   118   61  116 1    
   119   61  117 1    
@<TRIPOS>SUBSTRUCTURE
     1 UNK         1 GROUP             0       ****    0 ROOT    
