@<TRIPOS>MOLECULE
3R8
117   119    1
SMALL
USER_CHARGES


@<TRIPOS>ATOM
      1 CA         16.4083  -24.4508  -49.2840 C.3       0 UNK        -0.2013 
      2 C          17.4506  -25.3514  -48.6385 C.2       0 UNK         0.4866 
      3 O          18.6059  -25.3526  -49.0638 O.2       0 UNK        -0.5176 
      4 N          17.0528  -26.1177  -47.6131 N.am      1 UNK        -0.4884 
      5 CA         17.9269  -27.0361  -46.8679 C.3       1 UNK         0.0853 
      6 C6         17.0964  -28.0908  -46.0902 C.3       10 UNK        -0.0849 
      7 S7         17.9380  -29.7049  -45.9891 S.3       10 UNK        -0.2776 
      8 C8         16.8842  -30.5837  -44.7929 C.3       10 UNK         0.0316 
      9 C9         17.3043  -30.3012  -43.3581 C.ar      10 UNK        -0.0863 
     10 C10        18.2701  -31.1016  -42.7436 C.ar      10 UNK        -0.1009 
     11 C11        18.6516  -30.8721  -41.4174 C.ar      10 UNK        -0.0712 
     12 C12        18.0751  -29.8120  -40.7113 C.ar      10 UNK        -0.0894 
     13 C13        17.1119  -28.9998  -41.3183 C.ar      10 UNK        -0.0745 
     14 C14        16.7208  -29.2575  -42.6358 C.ar      10 UNK        -0.0972 
     15 C15        16.4806  -27.8466  -40.5548 C.3       10 UNK         0.0209 
     16 S16        17.0136  -26.2373  -41.2157 S.3       10 UNK        -0.2568 
     17 C17        18.7294  -26.1108  -40.5992 C.3       10 UNK        -0.0983 
     18 CA         19.8253  -26.4590  -41.6514 C.3       3 UNK         0.0876 
     19 N          19.6259  -25.8205  -42.9627 N.am      3 UNK        -0.4424 
     20 C          19.5244  -24.5122  -43.2332 C.2       2 UNK         0.4918 
     21 O          19.6107  -23.6281  -42.3813 O.2       2 UNK        -0.4875 
     22 CA         19.3050  -24.1008  -44.7030 C.3       2 UNK         0.0481 
     23 CB         20.6426  -23.7108  -45.3623 C.3       2 UNK        -0.1831 
     24 N          18.5628  -25.0609  -45.5374 N.am      2 UNK        -0.4498 
     25 C          18.9139  -26.2946  -45.9370 C.2       1 UNK         0.5027 
     26 O          19.9550  -26.8514  -45.5864 O.2       1 UNK        -0.4969 
     27 C          21.2459  -26.2247  -41.0770 C.2       3 UNK         0.5005 
     28 O          21.4804  -26.5378  -39.9077 O.2       3 UNK        -0.5279 
     29 N          22.1608  -25.6746  -41.8938 N.am      4 UNK        -0.4463 
     30 CA         23.5051  -25.2022  -41.5464 C.3       4 UNK         0.0283 
     31 CB         24.2094  -24.7139  -42.8237 C.3       4 UNK        -0.1875 
     32 C          24.3486  -26.2629  -40.8240 C.2       4 UNK         0.4949 
     33 O          24.7780  -27.2302  -41.4543 O.2       4 UNK        -0.5039 
     34 N          24.5049  -26.0883  -39.5026 N.am      5 UNK        -0.4663 
     35 CA         25.1874  -26.9838  -38.5542 C.3       5 UNK         0.0242 
     36 CB         26.7098  -26.9599  -38.8089 C.3       5 UNK        -0.1982 
     37 C          24.6300  -28.4250  -38.5268 C.2       5 UNK         0.5017 
     38 O          25.3350  -29.3353  -38.0885 O.2       5 UNK        -0.5012 
     39 N          23.3976  -28.6118  -39.0290 N.am      6 UNK        -0.4439 
     40 CA         22.7426  -29.8885  -39.3344 C.3       6 UNK         0.0297 
     41 CB         22.3869  -30.6456  -38.0373 C.3       6 UNK        -0.2006 
     42 C          23.5242  -30.7677  -40.3380 C.2       6 UNK         0.4892 
     43 O          23.3330  -31.9839  -40.3435 O.2       6 UNK        -0.5089 
     44 N          24.3736  -30.1591  -41.1841 N.am      7 UNK        -0.4243 
     45 CA         25.2703  -30.8556  -42.1171 C.3       7 UNK         0.0196 
     46 CB         26.2001  -29.8374  -42.7946 C.3       7 UNK        -0.2007 
     47 C          24.5413  -31.7045  -43.1713 C.2       7 UNK         0.5020 
     48 O          25.0493  -32.7551  -43.5635 O.2       7 UNK        -0.5147 
     49 N          23.3394  -31.2664  -43.5691 N.am      8 UNK        -0.4734 
     50 CA         22.4337  -31.9878  -44.4693 C.3       8 UNK         0.0238 
     51 CB         21.2880  -31.0462  -44.8757 C.3       8 UNK        -0.1912 
     52 C          21.8822  -33.3065  -43.8872 C.2       8 UNK         0.5038 
     53 O          21.3983  -34.1386  -44.6553 O.2       8 UNK        -0.5046 
     54 N          21.9711  -33.4757  -42.5620 N.am      9 UNK        -0.4200 
     55 CA         21.5964  -34.6878  -41.8215 C.3       9 UNK         0.0839 
     56 C          22.8075  -35.6296  -41.5563 C.2       9 UNK         0.5513 
     57 N          24.0167  -35.3220  -42.0147 N.am      9 UNK        -0.7519 
     58 O          22.6439  -36.6776  -40.9367 O.2       9 UNK        -0.4960 
     59 C59        20.8410  -34.3354  -40.5095 C.3       10 UNK        -0.0876 
     60 S60        19.2402  -33.5197  -40.8279 S.3       10 UNK        -0.2414 
     61 C61        19.7008  -31.7572  -40.7607 C.3       10 UNK         0.0169 
     62 H62        15.4311  -24.5523  -48.8122 H         1 UNK         0.0903 
     63 H63        16.7148  -23.4079  -49.2080 H         1 UNK         0.0903 
     64 H64        16.3016  -24.6982  -50.3399 H         1 UNK         0.0903 
     65 H65        16.0877  -26.0823  -47.3144 H         1 UNK         0.3096 
     66 H66        18.5374  -27.5570  -47.6099 H         1 UNK         0.1121 
     67 H67        16.1469  -28.2739  -46.5965 H         1 UNK         0.0849 
     68 H68        16.8353  -27.7363  -45.0918 H         1 UNK         0.0849 
     69 H69        15.8373  -30.3175  -44.9477 H         1 UNK         0.0865 
     70 H70        16.9525  -31.6549  -44.9895 H         1 UNK         0.0865 
     71 H71        18.7207  -31.9156  -43.2954 H         1 UNK         0.1346 
     72 H72        18.3742  -29.6190  -39.6901 H         1 UNK         0.1412 
     73 H73        15.9666  -28.6356  -43.0979 H         1 UNK         0.1426 
     74 H74        16.7086  -27.9026  -39.4893 H         1 UNK         0.0716 
     75 H75        15.3951  -27.9174  -40.6379 H         1 UNK         0.0716 
     76 H76        18.8333  -26.7499  -39.7206 H         1 UNK         0.0695 
     77 H77        18.8654  -25.0905  -40.2367 H         1 UNK         0.0695 
     78 H78        19.7622  -27.5317  -41.8408 H         1 UNK         0.0983 
     79 H79        19.6103  -26.4490  -43.7609 H         1 UNK         0.3095 
     80 H80        18.6833  -23.2044  -44.6767 H         1 UNK         0.0454 
     81 H81        21.3333  -24.5524  -45.4196 H         1 UNK         0.0851 
     82 H82        21.1408  -22.9222  -44.7966 H         1 UNK         0.0851 
     83 H83        20.4900  -23.3348  -46.3739 H         1 UNK         0.0851 
     84 H84        17.6683  -24.7266  -45.8680 H         1 UNK         0.2976 
     85 H85        21.8662  -25.4961  -42.8419 H         1 UNK         0.3116 
     86 H86        23.3844  -24.3430  -40.8837 H         1 UNK         0.0646 
     87 H87        23.6678  -23.8898  -43.2885 H         1 UNK         0.0847 
     88 H88        25.2148  -24.3537  -42.6011 H         1 UNK         0.0847 
     89 H89        24.3070  -25.5114  -43.5618 H         1 UNK         0.0847 
     90 H90        24.0557  -25.2847  -39.0836 H         1 UNK         0.3040 
     91 H91        25.0084  -26.5756  -37.5582 H         1 UNK         0.1015 
     92 H92        26.9661  -27.4196  -39.7642 H         1 UNK         0.0786 
     93 H93        27.2487  -27.5035  -38.0318 H         1 UNK         0.0786 
     94 H94        27.0958  -25.9406  -38.8131 H         1 UNK         0.0786 
     95 H95        22.8875  -27.7845  -39.3324 H         1 UNK         0.3172 
     96 H96        21.8070  -29.6292  -39.8316 H         1 UNK         0.0595 
     97 H97        23.2790  -30.9741  -37.5036 H         1 UNK         0.0839 
     98 H98        21.7939  -31.5360  -38.2475 H         1 UNK         0.0839 
     99 H99        21.8020  -30.0215  -37.3619 H         1 UNK         0.0839 
    100 H100       24.4683  -29.1473  -41.1431 H         1 UNK         0.2998 
    101 H101       25.8859  -31.5364  -41.5252 H         1 UNK         0.0822 
    102 H102       26.9027  -30.3336  -43.4655 H         1 UNK         0.0787 
    103 H103       25.6398  -29.1112  -43.3852 H         1 UNK         0.0787 
    104 H104       26.7872  -29.2866  -42.0592 H         1 UNK         0.0787 
    105 H105       23.0090  -30.3893  -43.1935 H         1 UNK         0.3055 
    106 H106       22.9946  -32.2531  -45.3683 H         1 UNK         0.1106 
    107 H107       20.5608  -31.5573  -45.5083 H         1 UNK         0.0828 
    108 H108       20.7526  -30.6617  -44.0079 H         1 UNK         0.0828 
    109 H109       21.6581  -30.1910  -45.4415 H         1 UNK         0.0828 
    110 H110       22.4352  -32.7665  -42.0059 H         1 UNK         0.2931 
    111 H111       20.9113  -35.2748  -42.4360 H         1 UNK         0.0412 
    112 H112       24.7832  -35.9515  -41.8361 H         1 UNK         0.3472 
    113 H113       24.1781  -34.4697  -42.5354 H         1 UNK         0.3472 
    114 H114       20.6240  -35.2415  -39.9409 H         1 UNK         0.0970 
    115 H115       21.4527  -33.7140  -39.8544 H         1 UNK         0.0970 
    116 H116       19.8511  -31.4767  -39.7178 H         1 UNK         0.0612 
    117 H117       20.6491  -31.5918  -41.2687 H         1 UNK         0.0612 
@<TRIPOS>BOND
     1    1    2 1    
     2    1   62 1    
     3    1   63 1    
     4    1   64 1    
     5    2    3 2    
     6    2    4 am   BACKBONE|DICT|INTERRES
     7    4    5 1    
     8    4   65 1    
     9    5    6 1    
    10    5   25 1    
    11    5   66 1    
    12    6    7 1    
    13    6   67 1    
    14    6   68 1    
    15    7    8 1    
    16    8    9 1    
    17    8   69 1    
    18    8   70 1    
    19    9   10 ar   
    20    9   14 ar   
    21   10   11 ar   
    22   10   71 1    
    23   11   12 ar   
    24   11   61 1    
    25   12   13 ar   
    26   12   72 1    
    27   13   14 ar   
    28   13   15 1    
    29   14   73 1    
    30   15   16 1    
    31   15   74 1    
    32   15   75 1    
    33   16   17 1    
    34   17   18 1    
    35   17   76 1    
    36   17   77 1    
    37   18   19 1    
    38   18   27 1    
    39   18   78 1    
    40   19   20 am   BACKBONE|DICT|INTERRES
    41   19   79 1    
    42   20   21 2    
    43   20   22 1    
    44   22   23 1    
    45   22   24 1    
    46   22   80 1    
    47   23   81 1    
    48   23   82 1    
    49   23   83 1    
    50   24   25 am   BACKBONE|DICT|INTERRES
    51   24   84 1    
    52   25   26 2    
    53   27   28 2    
    54   27   29 am   BACKBONE|DICT|INTERRES
    55   29   30 1    
    56   29   85 1    
    57   30   31 1    
    58   30   32 1    
    59   30   86 1    
    60   31   87 1    
    61   31   88 1    
    62   31   89 1    
    63   32   33 2    
    64   32   34 am   BACKBONE|DICT|INTERRES
    65   34   35 1    
    66   34   90 1    
    67   35   36 1    
    68   35   37 1    
    69   35   91 1    
    70   36   92 1    
    71   36   93 1    
    72   36   94 1    
    73   37   38 2    
    74   37   39 am   BACKBONE|DICT|INTERRES
    75   39   40 1    
    76   39   95 1    
    77   40   41 1    
    78   40   42 1    
    79   40   96 1    
    80   41   97 1    
    81   41   98 1    
    82   41   99 1    
    83   42   43 2    
    84   42   44 am   BACKBONE|DICT|INTERRES
    85   44   45 1    
    86   44  100 1    
    87   45   46 1    
    88   45   47 1    
    89   45  101 1    
    90   46  102 1    
    91   46  103 1    
    92   46  104 1    
    93   47   48 2    
    94   47   49 am   BACKBONE|DICT|INTERRES
    95   49   50 1    
    96   49  105 1    
    97   50   51 1    
    98   50   52 1    
    99   50  106 1    
   100   51  107 1    
   101   51  108 1    
   102   51  109 1    
   103   52   53 2    
   104   52   54 am   BACKBONE|DICT|INTERRES
   105   54   55 1    
   106   54  110 1    
   107   55   56 1    
   108   55   59 1    
   109   55  111 1    
   110   56   57 am   BACKBONE|DICT|INTERRES
   111   56   58 2    
   112   57  112 1    
   113   57  113 1    
   114   59   60 1    
   115   59  114 1    
   116   59  115 1    
   117   60   61 1    
   118   61  116 1    
   119   61  117 1    
@<TRIPOS>SUBSTRUCTURE
     1 UNK         1 GROUP             0       ****    0 ROOT    
