@<TRIPOS>MOLECULE
3R8
117   119    1
SMALL
USER_CHARGES


@<TRIPOS>ATOM
      1 CA         15.7504  -22.9706  -48.0956 C.3       0 UNK        -0.2013 
      2 C          17.0190  -23.6444  -47.5938 C.2       0 UNK         0.4866 
      3 O          18.1169  -23.1431  -47.8395 O.2       0 UNK        -0.5176 
      4 N          16.8784  -24.7813  -46.9013 N.am      1 UNK        -0.4884 
      5 CA         17.9831  -25.5372  -46.3025 C.3       1 UNK         0.0853 
      6 C6         17.5305  -26.9432  -45.8435 C.3       10 UNK        -0.0849 
      7 S7         17.1369  -28.0544  -47.2326 S.3       10 UNK        -0.2776 
      8 C8         16.2132  -29.3801  -46.3832 C.3       10 UNK         0.0316 
      9 C9         16.9349  -29.8895  -45.1409 C.ar      10 UNK        -0.0863 
     10 C10        18.0930  -30.6632  -45.2609 C.ar      10 UNK        -0.1009 
     11 C11        18.7720  -31.1065  -44.1217 C.ar      10 UNK        -0.0712 
     12 C12        18.2685  -30.7910  -42.8555 C.ar      10 UNK        -0.0894 
     13 C13        17.1186  -30.0049  -42.7203 C.ar      10 UNK        -0.0745 
     14 C14        16.4544  -29.5643  -43.8685 C.ar      10 UNK        -0.0972 
     15 C15        16.5741  -29.6346  -41.3434 C.3       10 UNK         0.0209 
     16 S16        17.8376  -28.9722  -40.2046 S.3       10 UNK        -0.2568 
     17 C17        18.4235  -27.4709  -41.0680 C.3       10 UNK        -0.0983 
     18 CA         19.7941  -27.6817  -41.7720 C.3       3 UNK         0.0876 
     19 N          20.0827  -26.6398  -42.7600 N.am      3 UNK        -0.4424 
     20 C          20.4325  -25.3665  -42.5205 C.2       2 UNK         0.4918 
     21 O          20.5813  -24.8911  -41.3942 O.2       2 UNK        -0.4875 
     22 CA         20.6595  -24.4698  -43.7542 C.3       2 UNK         0.0481 
     23 CB         22.1549  -24.4035  -44.1014 C.3       2 UNK        -0.1831 
     24 N          19.9175  -24.9302  -44.9330 N.am      2 UNK        -0.4498 
     25 C          18.5951  -24.7883  -45.1018 C.2       1 UNK         0.5027 
     26 O          17.8640  -24.1676  -44.3256 O.2       1 UNK        -0.4969 
     27 C          21.0039  -27.9067  -40.8389 C.2       3 UNK         0.5005 
     28 O          22.0886  -28.1976  -41.3435 O.2       3 UNK        -0.5279 
     29 N          20.8247  -27.7554  -39.5192 N.am      4 UNK        -0.4463 
     30 CA         21.8228  -28.0002  -38.4700 C.3       4 UNK         0.0283 
     31 CB         21.1856  -27.7232  -37.0992 C.3       4 UNK        -0.1875 
     32 C          23.1442  -27.2202  -38.6121 C.2       4 UNK         0.4949 
     33 O          24.1596  -27.6721  -38.0836 O.2       4 UNK        -0.5039 
     34 N          23.1256  -26.0900  -39.3333 N.am      5 UNK        -0.4663 
     35 CA         24.3233  -25.3228  -39.6870 C.3       5 UNK         0.0242 
     36 CB         23.9064  -23.9235  -40.1651 C.3       5 UNK        -0.1982 
     37 C          25.2093  -26.0245  -40.7363 C.2       5 UNK         0.5017 
     38 O          26.4166  -25.7819  -40.7511 O.2       5 UNK        -0.5012 
     39 N          24.6098  -26.8794  -41.5773 N.am      6 UNK        -0.4439 
     40 CA         25.3047  -27.7429  -42.5367 C.3       6 UNK         0.0297 
     41 CB         24.5361  -27.7467  -43.8682 C.3       6 UNK        -0.2006 
     42 C          25.4535  -29.1789  -42.0037 C.2       6 UNK         0.4892 
     43 O          26.4296  -29.8445  -42.3512 O.2       6 UNK        -0.5089 
     44 N          24.4948  -29.6184  -41.1740 N.am      7 UNK        -0.4243 
     45 CA         24.3535  -30.9516  -40.5850 C.3       7 UNK         0.0196 
     46 CB         25.5472  -31.2978  -39.6652 C.3       7 UNK        -0.2007 
     47 C          24.0377  -31.9979  -41.6693 C.2       7 UNK         0.5020 
     48 O          23.1288  -31.7664  -42.4665 O.2       7 UNK        -0.5147 
     49 N          24.7451  -33.1365  -41.6634 N.am      8 UNK        -0.4734 
     50 CA         24.6430  -34.2915  -42.5733 C.3       8 UNK         0.0238 
     51 CB         24.8876  -33.8861  -44.0409 C.3       8 UNK        -0.1912 
     52 C          23.3486  -35.1158  -42.4345 C.2       8 UNK         0.5038 
     53 O          23.4292  -36.3442  -42.3957 O.2       8 UNK        -0.5046 
     54 N          22.1938  -34.4459  -42.3456 N.am      9 UNK        -0.4200 
     55 CA         20.8711  -35.0612  -42.1356 C.3       9 UNK         0.0839 
     56 C          20.6274  -35.5880  -40.6903 C.2       9 UNK         0.5513 
     57 N          21.4743  -35.2831  -39.7140 N.am      9 UNK        -0.7519 
     58 O          19.6503  -36.2933  -40.4528 O.2       9 UNK        -0.4960 
     59 C59        19.7141  -34.1276  -42.5807 C.3       10 UNK        -0.0876 
     60 S60        19.8068  -33.6773  -44.3479 S.3       10 UNK        -0.2414 
     61 C61        20.0751  -31.8800  -44.2655 C.3       10 UNK         0.0169 
     62 H62        15.6680  -21.9678  -47.6772 H         1 UNK         0.0903 
     63 H63        15.7748  -22.8860  -49.1817 H         1 UNK         0.0903 
     64 H64        14.8555  -23.5278  -47.8191 H         1 UNK         0.0903 
     65 H65        15.9532  -25.1443  -46.7217 H         1 UNK         0.3096 
     66 H66        18.7590  -25.6504  -47.0636 H         1 UNK         0.1121 
     67 H67        16.6650  -26.8688  -45.1817 H         1 UNK         0.0849 
     68 H68        18.3151  -27.4335  -45.2635 H         1 UNK         0.0849 
     69 H69        15.2194  -29.0098  -46.1264 H         1 UNK         0.0865 
     70 H70        16.0578  -30.2070  -47.0777 H         1 UNK         0.0865 
     71 H71        18.4779  -30.9007  -46.2435 H         1 UNK         0.1346 
     72 H72        18.7889  -31.1263  -41.9699 H         1 UNK         0.1412 
     73 H73        15.5628  -28.9594  -43.7724 H         1 UNK         0.1426 
     74 H74        16.1334  -30.5253  -40.8940 H         1 UNK         0.0716 
     75 H75        15.7687  -28.9032  -41.4274 H         1 UNK         0.0716 
     76 H76        17.6720  -27.1888  -41.8075 H         1 UNK         0.0695 
     77 H77        18.4625  -26.6382  -40.3638 H         1 UNK         0.0695 
     78 H78        19.7250  -28.5971  -42.3577 H         1 UNK         0.0983 
     79 H79        20.0456  -26.9386  -43.7220 H         1 UNK         0.3095 
     80 H80        20.3229  -23.4621  -43.5014 H         1 UNK         0.0454 
     81 H81        22.5552  -25.3861  -44.3504 H         1 UNK         0.0851 
     82 H82        22.3368  -23.7423  -44.9487 H         1 UNK         0.0851 
     83 H83        22.7367  -24.0165  -43.2657 H         1 UNK         0.0851 
     84 H84        20.4485  -25.4326  -45.6308 H         1 UNK         0.2976 
     85 H85        19.8937  -27.5204  -39.2039 H         1 UNK         0.3116 
     86 H86        22.0772  -29.0610  -38.5171 H         1 UNK         0.0646 
     87 H87        21.8903  -27.9265  -36.2915 H         1 UNK         0.0847 
     88 H88        20.3135  -28.3551  -36.9297 H         1 UNK         0.0847 
     89 H89        20.8724  -26.6828  -37.0032 H         1 UNK         0.0847 
     90 H90        22.2471  -25.7839  -39.7320 H         1 UNK         0.3040 
     91 H91        24.9299  -25.2038  -38.7861 H         1 UNK         0.1015 
     92 H92        23.3941  -23.3733  -39.3756 H         1 UNK         0.0786 
     93 H93        23.2374  -23.9735  -41.0227 H         1 UNK         0.0786 
     94 H94        24.7754  -23.3331  -40.4591 H         1 UNK         0.0786 
     95 H95        23.6165  -27.0589  -41.4585 H         1 UNK         0.3172 
     96 H96        26.3079  -27.3579  -42.7308 H         1 UNK         0.0595 
     97 H97        24.5208  -26.7533  -44.3152 H         1 UNK         0.0839 
     98 H98        23.5049  -28.0793  -43.7422 H         1 UNK         0.0839 
     99 H99        25.0081  -28.4158  -44.5892 H         1 UNK         0.0839 
    100 H100       23.6710  -29.0288  -41.0782 H         1 UNK         0.2998 
    101 H101       23.4637  -30.9016  -39.9558 H         1 UNK         0.0822 
    102 H102       25.7095  -30.5093  -38.9296 H         1 UNK         0.0787 
    103 H103       25.3636  -32.2166  -39.1069 H         1 UNK         0.0787 
    104 H104       26.4772  -31.4244  -40.2202 H         1 UNK         0.0787 
    105 H105       25.4501  -33.2267  -40.9442 H         1 UNK         0.3055 
    106 H106       25.4584  -34.9583  -42.2864 H         1 UNK         0.1106 
    107 H107       24.9320  -34.7662  -44.6838 H         1 UNK         0.0828 
    108 H108       24.0949  -33.2456  -44.4285 H         1 UNK         0.0828 
    109 H109       25.8326  -33.3546  -44.1532 H         1 UNK         0.0828 
    110 H110       22.2334  -33.4327  -42.4069 H         1 UNK         0.2931 
    111 H111       20.8285  -35.9446  -42.7758 H         1 UNK         0.0412 
    112 H112       21.3044  -35.6358  -38.7849 H         1 UNK         0.3472 
    113 H113       22.2831  -34.7124  -39.8981 H         1 UNK         0.3472 
    114 H114       19.6999  -33.2316  -41.9604 H         1 UNK         0.0970 
    115 H115       18.7487  -34.6134  -42.4258 H         1 UNK         0.0970 
    116 H116       20.7472  -31.6388  -43.4426 H         1 UNK         0.0612 
    117 H117       20.5907  -31.5654  -45.1740 H         1 UNK         0.0612 
@<TRIPOS>BOND
     1    1    2 1    
     2    1   62 1    
     3    1   63 1    
     4    1   64 1    
     5    2    3 2    
     6    2    4 am   BACKBONE|DICT|INTERRES
     7    4    5 1    
     8    4   65 1    
     9    5    6 1    
    10    5   25 1    
    11    5   66 1    
    12    6    7 1    
    13    6   67 1    
    14    6   68 1    
    15    7    8 1    
    16    8    9 1    
    17    8   69 1    
    18    8   70 1    
    19    9   10 ar   
    20    9   14 ar   
    21   10   11 ar   
    22   10   71 1    
    23   11   12 ar   
    24   11   61 1    
    25   12   13 ar   
    26   12   72 1    
    27   13   14 ar   
    28   13   15 1    
    29   14   73 1    
    30   15   16 1    
    31   15   74 1    
    32   15   75 1    
    33   16   17 1    
    34   17   18 1    
    35   17   76 1    
    36   17   77 1    
    37   18   19 1    
    38   18   27 1    
    39   18   78 1    
    40   19   20 am   BACKBONE|DICT|INTERRES
    41   19   79 1    
    42   20   21 2    
    43   20   22 1    
    44   22   23 1    
    45   22   24 1    
    46   22   80 1    
    47   23   81 1    
    48   23   82 1    
    49   23   83 1    
    50   24   25 am   BACKBONE|DICT|INTERRES
    51   24   84 1    
    52   25   26 2    
    53   27   28 2    
    54   27   29 am   BACKBONE|DICT|INTERRES
    55   29   30 1    
    56   29   85 1    
    57   30   31 1    
    58   30   32 1    
    59   30   86 1    
    60   31   87 1    
    61   31   88 1    
    62   31   89 1    
    63   32   33 2    
    64   32   34 am   BACKBONE|DICT|INTERRES
    65   34   35 1    
    66   34   90 1    
    67   35   36 1    
    68   35   37 1    
    69   35   91 1    
    70   36   92 1    
    71   36   93 1    
    72   36   94 1    
    73   37   38 2    
    74   37   39 am   BACKBONE|DICT|INTERRES
    75   39   40 1    
    76   39   95 1    
    77   40   41 1    
    78   40   42 1    
    79   40   96 1    
    80   41   97 1    
    81   41   98 1    
    82   41   99 1    
    83   42   43 2    
    84   42   44 am   BACKBONE|DICT|INTERRES
    85   44   45 1    
    86   44  100 1    
    87   45   46 1    
    88   45   47 1    
    89   45  101 1    
    90   46  102 1    
    91   46  103 1    
    92   46  104 1    
    93   47   48 2    
    94   47   49 am   BACKBONE|DICT|INTERRES
    95   49   50 1    
    96   49  105 1    
    97   50   51 1    
    98   50   52 1    
    99   50  106 1    
   100   51  107 1    
   101   51  108 1    
   102   51  109 1    
   103   52   53 2    
   104   52   54 am   BACKBONE|DICT|INTERRES
   105   54   55 1    
   106   54  110 1    
   107   55   56 1    
   108   55   59 1    
   109   55  111 1    
   110   56   57 am   BACKBONE|DICT|INTERRES
   111   56   58 2    
   112   57  112 1    
   113   57  113 1    
   114   59   60 1    
   115   59  114 1    
   116   59  115 1    
   117   60   61 1    
   118   61  116 1    
   119   61  117 1    
@<TRIPOS>SUBSTRUCTURE
     1 UNK         1 GROUP             0       ****    0 ROOT    
