@<TRIPOS>MOLECULE
3R8
117   119    1
SMALL
USER_CHARGES


@<TRIPOS>ATOM
      1 CA         16.4179  -21.9097  -46.1868 C.3       0 UNK        -0.2013 
      2 C          17.5544  -22.9212  -46.2053 C.2       0 UNK         0.4866 
      3 O          18.7081  -22.5422  -46.4108 O.2       0 UNK        -0.5176 
      4 N          17.2381  -24.2061  -46.0002 N.am      1 UNK        -0.4884 
      5 CA         18.2116  -25.2994  -45.9130 C.3       1 UNK         0.0853 
      6 C6         17.5224  -26.6732  -46.1062 C.3       10 UNK        -0.0849 
      7 S7         18.6703  -27.9490  -46.7246 S.3       10 UNK        -0.2776 
      8 C8         17.5407  -29.3617  -46.9380 C.3       10 UNK         0.0316 
      9 C9         17.4826  -30.2314  -45.6901 C.ar      10 UNK        -0.0863 
     10 C10        18.2673  -31.3844  -45.6049 C.ar      10 UNK        -0.1009 
     11 C11        18.2255  -32.2063  -44.4742 C.ar      10 UNK        -0.0712 
     12 C12        17.3681  -31.8615  -43.4210 C.ar      10 UNK        -0.0894 
     13 C13        16.5843  -30.7056  -43.4886 C.ar      10 UNK        -0.0745 
     14 C14        16.6376  -29.8998  -44.6289 C.ar      10 UNK        -0.0972 
     15 C15        15.6729  -30.3333  -42.3294 C.3       10 UNK         0.0209 
     16 S16        16.6152  -29.7895  -40.8695 S.3       10 UNK        -0.2568 
     17 C17        17.4056  -28.2498  -41.4576 C.3       10 UNK        -0.0983 
     18 CA         18.9529  -28.3469  -41.5077 C.3       3 UNK         0.0876 
     19 N          19.5226  -27.2148  -42.2404 N.am      3 UNK        -0.4424 
     20 C          20.8152  -26.9836  -42.5083 C.2       2 UNK         0.4918 
     21 O          21.7402  -27.6865  -42.0983 O.2       2 UNK        -0.4875 
     22 CA         21.1231  -25.7671  -43.4101 C.3       2 UNK         0.0481 
     23 CB         22.5792  -25.7664  -43.9100 C.3       2 UNK        -0.1831 
     24 N          20.2362  -25.6837  -44.5766 N.am      2 UNK        -0.4498 
     25 C          18.9716  -25.2438  -44.5718 C.2       1 UNK         0.5027 
     26 O          18.3887  -24.8680  -43.5506 O.2       1 UNK        -0.4969 
     27 C          19.5648  -28.4712  -40.0974 C.2       3 UNK         0.5005 
     28 O          19.3029  -27.6216  -39.2421 O.2       3 UNK        -0.5279 
     29 N          20.3801  -29.5167  -39.9042 N.am      4 UNK        -0.4463 
     30 CA         21.1058  -29.8749  -38.6821 C.3       4 UNK         0.0283 
     31 CB         20.1399  -30.1540  -37.5116 C.3       4 UNK        -0.1875 
     32 C          22.2263  -28.8867  -38.3069 C.2       4 UNK         0.4949 
     33 O          22.7441  -28.9602  -37.1923 O.2       4 UNK        -0.5039 
     34 N          22.6327  -28.0208  -39.2455 N.am      5 UNK        -0.4663 
     35 CA         23.7489  -27.0836  -39.1028 C.3       5 UNK         0.0242 
     36 CB         23.3325  -25.7134  -39.6682 C.3       5 UNK        -0.1982 
     37 C          25.0058  -27.6547  -39.7822 C.2       5 UNK         0.5017 
     38 O          25.6980  -26.9378  -40.5068 O.2       5 UNK        -0.5012 
     39 N          25.2526  -28.9550  -39.5610 N.am      6 UNK        -0.4439 
     40 CA         26.3366  -29.8086  -40.0687 C.3       6 UNK         0.0297 
     41 CB         27.7164  -29.2967  -39.6120 C.3       6 UNK        -0.2006 
     42 C          26.3190  -30.0569  -41.5887 C.2       6 UNK         0.4892 
     43 O          26.5388  -31.1934  -42.0082 O.2       6 UNK        -0.5089 
     44 N          26.0691  -29.0083  -42.3817 N.am      7 UNK        -0.4243 
     45 CA         26.0844  -29.0243  -43.8458 C.3       7 UNK         0.0196 
     46 CB         26.0397  -27.5796  -44.3665 C.3       7 UNK        -0.2007 
     47 C          24.9684  -29.8705  -44.4825 C.2       7 UNK         0.5020 
     48 O          25.1785  -30.4028  -45.5732 O.2       7 UNK        -0.5147 
     49 N          23.8190  -29.9947  -43.8080 N.am      8 UNK        -0.4734 
     50 CA         22.7022  -30.8327  -44.2329 C.3       8 UNK         0.0238 
     51 CB         21.6924  -29.9877  -45.0290 C.3       8 UNK        -0.1912 
     52 C          22.0648  -31.4498  -42.9859 C.2       8 UNK         0.5038 
     53 O          21.5720  -30.7083  -42.1355 O.2       8 UNK        -0.5046 
     54 N          22.0874  -32.7857  -42.8854 N.am      9 UNK        -0.4200 
     55 CA         21.5097  -33.5610  -41.7704 C.3       9 UNK         0.0839 
     56 C          22.2074  -33.3314  -40.3914 C.2       9 UNK         0.5513 
     57 N          23.4245  -32.8015  -40.3453 N.am      9 UNK        -0.7519 
     58 O          21.6593  -33.6715  -39.3463 O.2       9 UNK        -0.4960 
     59 C59        19.9545  -33.4360  -41.7106 C.3       10 UNK        -0.0876 
     60 S60        19.1117  -34.4761  -42.9538 S.3       10 UNK        -0.2414 
     61 C61        19.1169  -33.4503  -44.4671 C.3       10 UNK         0.0169 
     62 H62        15.4524  -22.3832  -46.0097 H         1 UNK         0.0903 
     63 H63        16.5839  -21.1741  -45.4002 H         1 UNK         0.0903 
     64 H64        16.3677  -21.3841  -47.1400 H         1 UNK         0.0903 
     65 H65        16.2792  -24.4530  -45.7998 H         1 UNK         0.3096 
     66 H66        18.9316  -25.1511  -46.7218 H         1 UNK         0.1121 
     67 H67        17.0456  -27.0121  -45.1851 H         1 UNK         0.0849 
     68 H68        16.7227  -26.5847  -46.8439 H         1 UNK         0.0849 
     69 H69        16.5412  -29.0143  -47.2038 H         1 UNK         0.0865 
     70 H70        17.8844  -29.9537  -47.7877 H         1 UNK         0.0865 
     71 H71        18.9175  -31.6460  -46.4289 H         1 UNK         0.1346 
     72 H72        17.3024  -32.4789  -42.5371 H         1 UNK         0.1412 
     73 H73        16.0194  -29.0155  -44.6902 H         1 UNK         0.1426 
     74 H74        15.0684  -31.1994  -42.0562 H         1 UNK         0.0716 
     75 H75        14.9706  -29.5493  -42.6171 H         1 UNK         0.0716 
     76 H76        17.0872  -27.4278  -40.8136 H         1 UNK         0.0695 
     77 H77        17.0170  -28.0107  -42.4482 H         1 UNK         0.0695 
     78 H78        19.2108  -29.2405  -42.0815 H         1 UNK         0.0983 
     79 H79        18.8618  -26.5252  -42.5802 H         1 UNK         0.3095 
     80 H80        20.9807  -24.8735  -42.7992 H         1 UNK         0.0454 
     81 H81        22.7955  -26.6530  -44.5077 H         1 UNK         0.0851 
     82 H82        23.2835  -25.7535  -43.0783 H         1 UNK         0.0851 
     83 H83        22.7911  -24.8885  -44.5203 H         1 UNK         0.0851 
     84 H84        20.6122  -26.0414  -45.4436 H         1 UNK         0.2976 
     85 H85        20.6457  -30.0595  -40.7275 H         1 UNK         0.3116 
     86 H86        21.6121  -30.8122  -38.9119 H         1 UNK         0.0646 
     87 H87        19.6499  -29.2449  -37.1624 H         1 UNK         0.0847 
     88 H88        20.6709  -30.5816  -36.6604 H         1 UNK         0.0847 
     89 H89        19.3656  -30.8657  -37.7980 H         1 UNK         0.0847 
     90 H90        22.1923  -28.0527  -40.1616 H         1 UNK         0.3040 
     91 H91        23.9946  -26.9435  -38.0478 H         1 UNK         0.1015 
     92 H92        22.4335  -25.3398  -39.1777 H         1 UNK         0.0786 
     93 H93        23.1337  -25.7619  -40.7376 H         1 UNK         0.0786 
     94 H94        24.1174  -24.9716  -39.5153 H         1 UNK         0.0786 
     95 H95        24.5887  -29.4301  -38.9648 H         1 UNK         0.3172 
     96 H96        26.1809  -30.7804  -39.5972 H         1 UNK         0.0595 
     97 H97        27.9578  -28.3259  -40.0460 H         1 UNK         0.0839 
     98 H98        28.5055  -29.9881  -39.9107 H         1 UNK         0.0839 
     99 H99        27.7649  -29.2002  -38.5274 H         1 UNK         0.0839 
    100 H100       25.9152  -28.1121  -41.9252 H         1 UNK         0.2998 
    101 H101       27.0339  -29.4649  -44.1576 H         1 UNK         0.0822 
    102 H102       26.9113  -27.0135  -44.0369 H         1 UNK         0.0787 
    103 H103       26.0300  -27.5535  -45.4571 H         1 UNK         0.0787 
    104 H104       25.1513  -27.0558  -44.0170 H         1 UNK         0.0787 
    105 H105       23.7031  -29.5293  -42.9164 H         1 UNK         0.3055 
    106 H106       23.0636  -31.6380  -44.8766 H         1 UNK         0.1106 
    107 H107       20.8838  -30.6097  -45.4071 H         1 UNK         0.0828 
    108 H108       21.2421  -29.2057  -44.4179 H         1 UNK         0.0828 
    109 H109       22.1610  -29.5105  -45.8896 H         1 UNK         0.0828 
    110 H110       22.5408  -33.3299  -43.6048 H         1 UNK         0.2931 
    111 H111       21.7428  -34.6022  -41.9961 H         1 UNK         0.0412 
    112 H112       23.9059  -32.5457  -41.1923 H         1 UNK         0.3472 
    113 H113       23.8762  -32.6925  -39.4519 H         1 UNK         0.3472 
    114 H114       19.5707  -33.7725  -40.7464 H         1 UNK         0.0970 
    115 H115       19.6294  -32.3995  -41.7981 H         1 UNK         0.0970 
    116 H116       18.7976  -34.0915  -45.2898 H         1 UNK         0.0612 
    117 H117       20.1411  -33.1601  -44.6976 H         1 UNK         0.0612 
@<TRIPOS>BOND
     1    1    2 1    
     2    1   62 1    
     3    1   63 1    
     4    1   64 1    
     5    2    3 2    
     6    2    4 am   BACKBONE|DICT|INTERRES
     7    4    5 1    
     8    4   65 1    
     9    5    6 1    
    10    5   25 1    
    11    5   66 1    
    12    6    7 1    
    13    6   67 1    
    14    6   68 1    
    15    7    8 1    
    16    8    9 1    
    17    8   69 1    
    18    8   70 1    
    19    9   10 ar   
    20    9   14 ar   
    21   10   11 ar   
    22   10   71 1    
    23   11   12 ar   
    24   11   61 1    
    25   12   13 ar   
    26   12   72 1    
    27   13   14 ar   
    28   13   15 1    
    29   14   73 1    
    30   15   16 1    
    31   15   74 1    
    32   15   75 1    
    33   16   17 1    
    34   17   18 1    
    35   17   76 1    
    36   17   77 1    
    37   18   19 1    
    38   18   27 1    
    39   18   78 1    
    40   19   20 am   BACKBONE|DICT|INTERRES
    41   19   79 1    
    42   20   21 2    
    43   20   22 1    
    44   22   23 1    
    45   22   24 1    
    46   22   80 1    
    47   23   81 1    
    48   23   82 1    
    49   23   83 1    
    50   24   25 am   BACKBONE|DICT|INTERRES
    51   24   84 1    
    52   25   26 2    
    53   27   28 2    
    54   27   29 am   BACKBONE|DICT|INTERRES
    55   29   30 1    
    56   29   85 1    
    57   30   31 1    
    58   30   32 1    
    59   30   86 1    
    60   31   87 1    
    61   31   88 1    
    62   31   89 1    
    63   32   33 2    
    64   32   34 am   BACKBONE|DICT|INTERRES
    65   34   35 1    
    66   34   90 1    
    67   35   36 1    
    68   35   37 1    
    69   35   91 1    
    70   36   92 1    
    71   36   93 1    
    72   36   94 1    
    73   37   38 2    
    74   37   39 am   BACKBONE|DICT|INTERRES
    75   39   40 1    
    76   39   95 1    
    77   40   41 1    
    78   40   42 1    
    79   40   96 1    
    80   41   97 1    
    81   41   98 1    
    82   41   99 1    
    83   42   43 2    
    84   42   44 am   BACKBONE|DICT|INTERRES
    85   44   45 1    
    86   44  100 1    
    87   45   46 1    
    88   45   47 1    
    89   45  101 1    
    90   46  102 1    
    91   46  103 1    
    92   46  104 1    
    93   47   48 2    
    94   47   49 am   BACKBONE|DICT|INTERRES
    95   49   50 1    
    96   49  105 1    
    97   50   51 1    
    98   50   52 1    
    99   50  106 1    
   100   51  107 1    
   101   51  108 1    
   102   51  109 1    
   103   52   53 2    
   104   52   54 am   BACKBONE|DICT|INTERRES
   105   54   55 1    
   106   54  110 1    
   107   55   56 1    
   108   55   59 1    
   109   55  111 1    
   110   56   57 am   BACKBONE|DICT|INTERRES
   111   56   58 2    
   112   57  112 1    
   113   57  113 1    
   114   59   60 1    
   115   59  114 1    
   116   59  115 1    
   117   60   61 1    
   118   61  116 1    
   119   61  117 1    
@<TRIPOS>SUBSTRUCTURE
     1 UNK         1 GROUP             0       ****    0 ROOT    
