@<TRIPOS>MOLECULE
3R8
117   119    1
SMALL
USER_CHARGES


@<TRIPOS>ATOM
      1 CA         13.3269  -23.6575  -46.8228 C.3       0 UNK        -0.2013 
      2 C          13.9215  -24.3975  -45.6333 C.2       0 UNK         0.4866 
      3 O          13.6915  -23.9935  -44.4928 O.2       0 UNK        -0.5176 
      4 N          14.6747  -25.4740  -45.9017 N.am      1 UNK        -0.4884 
      5 CA         15.3809  -26.3341  -44.9379 C.3       1 UNK         0.0853 
      6 C6         14.4269  -27.0485  -43.9331 C.3       10 UNK        -0.0849 
      7 S7         13.4991  -28.3788  -44.7694 S.3       10 UNK        -0.2776 
      8 C8         14.3203  -29.8818  -44.1325 C.3       10 UNK         0.0316 
      9 C9         15.8396  -29.8348  -44.2636 C.ar      10 UNK        -0.0863 
     10 C10        16.6440  -29.8674  -43.1208 C.ar      10 UNK        -0.1009 
     11 C11        18.0370  -29.8220  -43.2276 C.ar      10 UNK        -0.0712 
     12 C12        18.6287  -29.7348  -44.4922 C.ar      10 UNK        -0.0894 
     13 C13        17.8339  -29.6932  -45.6430 C.ar      10 UNK        -0.0745 
     14 C14        16.4423  -29.7592  -45.5221 C.ar      10 UNK        -0.0972 
     15 C15        18.4652  -29.5881  -47.0232 C.3       10 UNK         0.0209 
     16 S16        18.8157  -27.8569  -47.4749 S.3       10 UNK        -0.2568 
     17 C17        20.5377  -27.6549  -46.9007 C.3       10 UNK        -0.0983 
     18 CA         20.7301  -26.4867  -45.9010 C.3       3 UNK         0.0876 
     19 N          19.8253  -26.6005  -44.7504 N.am      3 UNK        -0.4424 
     20 C          19.6816  -25.7066  -43.7617 C.2       2 UNK         0.4918 
     21 O          20.3576  -24.6828  -43.6508 O.2       2 UNK        -0.4875 
     22 CA         18.5598  -26.0161  -42.7503 C.3       2 UNK         0.0481 
     23 CB         18.3333  -24.8854  -41.7248 C.3       2 UNK        -0.1831 
     24 N          17.3047  -26.3882  -43.4192 N.am      2 UNK        -0.4498 
     25 C          16.5798  -25.6304  -44.2604 C.2       1 UNK         0.5027 
     26 O          16.8652  -24.4644  -44.5457 O.2       1 UNK        -0.4969 
     27 C          22.2213  -26.3879  -45.5129 C.2       3 UNK         0.5005 
     28 O          22.9870  -25.7143  -46.2046 O.2       3 UNK        -0.5279 
     29 N          22.6029  -27.0709  -44.4291 N.am      4 UNK        -0.4463 
     30 CA         23.9466  -27.1514  -43.8686 C.3       4 UNK         0.0283 
     31 CB         24.8390  -28.0536  -44.7462 C.3       4 UNK        -0.1875 
     32 C          23.8248  -27.6935  -42.4385 C.2       4 UNK         0.4949 
     33 O          22.7242  -28.0585  -42.0162 O.2       4 UNK        -0.5039 
     34 N          24.9537  -27.7470  -41.7261 N.am      5 UNK        -0.4663 
     35 CA         25.0623  -28.2786  -40.3681 C.3       5 UNK         0.0242 
     36 CB         24.8073  -27.1573  -39.3415 C.3       5 UNK        -0.1982 
     37 C          26.4274  -28.9617  -40.2025 C.2       5 UNK         0.5017 
     38 O          27.2040  -28.5947  -39.3191 O.2       5 UNK        -0.5012 
     39 N          26.7077  -29.9288  -41.0868 N.am      6 UNK        -0.4439 
     40 CA         27.8778  -30.8095  -41.0128 C.3       6 UNK         0.0297 
     41 CB         28.0904  -31.4945  -42.3724 C.3       6 UNK        -0.2006 
     42 C          27.7210  -31.8540  -39.8934 C.2       6 UNK         0.4892 
     43 O          28.6920  -32.1578  -39.1994 O.2       6 UNK        -0.5089 
     44 N          26.4892  -32.3462  -39.7269 N.am      7 UNK        -0.4243 
     45 CA         26.0204  -33.1339  -38.5934 C.3       7 UNK         0.0196 
     46 CB         25.8058  -34.5950  -39.0401 C.3       7 UNK        -0.2007 
     47 C          24.7569  -32.4259  -38.0805 C.2       7 UNK         0.5020 
     48 O          24.8176  -31.2267  -37.8030 O.2       7 UNK        -0.5147 
     49 N          23.6245  -33.1389  -38.0033 N.am      8 UNK        -0.4734 
     50 CA         22.3036  -32.5423  -37.7637 C.3       8 UNK         0.0238 
     51 CB         21.2817  -33.6502  -37.4604 C.3       8 UNK        -0.1912 
     52 C          21.8358  -31.6783  -38.9507 C.2       8 UNK         0.5038 
     53 O          21.2247  -30.6317  -38.7340 O.2       8 UNK        -0.5046 
     54 N          22.1712  -32.1296  -40.1655 N.am      9 UNK        -0.4200 
     55 CA         22.0166  -31.4229  -41.4424 C.3       9 UNK         0.0839 
     56 C          23.3560  -31.4885  -42.2330 C.2       9 UNK         0.5513 
     57 N          23.3470  -31.3130  -43.5470 N.am      9 UNK        -0.7519 
     58 O          24.4297  -31.6652  -41.6582 O.2       9 UNK        -0.4960 
     59 C59        20.7775  -31.9158  -42.2479 C.3       10 UNK        -0.0876 
     60 S60        19.2017  -31.5552  -41.4051 S.3       10 UNK        -0.2414 
     61 C61        18.8870  -29.8524  -41.9660 C.3       10 UNK         0.0169 
     62 H62        13.5950  -24.1234  -47.7709 H         1 UNK         0.0903 
     63 H63        12.2398  -23.6415  -46.7492 H         1 UNK         0.0903 
     64 H64        13.6826  -22.6276  -46.8390 H         1 UNK         0.0903 
     65 H65        14.8265  -25.7217  -46.8696 H         1 UNK         0.3096 
     66 H66        15.8541  -27.0988  -45.5541 H         1 UNK         0.1121 
     67 H67        14.9558  -27.4798  -43.0834 H         1 UNK         0.0849 
     68 H68        13.7161  -26.3503  -43.4911 H         1 UNK         0.0849 
     69 H69        14.0264  -30.0253  -43.0914 H         1 UNK         0.0865 
     70 H70        13.9422  -30.7488  -44.6758 H         1 UNK         0.0865 
     71 H71        16.1877  -29.9353  -42.1421 H         1 UNK         0.1346 
     72 H72        19.7053  -29.7014  -44.5819 H         1 UNK         0.1412 
     73 H73        15.8222  -29.7329  -46.4083 H         1 UNK         0.1426 
     74 H74        17.7881  -30.0049  -47.7705 H         1 UNK         0.0716 
     75 H75        19.3705  -30.1942  -47.0779 H         1 UNK         0.0716 
     76 H76        21.1543  -27.4940  -47.7875 H         1 UNK         0.0695 
     77 H77        20.8899  -28.5898  -46.4616 H         1 UNK         0.0695 
     78 H78        20.4738  -25.5558  -46.4114 H         1 UNK         0.0983 
     79 H79        19.1860  -27.3809  -44.7813 H         1 UNK         0.3095 
     80 H80        18.8856  -26.8956  -42.1943 H         1 UNK         0.0454 
     81 H81        19.2404  -24.6947  -41.1502 H         1 UNK         0.0851 
     82 H82        17.5493  -25.1455  -41.0140 H         1 UNK         0.0851 
     83 H83        18.0530  -23.9477  -42.2053 H         1 UNK         0.0851 
     84 H84        17.0093  -27.3445  -43.2744 H         1 UNK         0.2976 
     85 H85        21.9074  -27.5444  -43.8647 H         1 UNK         0.3116 
     86 H86        24.3710  -26.1467  -43.8169 H         1 UNK         0.0646 
     87 H87        24.4270  -29.0583  -44.8372 H         1 UNK         0.0847 
     88 H88        24.9474  -27.6491  -45.7524 H         1 UNK         0.0847 
     89 H89        25.8443  -28.1479  -44.3348 H         1 UNK         0.0847 
     90 H90        25.8200  -27.4400  -42.1487 H         1 UNK         0.3040 
     91 H91        24.3098  -29.0565  -40.2136 H         1 UNK         0.1015 
     92 H92        23.8086  -26.7356  -39.4566 H         1 UNK         0.0786 
     93 H93        24.8806  -27.5388  -38.3221 H         1 UNK         0.0786 
     94 H94        25.5287  -26.3459  -39.4431 H         1 UNK         0.0786 
     95 H95        25.9799  -30.2009  -41.7371 H         1 UNK         0.3172 
     96 H96        28.7593  -30.2037  -40.7922 H         1 UNK         0.0595 
     97 H97        27.2341  -32.1083  -42.6559 H         1 UNK         0.0839 
     98 H98        28.9646  -32.1465  -42.3467 H         1 UNK         0.0839 
     99 H99        28.2556  -30.7630  -43.1635 H         1 UNK         0.0839 
    100 H100       25.7606  -32.0198  -40.3578 H         1 UNK         0.2998 
    101 H101       26.7514  -33.1131  -37.7824 H         1 UNK         0.0822 
    102 H102       25.4680  -35.2193  -38.2119 H         1 UNK         0.0787 
    103 H103       26.7386  -35.0285  -39.4016 H         1 UNK         0.0787 
    104 H104       25.0763  -34.6747  -39.8473 H         1 UNK         0.0787 
    105 H105       23.6551  -34.1251  -38.2202 H         1 UNK         0.3055 
    106 H106       22.3737  -31.8906  -36.8894 H         1 UNK         0.1106 
    107 H107       21.1741  -34.3446  -38.2945 H         1 UNK         0.0828 
    108 H108       21.5679  -34.2240  -36.5788 H         1 UNK         0.0828 
    109 H109       20.2964  -33.2254  -37.2626 H         1 UNK         0.0828 
    110 H110       22.7217  -32.9736  -40.2177 H         1 UNK         0.2931 
    111 H111       21.8780  -30.3638  -41.2272 H         1 UNK         0.0412 
    112 H112       24.2186  -31.3724  -44.0480 H         1 UNK         0.3472 
    113 H113       22.4918  -31.1569  -44.0533 H         1 UNK         0.3472 
    114 H114       20.8410  -32.9921  -42.4161 H         1 UNK         0.0970 
    115 H115       20.7333  -31.4611  -43.2370 H         1 UNK         0.0970 
    116 H116       19.8297  -29.3251  -42.1211 H         1 UNK         0.0612 
    117 H117       18.3731  -29.3165  -41.1666 H         1 UNK         0.0612 
@<TRIPOS>BOND
     1    1    2 1    
     2    1   62 1    
     3    1   63 1    
     4    1   64 1    
     5    2    3 2    
     6    2    4 am   BACKBONE|DICT|INTERRES
     7    4    5 1    
     8    4   65 1    
     9    5    6 1    
    10    5   25 1    
    11    5   66 1    
    12    6    7 1    
    13    6   67 1    
    14    6   68 1    
    15    7    8 1    
    16    8    9 1    
    17    8   69 1    
    18    8   70 1    
    19    9   10 ar   
    20    9   14 ar   
    21   10   11 ar   
    22   10   71 1    
    23   11   12 ar   
    24   11   61 1    
    25   12   13 ar   
    26   12   72 1    
    27   13   14 ar   
    28   13   15 1    
    29   14   73 1    
    30   15   16 1    
    31   15   74 1    
    32   15   75 1    
    33   16   17 1    
    34   17   18 1    
    35   17   76 1    
    36   17   77 1    
    37   18   19 1    
    38   18   27 1    
    39   18   78 1    
    40   19   20 am   BACKBONE|DICT|INTERRES
    41   19   79 1    
    42   20   21 2    
    43   20   22 1    
    44   22   23 1    
    45   22   24 1    
    46   22   80 1    
    47   23   81 1    
    48   23   82 1    
    49   23   83 1    
    50   24   25 am   BACKBONE|DICT|INTERRES
    51   24   84 1    
    52   25   26 2    
    53   27   28 2    
    54   27   29 am   BACKBONE|DICT|INTERRES
    55   29   30 1    
    56   29   85 1    
    57   30   31 1    
    58   30   32 1    
    59   30   86 1    
    60   31   87 1    
    61   31   88 1    
    62   31   89 1    
    63   32   33 2    
    64   32   34 am   BACKBONE|DICT|INTERRES
    65   34   35 1    
    66   34   90 1    
    67   35   36 1    
    68   35   37 1    
    69   35   91 1    
    70   36   92 1    
    71   36   93 1    
    72   36   94 1    
    73   37   38 2    
    74   37   39 am   BACKBONE|DICT|INTERRES
    75   39   40 1    
    76   39   95 1    
    77   40   41 1    
    78   40   42 1    
    79   40   96 1    
    80   41   97 1    
    81   41   98 1    
    82   41   99 1    
    83   42   43 2    
    84   42   44 am   BACKBONE|DICT|INTERRES
    85   44   45 1    
    86   44  100 1    
    87   45   46 1    
    88   45   47 1    
    89   45  101 1    
    90   46  102 1    
    91   46  103 1    
    92   46  104 1    
    93   47   48 2    
    94   47   49 am   BACKBONE|DICT|INTERRES
    95   49   50 1    
    96   49  105 1    
    97   50   51 1    
    98   50   52 1    
    99   50  106 1    
   100   51  107 1    
   101   51  108 1    
   102   51  109 1    
   103   52   53 2    
   104   52   54 am   BACKBONE|DICT|INTERRES
   105   54   55 1    
   106   54  110 1    
   107   55   56 1    
   108   55   59 1    
   109   55  111 1    
   110   56   57 am   BACKBONE|DICT|INTERRES
   111   56   58 2    
   112   57  112 1    
   113   57  113 1    
   114   59   60 1    
   115   59  114 1    
   116   59  115 1    
   117   60   61 1    
   118   61  116 1    
   119   61  117 1    
@<TRIPOS>SUBSTRUCTURE
     1 UNK         1 GROUP             0       ****    0 ROOT    
