@<TRIPOS>MOLECULE
3R8
117   119    1
SMALL
USER_CHARGES


@<TRIPOS>ATOM
      1 CA         15.7313  -24.6705  -42.3183 C.3       0 UNK        -0.2013 
      2 C          14.7947  -23.9947  -43.3185 C.2       0 UNK         0.4866 
      3 O          14.0309  -23.1178  -42.9187 O.2       0 UNK        -0.5176 
      4 N          14.7879  -24.3555  -44.6116 N.am      1 UNK        -0.4884 
      5 CA         15.6403  -25.3284  -45.3122 C.3       1 UNK         0.0853 
      6 C6         15.5289  -26.7681  -44.7316 C.3       10 UNK        -0.0849 
      7 S7         15.6789  -28.0709  -46.0016 S.3       10 UNK        -0.2776 
      8 C8         15.4887  -29.5793  -44.9945 C.3       10 UNK         0.0316 
      9 C9         16.7395  -29.8680  -44.1773 C.ar      10 UNK        -0.0863 
     10 C10        17.7740  -30.6372  -44.7180 C.ar      10 UNK        -0.1009 
     11 C11        18.9381  -30.8789  -43.9822 C.ar      10 UNK        -0.0712 
     12 C12        19.0608  -30.3493  -42.6935 C.ar      10 UNK        -0.0894 
     13 C13        18.0552  -29.5339  -42.1653 C.ar      10 UNK        -0.0745 
     14 C14        16.8799  -29.3351  -42.8934 C.ar      10 UNK        -0.0972 
     15 C15        18.2526  -28.8006  -40.8463 C.3       10 UNK         0.0209 
     16 S16        18.5884  -27.0255  -41.1319 S.3       10 UNK        -0.2568 
     17 C17        20.3950  -26.9872  -41.3975 C.3       10 UNK        -0.0983 
     18 CA         20.8153  -27.3066  -42.8541 C.3       3 UNK         0.0876 
     19 N          20.2711  -26.3482  -43.8246 N.am      3 UNK        -0.4424 
     20 C          20.1465  -26.5927  -45.1362 C.2       2 UNK         0.4918 
     21 O          20.5149  -27.6335  -45.6820 O.2       2 UNK        -0.4875 
     22 CA         19.4406  -25.5088  -45.9568 C.3       2 UNK         0.0481 
     23 CB         19.8371  -25.5405  -47.4443 C.3       2 UNK        -0.1831 
     24 N          18.0051  -25.7372  -45.8325 N.am      2 UNK        -0.4498 
     25 C          17.0966  -24.8264  -45.4696 C.2       1 UNK         0.5027 
     26 O          17.3681  -23.6404  -45.2643 O.2       1 UNK        -0.4969 
     27 C          22.3381  -27.5315  -42.9694 C.2       3 UNK         0.5005 
     28 O          22.8286  -28.5416  -42.4565 O.2       3 UNK        -0.5279 
     29 N          23.0462  -26.6187  -43.6525 N.am      4 UNK        -0.4463 
     30 CA         24.4690  -26.6812  -43.9989 C.3       4 UNK         0.0283 
     31 CB         24.7132  -27.7888  -45.0506 C.3       4 UNK        -0.1875 
     32 C          25.3676  -26.7765  -42.7506 C.2       4 UNK         0.4949 
     33 O          25.2841  -25.9023  -41.8855 O.2       4 UNK        -0.5039 
     34 N          26.2122  -27.8130  -42.6754 N.am      5 UNK        -0.4663 
     35 CA         27.1755  -28.0728  -41.6028 C.3       5 UNK         0.0242 
     36 CB         28.2277  -29.0717  -42.1219 C.3       5 UNK        -0.1982 
     37 C          26.5087  -28.5432  -40.2931 C.2       5 UNK         0.5017 
     38 O          26.7509  -29.6675  -39.8516 O.2       5 UNK        -0.5012 
     39 N          25.6928  -27.6595  -39.7002 N.am      6 UNK        -0.4439 
     40 CA         24.9896  -27.7968  -38.4190 C.3       6 UNK         0.0297 
     41 CB         25.9954  -27.7744  -37.2479 C.3       6 UNK        -0.2006 
     42 C          24.0539  -29.0199  -38.3846 C.2       6 UNK         0.4892 
     43 O          24.2066  -29.8883  -37.5237 O.2       6 UNK        -0.5089 
     44 N          23.1120  -29.0494  -39.3393 N.am      7 UNK        -0.4243 
     45 CA         22.1623  -30.1316  -39.6198 C.3       7 UNK         0.0196 
     46 CB         21.2493  -30.4420  -38.4141 C.3       7 UNK        -0.2007 
     47 C          22.8921  -31.3599  -40.1772 C.2       7 UNK         0.5020 
     48 O          22.9252  -32.4151  -39.5426 O.2       7 UNK        -0.5147 
     49 N          23.4516  -31.1914  -41.3834 N.am      8 UNK        -0.4734 
     50 CA         24.2142  -32.2097  -42.1196 C.3       8 UNK         0.0238 
     51 CB         24.7710  -31.5781  -43.4051 C.3       8 UNK        -0.1912 
     52 C          23.4243  -33.4941  -42.4460 C.2       8 UNK         0.5038 
     53 O          24.0357  -34.5423  -42.6558 O.2       8 UNK        -0.5046 
     54 N          22.0905  -33.3879  -42.4640 N.am      9 UNK        -0.4200 
     55 CA         21.1400  -34.5022  -42.5775 C.3       9 UNK         0.0839 
     56 C          21.0025  -35.3552  -41.2810 C.2       9 UNK         0.5513 
     57 N          21.5392  -34.9445  -40.1374 N.am      9 UNK        -0.7519 
     58 O          20.3973  -36.4234  -41.3178 O.2       9 UNK        -0.4960 
     59 C59        19.7526  -34.0047  -43.0646 C.3       10 UNK        -0.0876 
     60 S60        19.7811  -33.4168  -44.7922 S.3       10 UNK        -0.2414 
     61 C61        20.0980  -31.6324  -44.6171 C.3       10 UNK         0.0169 
     62 H62        15.3609  -25.6602  -42.0538 H         1 UNK         0.0903 
     63 H63        16.7466  -24.7639  -42.6984 H         1 UNK         0.0903 
     64 H64        15.7872  -24.0858  -41.4003 H         1 UNK         0.0903 
     65 H65        14.1603  -23.8520  -45.2237 H         1 UNK         0.3096 
     66 H66        15.2400  -25.3471  -46.3276 H         1 UNK         0.1121 
     67 H67        14.5571  -26.9062  -44.2545 H         1 UNK         0.0849 
     68 H68        16.2734  -26.9279  -43.9518 H         1 UNK         0.0849 
     69 H69        14.6182  -29.4843  -44.3434 H         1 UNK         0.0865 
     70 H70        15.2794  -30.4209  -45.6566 H         1 UNK         0.0865 
     71 H71        17.6849  -31.0304  -45.7217 H         1 UNK         0.1346 
     72 H72        19.9718  -30.5052  -42.1345 H         1 UNK         0.1412 
     73 H73        16.0957  -28.7177  -42.4772 H         1 UNK         0.1426 
     74 H74        19.0542  -29.2483  -40.2582 H         1 UNK         0.0716 
     75 H75        17.3463  -28.8938  -40.2463 H         1 UNK         0.0716 
     76 H76        20.8530  -27.6731  -40.6871 H         1 UNK         0.0695 
     77 H77        20.7537  -25.9954  -41.1166 H         1 UNK         0.0695 
     78 H78        20.3909  -28.2681  -43.1208 H         1 UNK         0.0983 
     79 H79        19.9058  -25.4859  -43.4468 H         1 UNK         0.3095 
     80 H80        19.7237  -24.5370  -45.5466 H         1 UNK         0.0454 
     81 H81        20.9148  -25.4223  -47.5633 H         1 UNK         0.0851 
     82 H82        19.3588  -24.7316  -47.9965 H         1 UNK         0.0851 
     83 H83        19.5563  -26.4805  -47.9212 H         1 UNK         0.0851 
     84 H84        17.6985  -26.6954  -45.9574 H         1 UNK         0.2976 
     85 H85        22.5510  -25.8051  -43.9881 H         1 UNK         0.3116 
     86 H86        24.7122  -25.7270  -44.4684 H         1 UNK         0.0646 
     87 H87        24.4835  -28.7824  -44.6657 H         1 UNK         0.0847 
     88 H88        24.0891  -27.6316  -45.9305 H         1 UNK         0.0847 
     89 H89        25.7480  -27.7909  -45.3957 H         1 UNK         0.0847 
     90 H90        26.1861  -28.4916  -43.4216 H         1 UNK         0.3040 
     91 H91        27.6942  -27.1385  -41.3756 H         1 UNK         0.1015 
     92 H92        28.9917  -29.2617  -41.3667 H         1 UNK         0.0786 
     93 H93        28.7389  -28.6879  -43.0050 H         1 UNK         0.0786 
     94 H94        27.7815  -30.0323  -42.3822 H         1 UNK         0.0786 
     95 H95        25.5189  -26.7997  -40.2169 H         1 UNK         0.3172 
     96 H96        24.3525  -26.9166  -38.3198 H         1 UNK         0.0595 
     97 H97        26.6649  -28.6350  -37.2708 H         1 UNK         0.0839 
     98 H98        25.4770  -27.7924  -36.2883 H         1 UNK         0.0839 
     99 H99        26.6078  -26.8730  -37.2674 H         1 UNK         0.0839 
    100 H100       23.1346  -28.3130  -40.0319 H         1 UNK         0.2998 
    101 H101       21.5147  -29.7818  -40.4215 H         1 UNK         0.0822 
    102 H102       20.4825  -31.1674  -38.6887 H         1 UNK         0.0787 
    103 H103       21.8012  -30.8646  -37.5744 H         1 UNK         0.0787 
    104 H104       20.7381  -29.5456  -38.0632 H         1 UNK         0.0787 
    105 H105       23.3623  -30.2782  -41.8257 H         1 UNK         0.3055 
    106 H106       25.0549  -32.5057  -41.4881 H         1 UNK         0.1106 
    107 H107       25.4177  -30.7311  -43.1789 H         1 UNK         0.0828 
    108 H108       25.3664  -32.2970  -43.9696 H         1 UNK         0.0828 
    109 H109       23.9720  -31.2283  -44.0601 H         1 UNK         0.0828 
    110 H110       21.6942  -32.4848  -42.2624 H         1 UNK         0.2931 
    111 H111       21.5294  -35.1853  -43.3350 H         1 UNK         0.0412 
    112 H112       21.4374  -35.5204  -39.3170 H         1 UNK         0.3472 
    113 H113       22.0458  -34.0668  -40.0704 H         1 UNK         0.3472 
    114 H114       19.3585  -33.2304  -42.4050 H         1 UNK         0.0970 
    115 H115       19.0234  -34.8167  -43.0314 H         1 UNK         0.0970 
    116 H116       21.0206  -31.4702  -44.0599 H         1 UNK         0.0612 
    117 H117       20.2799  -31.2186  -45.6101 H         1 UNK         0.0612 
@<TRIPOS>BOND
     1    1    2 1    
     2    1   62 1    
     3    1   63 1    
     4    1   64 1    
     5    2    3 2    
     6    2    4 am   BACKBONE|DICT|INTERRES
     7    4    5 1    
     8    4   65 1    
     9    5    6 1    
    10    5   25 1    
    11    5   66 1    
    12    6    7 1    
    13    6   67 1    
    14    6   68 1    
    15    7    8 1    
    16    8    9 1    
    17    8   69 1    
    18    8   70 1    
    19    9   10 ar   
    20    9   14 ar   
    21   10   11 ar   
    22   10   71 1    
    23   11   12 ar   
    24   11   61 1    
    25   12   13 ar   
    26   12   72 1    
    27   13   14 ar   
    28   13   15 1    
    29   14   73 1    
    30   15   16 1    
    31   15   74 1    
    32   15   75 1    
    33   16   17 1    
    34   17   18 1    
    35   17   76 1    
    36   17   77 1    
    37   18   19 1    
    38   18   27 1    
    39   18   78 1    
    40   19   20 am   BACKBONE|DICT|INTERRES
    41   19   79 1    
    42   20   21 2    
    43   20   22 1    
    44   22   23 1    
    45   22   24 1    
    46   22   80 1    
    47   23   81 1    
    48   23   82 1    
    49   23   83 1    
    50   24   25 am   BACKBONE|DICT|INTERRES
    51   24   84 1    
    52   25   26 2    
    53   27   28 2    
    54   27   29 am   BACKBONE|DICT|INTERRES
    55   29   30 1    
    56   29   85 1    
    57   30   31 1    
    58   30   32 1    
    59   30   86 1    
    60   31   87 1    
    61   31   88 1    
    62   31   89 1    
    63   32   33 2    
    64   32   34 am   BACKBONE|DICT|INTERRES
    65   34   35 1    
    66   34   90 1    
    67   35   36 1    
    68   35   37 1    
    69   35   91 1    
    70   36   92 1    
    71   36   93 1    
    72   36   94 1    
    73   37   38 2    
    74   37   39 am   BACKBONE|DICT|INTERRES
    75   39   40 1    
    76   39   95 1    
    77   40   41 1    
    78   40   42 1    
    79   40   96 1    
    80   41   97 1    
    81   41   98 1    
    82   41   99 1    
    83   42   43 2    
    84   42   44 am   BACKBONE|DICT|INTERRES
    85   44   45 1    
    86   44  100 1    
    87   45   46 1    
    88   45   47 1    
    89   45  101 1    
    90   46  102 1    
    91   46  103 1    
    92   46  104 1    
    93   47   48 2    
    94   47   49 am   BACKBONE|DICT|INTERRES
    95   49   50 1    
    96   49  105 1    
    97   50   51 1    
    98   50   52 1    
    99   50  106 1    
   100   51  107 1    
   101   51  108 1    
   102   51  109 1    
   103   52   53 2    
   104   52   54 am   BACKBONE|DICT|INTERRES
   105   54   55 1    
   106   54  110 1    
   107   55   56 1    
   108   55   59 1    
   109   55  111 1    
   110   56   57 am   BACKBONE|DICT|INTERRES
   111   56   58 2    
   112   57  112 1    
   113   57  113 1    
   114   59   60 1    
   115   59  114 1    
   116   59  115 1    
   117   60   61 1    
   118   61  116 1    
   119   61  117 1    
@<TRIPOS>SUBSTRUCTURE
     1 UNK         1 GROUP             0       ****    0 ROOT    
