@<TRIPOS>MOLECULE
3R8
117   119    1
SMALL
USER_CHARGES


@<TRIPOS>ATOM
      1 CA         15.5857  -25.5770  -39.3330 C.3       0 UNK        -0.2013 
      2 C          16.2862  -25.3194  -40.6590 C.2       0 UNK         0.4866 
      3 O          16.8536  -24.2438  -40.8497 O.2       0 UNK        -0.5176 
      4 N          16.2397  -26.2946  -41.5765 N.am      1 UNK        -0.4884 
      5 CA         16.9047  -26.2573  -42.8822 C.3       1 UNK         0.0853 
      6 C6         16.2487  -27.2665  -43.8615 C.3       10 UNK        -0.0849 
      7 S7         16.9735  -27.2800  -45.5387 S.3       10 UNK        -0.2776 
      8 C8         16.8343  -29.0436  -45.9807 C.3       10 UNK         0.0316 
      9 C9         17.9950  -29.8583  -45.4274 C.ar      10 UNK        -0.0863 
     10 C10        17.8793  -30.5352  -44.2099 C.ar      10 UNK        -0.1009 
     11 C11        18.9513  -31.2798  -43.7093 C.ar      10 UNK        -0.0712 
     12 C12        20.1452  -31.3444  -44.4334 C.ar      10 UNK        -0.0894 
     13 C13        20.2718  -30.6854  -45.6605 C.ar      10 UNK        -0.0745 
     14 C14        19.1839  -29.9546  -46.1551 C.ar      10 UNK        -0.0972 
     15 C15        21.5716  -30.8174  -46.4523 C.3       10 UNK         0.0209 
     16 S16        22.0304  -29.3295  -47.4058 S.3       10 UNK        -0.2568 
     17 C17        22.6010  -28.1864  -46.1071 C.3       10 UNK        -0.0983 
     18 CA         21.4879  -27.1817  -45.6705 C.3       3 UNK         0.0876 
     19 N          20.7588  -27.6489  -44.4802 N.am      3 UNK        -0.4424 
     20 C          21.2271  -27.7638  -43.2272 C.2       2 UNK         0.4918 
     21 O          22.3926  -27.5118  -42.9096 O.2       2 UNK        -0.4875 
     22 CA         20.2031  -28.1530  -42.1379 C.3       2 UNK         0.0481 
     23 CB         20.6299  -27.6715  -40.7379 C.3       2 UNK        -0.1831 
     24 N          18.8290  -27.7057  -42.4116 N.am      2 UNK        -0.4498 
     25 C          18.4230  -26.4575  -42.6994 C.2       1 UNK         0.5027 
     26 O          19.1868  -25.4977  -42.8222 O.2       1 UNK        -0.4969 
     27 C          22.0070  -25.7241  -45.5461 C.2       3 UNK         0.5005 
     28 O          22.8291  -25.3048  -46.3627 O.2       3 UNK        -0.5279 
     29 N          21.5495  -24.9807  -44.5217 N.am      4 UNK        -0.4463 
     30 CA         22.0956  -23.7071  -44.0321 C.3       4 UNK         0.0283 
     31 CB         21.8430  -22.5709  -45.0451 C.3       4 UNK        -0.1875 
     32 C          23.5785  -23.8056  -43.6020 C.2       4 UNK         0.4949 
     33 O          24.2820  -22.7944  -43.6071 O.2       4 UNK        -0.5039 
     34 N          24.0299  -25.0183  -43.2494 N.am      5 UNK        -0.4663 
     35 CA         25.4306  -25.3580  -42.9834 C.3       5 UNK         0.0242 
     36 CB         26.0077  -26.0515  -44.2321 C.3       5 UNK        -0.1982 
     37 C          25.5938  -26.2347  -41.7299 C.2       5 UNK         0.5017 
     38 O          26.6837  -26.7647  -41.5104 O.2       5 UNK        -0.5012 
     39 N          24.5181  -26.3822  -40.9407 N.am      6 UNK        -0.4439 
     40 CA         24.4012  -27.2313  -39.7480 C.3       6 UNK         0.0297 
     41 CB         25.3235  -26.7292  -38.6157 C.3       6 UNK        -0.2006 
     42 C          24.5818  -28.7348  -40.0529 C.2       6 UNK         0.4892 
     43 O          25.1524  -29.4611  -39.2363 O.2       6 UNK        -0.5089 
     44 N          24.0907  -29.1779  -41.2200 N.am      7 UNK        -0.4243 
     45 CA         24.0798  -30.5818  -41.6346 C.3       7 UNK         0.0196 
     46 CB         23.7691  -30.6678  -43.1365 C.3       7 UNK        -0.2007 
     47 C          23.0541  -31.3926  -40.8259 C.2       7 UNK         0.5020 
     48 O          21.9683  -30.8889  -40.5305 O.2       7 UNK        -0.5147 
     49 N          23.4128  -32.6365  -40.4928 N.am      8 UNK        -0.4734 
     50 CA         22.5678  -33.5562  -39.7305 C.3       8 UNK         0.0238 
     51 CB         23.4561  -34.6374  -39.0921 C.3       8 UNK        -0.1912 
     52 C          21.4857  -34.2047  -40.6092 C.2       8 UNK         0.5038 
     53 O          21.7237  -34.4517  -41.7940 O.2       8 UNK        -0.5046 
     54 N          20.3483  -34.5155  -39.9824 N.am      9 UNK        -0.4200 
     55 CA         19.2324  -35.2961  -40.5277 C.3       9 UNK         0.0839 
     56 C          18.7365  -36.2928  -39.4486 C.2       9 UNK         0.5513 
     57 N          18.1395  -37.4032  -39.8605 N.am      9 UNK        -0.7519 
     58 O          18.8616  -36.0592  -38.2464 O.2       9 UNK        -0.4960 
     59 C59        18.0719  -34.3891  -41.0224 C.3       10 UNK        -0.0876 
     60 S60        18.3455  -33.7604  -42.7098 S.3       10 UNK        -0.2414 
     61 C61        18.8140  -32.0337  -42.3968 C.3       10 UNK         0.0169 
     62 H62        16.2989  -25.5033  -38.5120 H         1 UNK         0.0903 
     63 H63        14.8031  -24.8356  -39.1721 H         1 UNK         0.0903 
     64 H64        15.1284  -26.5660  -39.2966 H         1 UNK         0.0903 
     65 H65        15.7527  -27.1511  -41.3525 H         1 UNK         0.3096 
     66 H66        16.7674  -25.2583  -43.3038 H         1 UNK         0.1121 
     67 H67        15.1907  -27.0226  -43.9719 H         1 UNK         0.0849 
     68 H68        16.2691  -28.2723  -43.4429 H         1 UNK         0.0849 
     69 H69        16.8148  -29.1299  -47.0683 H         1 UNK         0.0865 
     70 H70        15.8798  -29.4429  -45.6339 H         1 UNK         0.0865 
     71 H71        16.9512  -30.4983  -43.6567 H         1 UNK         0.1346 
     72 H72        20.9669  -31.9323  -44.0469 H         1 UNK         0.1412 
     73 H73        19.2595  -29.4529  -47.1100 H         1 UNK         0.1426 
     74 H74        21.4581  -31.6481  -47.1498 H         1 UNK         0.0716 
     75 H75        22.4003  -31.0821  -45.7943 H         1 UNK         0.0716 
     76 H76        23.4765  -27.6866  -46.5239 H         1 UNK         0.0695 
     77 H77        22.9884  -28.7535  -45.2615 H         1 UNK         0.0695 
     78 H78        20.7419  -27.1209  -46.4645 H         1 UNK         0.0983 
     79 H79        19.7895  -27.8896  -44.6368 H         1 UNK         0.3095 
     80 H80        20.1780  -29.2424  -42.1182 H         1 UNK         0.0454 
     81 H81        20.7986  -26.5944  -40.7116 H         1 UNK         0.0851 
     82 H82        21.5502  -28.1619  -40.4267 H         1 UNK         0.0851 
     83 H83        19.8768  -27.9124  -39.9881 H         1 UNK         0.0851 
     84 H84        18.1245  -28.4259  -42.3501 H         1 UNK         0.2976 
     85 H85        20.8183  -25.3774  -43.9368 H         1 UNK         0.3116 
     86 H86        21.5352  -23.4714  -43.1262 H         1 UNK         0.0646 
     87 H87        22.1065  -21.6018  -44.6199 H         1 UNK         0.0847 
     88 H88        20.7928  -22.5216  -45.3322 H         1 UNK         0.0847 
     89 H89        22.4342  -22.6970  -45.9525 H         1 UNK         0.0847 
     90 H90        23.3837  -25.8020  -43.2769 H         1 UNK         0.3040 
     91 H91        26.0074  -24.4503  -42.7931 H         1 UNK         0.1015 
     92 H92        25.9152  -25.4181  -45.1147 H         1 UNK         0.0786 
     93 H93        25.4934  -26.9908  -44.4410 H         1 UNK         0.0786 
     94 H94        27.0675  -26.2771  -44.1072 H         1 UNK         0.0786 
     95 H95        23.6743  -25.9040  -41.2230 H         1 UNK         0.3172 
     96 H96        23.3760  -27.1162  -39.3959 H         1 UNK         0.0595 
     97 H97        26.3774  -26.8750  -38.8542 H         1 UNK         0.0839 
     98 H98        25.1264  -27.2643  -37.6859 H         1 UNK         0.0839 
     99 H99        25.1677  -25.6691  -38.4162 H         1 UNK         0.0839 
    100 H100       23.5982  -28.5239  -41.8212 H         1 UNK         0.2998 
    101 H101       25.0769  -30.9930  -41.4627 H         1 UNK         0.0822 
    102 H102       22.7696  -30.2951  -43.3585 H         1 UNK         0.0787 
    103 H103       24.4834  -30.0913  -43.7246 H         1 UNK         0.0787 
    104 H104       23.8157  -31.6998  -43.4864 H         1 UNK         0.0787 
    105 H105       24.2980  -32.9984  -40.8175 H         1 UNK         0.3055 
    106 H106       22.0792  -32.9930  -38.9312 H         1 UNK         0.1106 
    107 H107       22.8637  -35.3244  -38.4861 H         1 UNK         0.0828 
    108 H108       23.9732  -35.2329  -39.8459 H         1 UNK         0.0828 
    109 H109       24.2084  -34.1979  -38.4366 H         1 UNK         0.0828 
    110 H110       20.2678  -34.3346  -38.9905 H         1 UNK         0.2931 
    111 H111       19.5981  -35.9007  -41.3607 H         1 UNK         0.0412 
    112 H112       18.0250  -37.6008  -40.8435 H         1 UNK         0.3472 
    113 H113       17.7996  -38.0607  -39.1755 H         1 UNK         0.3472 
    114 H114       17.1329  -34.9452  -41.0613 H         1 UNK         0.0970 
    115 H115       17.8947  -33.5652  -40.3288 H         1 UNK         0.0970 
    116 H116       18.0641  -31.5578  -41.7633 H         1 UNK         0.0612 
    117 H117       19.7548  -32.0035  -41.8457 H         1 UNK         0.0612 
@<TRIPOS>BOND
     1    1    2 1    
     2    1   62 1    
     3    1   63 1    
     4    1   64 1    
     5    2    3 2    
     6    2    4 am   BACKBONE|DICT|INTERRES
     7    4    5 1    
     8    4   65 1    
     9    5    6 1    
    10    5   25 1    
    11    5   66 1    
    12    6    7 1    
    13    6   67 1    
    14    6   68 1    
    15    7    8 1    
    16    8    9 1    
    17    8   69 1    
    18    8   70 1    
    19    9   10 ar   
    20    9   14 ar   
    21   10   11 ar   
    22   10   71 1    
    23   11   12 ar   
    24   11   61 1    
    25   12   13 ar   
    26   12   72 1    
    27   13   14 ar   
    28   13   15 1    
    29   14   73 1    
    30   15   16 1    
    31   15   74 1    
    32   15   75 1    
    33   16   17 1    
    34   17   18 1    
    35   17   76 1    
    36   17   77 1    
    37   18   19 1    
    38   18   27 1    
    39   18   78 1    
    40   19   20 am   BACKBONE|DICT|INTERRES
    41   19   79 1    
    42   20   21 2    
    43   20   22 1    
    44   22   23 1    
    45   22   24 1    
    46   22   80 1    
    47   23   81 1    
    48   23   82 1    
    49   23   83 1    
    50   24   25 am   BACKBONE|DICT|INTERRES
    51   24   84 1    
    52   25   26 2    
    53   27   28 2    
    54   27   29 am   BACKBONE|DICT|INTERRES
    55   29   30 1    
    56   29   85 1    
    57   30   31 1    
    58   30   32 1    
    59   30   86 1    
    60   31   87 1    
    61   31   88 1    
    62   31   89 1    
    63   32   33 2    
    64   32   34 am   BACKBONE|DICT|INTERRES
    65   34   35 1    
    66   34   90 1    
    67   35   36 1    
    68   35   37 1    
    69   35   91 1    
    70   36   92 1    
    71   36   93 1    
    72   36   94 1    
    73   37   38 2    
    74   37   39 am   BACKBONE|DICT|INTERRES
    75   39   40 1    
    76   39   95 1    
    77   40   41 1    
    78   40   42 1    
    79   40   96 1    
    80   41   97 1    
    81   41   98 1    
    82   41   99 1    
    83   42   43 2    
    84   42   44 am   BACKBONE|DICT|INTERRES
    85   44   45 1    
    86   44  100 1    
    87   45   46 1    
    88   45   47 1    
    89   45  101 1    
    90   46  102 1    
    91   46  103 1    
    92   46  104 1    
    93   47   48 2    
    94   47   49 am   BACKBONE|DICT|INTERRES
    95   49   50 1    
    96   49  105 1    
    97   50   51 1    
    98   50   52 1    
    99   50  106 1    
   100   51  107 1    
   101   51  108 1    
   102   51  109 1    
   103   52   53 2    
   104   52   54 am   BACKBONE|DICT|INTERRES
   105   54   55 1    
   106   54  110 1    
   107   55   56 1    
   108   55   59 1    
   109   55  111 1    
   110   56   57 am   BACKBONE|DICT|INTERRES
   111   56   58 2    
   112   57  112 1    
   113   57  113 1    
   114   59   60 1    
   115   59  114 1    
   116   59  115 1    
   117   60   61 1    
   118   61  116 1    
   119   61  117 1    
@<TRIPOS>SUBSTRUCTURE
     1 UNK         1 GROUP             0       ****    0 ROOT    
