@<TRIPOS>MOLECULE
3R8
117   119    1
SMALL
USER_CHARGES


@<TRIPOS>ATOM
      1 CA         19.6313  -27.8767  -41.8296 C.3       0 UNK        -0.2013 
      2 C          18.6446  -26.7422  -42.0441 C.2       0 UNK         0.4866 
      3 O          18.6975  -25.7406  -41.3313 O.2       0 UNK        -0.5176 
      4 N          17.7605  -26.8775  -43.0418 N.am      1 UNK        -0.4884 
      5 CA         16.7876  -25.8476  -43.4469 C.3       1 UNK         0.0853 
      6 C6         15.6899  -26.4287  -44.3720 C.3       10 UNK        -0.0849 
      7 S7         14.7601  -27.7875  -43.5867 S.3       10 UNK        -0.2776 
      8 C8         15.0513  -29.1650  -44.7450 C.3       10 UNK         0.0316 
      9 C9         16.4813  -29.6902  -44.6965 C.ar      10 UNK        -0.0863 
     10 C10        16.9668  -30.2941  -43.5330 C.ar      10 UNK        -0.1009 
     11 C11        18.2561  -30.8333  -43.4867 C.ar      10 UNK        -0.0712 
     12 C12        19.0572  -30.7761  -44.6349 C.ar      10 UNK        -0.0894 
     13 C13        18.5872  -30.1731  -45.8050 C.ar      10 UNK        -0.0745 
     14 C14        17.3004  -29.6259  -45.8281 C.ar      10 UNK        -0.0972 
     15 C15        19.4488  -30.1623  -47.0609 C.3       10 UNK         0.0209 
     16 S16        20.1112  -28.5110  -47.4406 S.3       10 UNK        -0.2568 
     17 C17        21.4272  -28.3331  -46.1883 C.3       10 UNK        -0.0983 
     18 CA         21.9387  -26.8730  -46.0956 C.3       3 UNK         0.0876 
     19 N          20.8370  -25.9565  -45.8006 N.am      3 UNK        -0.4424 
     20 C          20.8939  -24.6238  -45.6556 C.2       2 UNK         0.4918 
     21 O          21.9210  -23.9549  -45.7699 O.2       2 UNK        -0.4875 
     22 CA         19.5644  -23.9201  -45.3360 C.3       2 UNK         0.0481 
     23 CB         18.9192  -23.4008  -46.6369 C.3       2 UNK        -0.1831 
     24 N          18.6807  -24.8483  -44.6286 N.am      2 UNK        -0.4498 
     25 C          17.4585  -24.6337  -44.1307 C.2       1 UNK         0.5027 
     26 O          16.8602  -23.5592  -44.1966 O.2       1 UNK        -0.4969 
     27 C          23.0898  -26.7696  -45.0732 C.2       3 UNK         0.5005 
     28 O          22.8408  -26.6656  -43.8677 O.2       3 UNK        -0.5279 
     29 N          24.3293  -26.8571  -45.5789 N.am      4 UNK        -0.4463 
     30 CA         25.5880  -26.7128  -44.8335 C.3       4 UNK         0.0283 
     31 CB         26.7579  -26.6957  -45.8319 C.3       4 UNK        -0.1875 
     32 C          25.8350  -27.7664  -43.7360 C.2       4 UNK         0.4949 
     33 O          26.7394  -27.5797  -42.9220 O.2       4 UNK        -0.5039 
     34 N          25.0290  -28.8371  -43.7148 N.am      5 UNK        -0.4663 
     35 CA         25.0008  -29.8536  -42.6612 C.3       5 UNK         0.0242 
     36 CB         24.0943  -31.0104  -43.1053 C.3       5 UNK        -0.1982 
     37 C          24.5564  -29.3120  -41.2888 C.2       5 UNK         0.5017 
     38 O          24.8988  -29.9241  -40.2787 O.2       5 UNK        -0.5012 
     39 N          23.8222  -28.1855  -41.2685 N.am      6 UNK        -0.4439 
     40 CA         23.4728  -27.3878  -40.0831 C.3       6 UNK         0.0297 
     41 CB         24.7125  -26.6068  -39.5989 C.3       6 UNK        -0.2006 
     42 C          22.8056  -28.1998  -38.9524 C.2       6 UNK         0.4892 
     43 O          23.2065  -28.0941  -37.7925 O.2       6 UNK        -0.5089 
     44 N          21.8111  -29.0113  -39.3367 N.am      7 UNK        -0.4243 
     45 CA         20.9880  -29.8988  -38.5044 C.3       7 UNK         0.0196 
     46 CB         20.3462  -29.1612  -37.3102 C.3       7 UNK        -0.2007 
     47 C          21.6682  -31.2144  -38.0819 C.2       7 UNK         0.5020 
     48 O          20.9872  -32.0602  -37.5008 O.2       7 UNK        -0.5147 
     49 N          22.9433  -31.4408  -38.4444 N.am      8 UNK        -0.4734 
     50 CA         23.5980  -32.7572  -38.3179 C.3       8 UNK         0.0238 
     51 CB         25.1142  -32.6163  -38.5234 C.3       8 UNK        -0.1912 
     52 C          23.0137  -33.8006  -39.2930 C.2       8 UNK         0.5038 
     53 O          23.1419  -35.0025  -39.0594 O.2       8 UNK        -0.5046 
     54 N          22.3518  -33.3012  -40.3421 N.am      9 UNK        -0.4200 
     55 CA         21.4480  -34.0053  -41.2576 C.3       9 UNK         0.0839 
     56 C          20.1777  -34.6178  -40.5937 C.2       9 UNK         0.5513 
     57 N          19.8087  -34.2501  -39.3712 N.am      9 UNK        -0.7519 
     58 O          19.5149  -35.4505  -41.2063 O.2       9 UNK        -0.4960 
     59 C59        21.0699  -33.0836  -42.4519 C.3       10 UNK        -0.0876 
     60 S60        20.5337  -31.4116  -41.9216 S.3       10 UNK        -0.2414 
     61 C61        18.7312  -31.4866  -42.1891 C.3       10 UNK         0.0169 
     62 H62        19.3256  -28.4838  -40.9784 H         1 UNK         0.0903 
     63 H63        19.7031  -28.5170  -42.7077 H         1 UNK         0.0903 
     64 H64        20.6239  -27.4729  -41.6348 H         1 UNK         0.0903 
     65 H65        17.7093  -27.7494  -43.5533 H         1 UNK         0.3096 
     66 H66        16.3054  -25.4691  -42.5426 H         1 UNK         0.1121 
     67 H67        14.9679  -25.6541  -44.6393 H         1 UNK         0.0849 
     68 H68        16.1235  -26.7723  -45.3133 H         1 UNK         0.0849 
     69 H69        14.3722  -29.9807  -44.4925 H         1 UNK         0.0865 
     70 H70        14.7807  -28.8510  -45.7545 H         1 UNK         0.0865 
     71 H71        16.3296  -30.3505  -42.6603 H         1 UNK         0.1346 
     72 H72        20.0472  -31.2093  -44.6282 H         1 UNK         0.1412 
     73 H73        16.9315  -29.1738  -46.7391 H         1 UNK         0.1426 
     74 H74        18.8468  -30.4984  -47.9064 H         1 UNK         0.0716 
     75 H75        20.2738  -30.8716  -46.9769 H         1 UNK         0.0716 
     76 H76        22.2388  -29.0135  -46.4533 H         1 UNK         0.0695 
     77 H77        21.0451  -28.6660  -45.2211 H         1 UNK         0.0695 
     78 H78        22.3280  -26.5805  -47.0733 H         1 UNK         0.0983 
     79 H79        19.9300  -26.3955  -45.8050 H         1 UNK         0.3095 
     80 H80        19.7770  -23.0776  -44.6755 H         1 UNK         0.0454 
     81 H81        19.6174  -22.7765  -47.1962 H         1 UNK         0.0851 
     82 H82        18.0401  -22.7888  -46.4376 H         1 UNK         0.0851 
     83 H83        18.6170  -24.2190  -47.2916 H         1 UNK         0.0851 
     84 H84        19.0913  -25.7423  -44.4017 H         1 UNK         0.2976 
     85 H85        24.4277  -26.9751  -46.5777 H         1 UNK         0.3116 
     86 H86        25.5556  -25.7431  -44.3324 H         1 UNK         0.0646 
     87 H87        26.8306  -27.6331  -46.3846 H         1 UNK         0.0847 
     88 H88        26.6552  -25.8850  -46.5534 H         1 UNK         0.0847 
     89 H89        27.7094  -26.5470  -45.3190 H         1 UNK         0.0847 
     90 H90        24.3239  -28.9065  -44.4330 H         1 UNK         0.3040 
     91 H91        26.0158  -30.2381  -42.5384 H         1 UNK         0.1015 
     92 H92        24.0429  -31.7834  -42.3372 H         1 UNK         0.0786 
     93 H93        24.4704  -31.4835  -44.0125 H         1 UNK         0.0786 
     94 H94        23.0776  -30.6694  -43.3018 H         1 UNK         0.0786 
     95 H95        23.5697  -27.7734  -42.1620 H         1 UNK         0.3172 
     96 H96        22.7330  -26.6566  -40.4123 H         1 UNK         0.0595 
     97 H97        25.4911  -27.2762  -39.2308 H         1 UNK         0.0839 
     98 H98        24.4560  -25.9257  -38.7865 H         1 UNK         0.0839 
     99 H99        25.1411  -26.0062  -40.4014 H         1 UNK         0.0839 
    100 H100       21.6163  -29.0551  -40.3269 H         1 UNK         0.2998 
    101 H101       20.1658  -30.2045  -39.1529 H         1 UNK         0.0822 
    102 H102       19.5933  -29.7861  -36.8280 H         1 UNK         0.0787 
    103 H103       19.8489  -28.2450  -37.6286 H         1 UNK         0.0787 
    104 H104       21.0795  -28.9009  -36.5468 H         1 UNK         0.0787 
    105 H105       23.4688  -30.7113  -38.9162 H         1 UNK         0.3055 
    106 H106       23.4247  -33.1251  -37.3040 H         1 UNK         0.1106 
    107 H107       25.5357  -31.8420  -37.8821 H         1 UNK         0.0828 
    108 H108       25.6244  -33.5501  -38.2838 H         1 UNK         0.0828 
    109 H109       25.3629  -32.3719  -39.5563 H         1 UNK         0.0828 
    110 H110       22.3168  -32.2961  -40.4198 H         1 UNK         0.2931 
    111 H111       22.0097  -34.8508  -41.6588 H         1 UNK         0.0412 
    112 H112       20.3322  -33.5613  -38.8460 H         1 UNK         0.3472 
    113 H113       18.9854  -34.6650  -38.9647 H         1 UNK         0.3472 
    114 H114       21.9404  -32.9613  -43.0966 H         1 UNK         0.0970 
    115 H115       20.3130  -33.5442  -43.0899 H         1 UNK         0.0970 
    116 H116       18.3865  -32.5207  -42.1583 H         1 UNK         0.0612 
    117 H117       18.2617  -30.9857  -41.3412 H         1 UNK         0.0612 
@<TRIPOS>BOND
     1    1    2 1    
     2    1   62 1    
     3    1   63 1    
     4    1   64 1    
     5    2    3 2    
     6    2    4 am   BACKBONE|DICT|INTERRES
     7    4    5 1    
     8    4   65 1    
     9    5    6 1    
    10    5   25 1    
    11    5   66 1    
    12    6    7 1    
    13    6   67 1    
    14    6   68 1    
    15    7    8 1    
    16    8    9 1    
    17    8   69 1    
    18    8   70 1    
    19    9   10 ar   
    20    9   14 ar   
    21   10   11 ar   
    22   10   71 1    
    23   11   12 ar   
    24   11   61 1    
    25   12   13 ar   
    26   12   72 1    
    27   13   14 ar   
    28   13   15 1    
    29   14   73 1    
    30   15   16 1    
    31   15   74 1    
    32   15   75 1    
    33   16   17 1    
    34   17   18 1    
    35   17   76 1    
    36   17   77 1    
    37   18   19 1    
    38   18   27 1    
    39   18   78 1    
    40   19   20 am   BACKBONE|DICT|INTERRES
    41   19   79 1    
    42   20   21 2    
    43   20   22 1    
    44   22   23 1    
    45   22   24 1    
    46   22   80 1    
    47   23   81 1    
    48   23   82 1    
    49   23   83 1    
    50   24   25 am   BACKBONE|DICT|INTERRES
    51   24   84 1    
    52   25   26 2    
    53   27   28 2    
    54   27   29 am   BACKBONE|DICT|INTERRES
    55   29   30 1    
    56   29   85 1    
    57   30   31 1    
    58   30   32 1    
    59   30   86 1    
    60   31   87 1    
    61   31   88 1    
    62   31   89 1    
    63   32   33 2    
    64   32   34 am   BACKBONE|DICT|INTERRES
    65   34   35 1    
    66   34   90 1    
    67   35   36 1    
    68   35   37 1    
    69   35   91 1    
    70   36   92 1    
    71   36   93 1    
    72   36   94 1    
    73   37   38 2    
    74   37   39 am   BACKBONE|DICT|INTERRES
    75   39   40 1    
    76   39   95 1    
    77   40   41 1    
    78   40   42 1    
    79   40   96 1    
    80   41   97 1    
    81   41   98 1    
    82   41   99 1    
    83   42   43 2    
    84   42   44 am   BACKBONE|DICT|INTERRES
    85   44   45 1    
    86   44  100 1    
    87   45   46 1    
    88   45   47 1    
    89   45  101 1    
    90   46  102 1    
    91   46  103 1    
    92   46  104 1    
    93   47   48 2    
    94   47   49 am   BACKBONE|DICT|INTERRES
    95   49   50 1    
    96   49  105 1    
    97   50   51 1    
    98   50   52 1    
    99   50  106 1    
   100   51  107 1    
   101   51  108 1    
   102   51  109 1    
   103   52   53 2    
   104   52   54 am   BACKBONE|DICT|INTERRES
   105   54   55 1    
   106   54  110 1    
   107   55   56 1    
   108   55   59 1    
   109   55  111 1    
   110   56   57 am   BACKBONE|DICT|INTERRES
   111   56   58 2    
   112   57  112 1    
   113   57  113 1    
   114   59   60 1    
   115   59  114 1    
   116   59  115 1    
   117   60   61 1    
   118   61  116 1    
   119   61  117 1    
@<TRIPOS>SUBSTRUCTURE
     1 UNK         1 GROUP             0       ****    0 ROOT    
