@<TRIPOS>MOLECULE
3R8
117   119    1
SMALL
USER_CHARGES


@<TRIPOS>ATOM
      1 CA         15.5495  -25.0466  -46.5786 C.3       0 UNK        -0.2013 
      2 C          16.9258  -25.4336  -47.0988 C.2       0 UNK         0.4866 
      3 O          17.5293  -24.6763  -47.8587 O.2       0 UNK        -0.5176 
      4 N          17.4227  -26.6102  -46.6957 N.am      1 UNK        -0.4884 
      5 CA         18.7375  -27.1483  -47.0696 C.3       1 UNK         0.0853 
      6 C6         18.8801  -28.6374  -46.6667 C.3       10 UNK        -0.0849 
      7 S7         17.6752  -29.7502  -47.4711 S.3       10 UNK        -0.2776 
      8 C8         16.1827  -29.6592  -46.4116 C.3       10 UNK         0.0316 
      9 C9         16.4396  -29.7804  -44.9099 C.ar      10 UNK        -0.0863 
     10 C10        17.2961  -30.7636  -44.4025 C.ar      10 UNK        -0.1009 
     11 C11        17.4976  -30.8891  -43.0256 C.ar      10 UNK        -0.0712 
     12 C12        16.8113  -30.0465  -42.1487 C.ar      10 UNK        -0.0894 
     13 C13        15.9619  -29.0481  -42.6367 C.ar      10 UNK        -0.0745 
     14 C14        15.7805  -28.9240  -44.0190 C.ar      10 UNK        -0.0972 
     15 C15        15.2014  -28.1292  -41.6820 C.3       10 UNK         0.0209 
     16 S16        16.2151  -27.4797  -40.3071 S.3       10 UNK        -0.2568 
     17 C17        17.4270  -26.4377  -41.1840 C.3       10 UNK        -0.0983 
     18 CA         18.8281  -27.1018  -41.2784 C.3       3 UNK         0.0876 
     19 N          19.5789  -26.6734  -42.4647 N.am      3 UNK        -0.4424 
     20 C          19.9500  -25.4318  -42.8155 C.2       2 UNK         0.4918 
     21 O          19.7962  -24.4355  -42.1098 O.2       2 UNK        -0.4875 
     22 CA         20.5535  -25.2863  -44.2170 C.3       2 UNK         0.0481 
     23 CB         22.0107  -25.7933  -44.2145 C.3       2 UNK        -0.1831 
     24 N          19.6878  -26.0222  -45.1395 N.am      2 UNK        -0.4498 
     25 C          19.8788  -26.3344  -46.4269 C.2       1 UNK         0.5027 
     26 O          20.8678  -26.0247  -47.0915 O.2       1 UNK        -0.4969 
     27 C          19.6311  -26.9998  -39.9638 C.2       3 UNK         0.5005 
     28 O          19.7252  -27.9862  -39.2321 O.2       3 UNK        -0.5279 
     29 N          20.2191  -25.8264  -39.6970 N.am      4 UNK        -0.4463 
     30 CA         21.0904  -25.5644  -38.5483 C.3       4 UNK         0.0283 
     31 CB         21.2676  -24.0470  -38.3813 C.3       4 UNK        -0.1875 
     32 C          22.4596  -26.2556  -38.6694 C.2       4 UNK         0.4949 
     33 O          23.0589  -26.5965  -37.6490 O.2       4 UNK        -0.5039 
     34 N          22.9298  -26.4546  -39.9082 N.am      5 UNK        -0.4663 
     35 CA         24.1614  -27.1718  -40.2240 C.3       5 UNK         0.0242 
     36 CB         24.7013  -26.6896  -41.5828 C.3       5 UNK        -0.1982 
     37 C          23.8937  -28.6833  -40.2223 C.2       5 UNK         0.5017 
     38 O          23.5582  -29.2473  -41.2652 O.2       5 UNK        -0.5012 
     39 N          24.0607  -29.3215  -39.0564 N.am      6 UNK        -0.4439 
     40 CA         23.9041  -30.7697  -38.8665 C.3       6 UNK         0.0297 
     41 CB         24.1082  -31.1183  -37.3842 C.3       6 UNK        -0.2006 
     42 C          24.8356  -31.6183  -39.7537 C.2       6 UNK         0.4892 
     43 O          24.4596  -32.7250  -40.1371 O.2       6 UNK        -0.5089 
     44 N          26.0063  -31.0662  -40.1039 N.am      7 UNK        -0.4243 
     45 CA         26.9636  -31.6473  -41.0471 C.3       7 UNK         0.0196 
     46 CB         28.2750  -30.8473  -40.9878 C.3       7 UNK        -0.2007 
     47 C          26.4450  -31.7195  -42.4964 C.2       7 UNK         0.5020 
     48 O          26.9065  -32.5795  -43.2468 O.2       7 UNK        -0.5147 
     49 N          25.5080  -30.8350  -42.8731 N.am      8 UNK        -0.4734 
     50 CA         24.8429  -30.8646  -44.1791 C.3       8 UNK         0.0238 
     51 CB         24.3033  -29.4669  -44.5296 C.3       8 UNK        -0.1912 
     52 C          23.7161  -31.9088  -44.2086 C.2       8 UNK         0.5038 
     53 O          23.5393  -32.5745  -45.2297 O.2       8 UNK        -0.5046 
     54 N          22.9878  -32.0367  -43.0915 N.am      9 UNK        -0.4200 
     55 CA         21.9423  -33.0500  -42.8889 C.3       9 UNK         0.0839 
     56 C          22.5052  -34.4898  -42.7454 C.2       9 UNK         0.5513 
     57 N          23.6028  -34.6905  -42.0280 N.am      9 UNK        -0.7519 
     58 O          21.9398  -35.4324  -43.2933 O.2       9 UNK        -0.4960 
     59 C59        21.0217  -32.6939  -41.6956 C.3       10 UNK        -0.0876 
     60 S60        20.0489  -31.1870  -42.0231 S.3       10 UNK        -0.2414 
     61 C61        18.4552  -31.9350  -42.4820 C.3       10 UNK         0.0169 
     62 H62        15.6076  -24.1081  -46.0277 H         1 UNK         0.0903 
     63 H63        14.8592  -24.9105  -47.4107 H         1 UNK         0.0903 
     64 H64        15.1339  -25.8038  -45.9142 H         1 UNK         0.0903 
     65 H65        16.8722  -27.1991  -46.0896 H         1 UNK         0.3096 
     66 H66        18.8440  -27.0672  -48.1539 H         1 UNK         0.1121 
     67 H67        18.8294  -28.7580  -45.5841 H         1 UNK         0.0849 
     68 H68        19.8703  -29.0013  -46.9494 H         1 UNK         0.0849 
     69 H69        15.6479  -28.7371  -46.6406 H         1 UNK         0.0865 
     70 H70        15.5102  -30.4662  -46.7055 H         1 UNK         0.0865 
     71 H71        17.8120  -31.4283  -45.0820 H         1 UNK         0.1346 
     72 H72        16.9555  -30.1585  -41.0826 H         1 UNK         0.1412 
     73 H73        15.1029  -28.1716  -44.3992 H         1 UNK         0.1426 
     74 H74        14.3654  -28.6887  -41.2607 H         1 UNK         0.0716 
     75 H75        14.7653  -27.2863  -42.2205 H         1 UNK         0.0716 
     76 H76        17.4808  -25.4642  -40.6932 H         1 UNK         0.0695 
     77 H77        17.0376  -26.2382  -42.1836 H         1 UNK         0.0695 
     78 H78        18.6793  -28.1692  -41.4443 H         1 UNK         0.0983 
     79 H79        19.8228  -27.4254  -43.0937 H         1 UNK         0.3095 
     80 H80        20.5366  -24.2316  -44.4970 H         1 UNK         0.0454 
     81 H81        22.5156  -25.5814  -45.1562 H         1 UNK         0.0851 
     82 H82        22.0719  -26.8674  -44.0368 H         1 UNK         0.0851 
     83 H83        22.5892  -25.2941  -43.4365 H         1 UNK         0.0851 
     84 H84        18.7947  -26.2834  -44.7445 H         1 UNK         0.2976 
     85 H85        20.0934  -25.0780  -40.3750 H         1 UNK         0.3116 
     86 H86        20.6013  -25.9526  -37.6523 H         1 UNK         0.0646 
     87 H87        21.7366  -23.5952  -39.2564 H         1 UNK         0.0847 
     88 H88        20.3104  -23.5509  -38.2197 H         1 UNK         0.0847 
     89 H89        21.8977  -23.8204  -37.5200 H         1 UNK         0.0847 
     90 H90        22.3527  -26.1758  -40.6869 H         1 UNK         0.3040 
     91 H91        24.9181  -26.9474  -39.4684 H         1 UNK         0.1015 
     92 H92        25.6473  -27.1787  -41.8190 H         1 UNK         0.0786 
     93 H93        24.8843  -25.6150  -41.5801 H         1 UNK         0.0786 
     94 H94        24.0138  -26.9120  -42.3981 H         1 UNK         0.0786 
     95 H95        24.2796  -28.7720  -38.2358 H         1 UNK         0.3172 
     96 H96        22.8773  -31.0232  -39.1383 H         1 UNK         0.0595 
     97 H97        25.1108  -30.8596  -37.0412 H         1 UNK         0.0839 
     98 H98        23.9713  -32.1872  -37.2130 H         1 UNK         0.0839 
     99 H99        23.3902  -30.5971  -36.7506 H         1 UNK         0.0839 
    100 H100       26.2321  -30.1562  -39.7302 H         1 UNK         0.2998 
    101 H101       27.1700  -32.6702  -40.7246 H         1 UNK         0.0822 
    102 H102       29.0225  -31.2737  -41.6585 H         1 UNK         0.0787 
    103 H103       28.7012  -30.8558  -39.9844 H         1 UNK         0.0787 
    104 H104       28.1279  -29.8076  -41.2834 H         1 UNK         0.0787 
    105 H105       25.1354  -30.1828  -42.1920 H         1 UNK         0.3055 
    106 H106       25.5744  -31.1422  -44.9419 H         1 UNK         0.1106 
    107 H107       23.5042  -29.1552  -43.8570 H         1 UNK         0.0828 
    108 H108       25.0901  -28.7137  -44.4886 H         1 UNK         0.0828 
    109 H109       23.8942  -29.4537  -45.5406 H         1 UNK         0.0828 
    110 H110       23.1894  -31.4316  -42.3080 H         1 UNK         0.2931 
    111 H111       21.3203  -33.0531  -43.7869 H         1 UNK         0.0412 
    112 H112       24.0144  -33.9308  -41.4916 H         1 UNK         0.3472 
    113 H113       23.9715  -35.6236  -41.9389 H         1 UNK         0.3472 
    114 H114       20.3382  -33.5152  -41.4704 H         1 UNK         0.0970 
    115 H115       21.6112  -32.5411  -40.7899 H         1 UNK         0.0970 
    116 H116       18.6226  -32.7167  -43.2249 H         1 UNK         0.0612 
    117 H117       18.0172  -32.4218  -41.6093 H         1 UNK         0.0612 
@<TRIPOS>BOND
     1    1    2 1    
     2    1   62 1    
     3    1   63 1    
     4    1   64 1    
     5    2    3 2    
     6    2    4 am   BACKBONE|DICT|INTERRES
     7    4    5 1    
     8    4   65 1    
     9    5    6 1    
    10    5   25 1    
    11    5   66 1    
    12    6    7 1    
    13    6   67 1    
    14    6   68 1    
    15    7    8 1    
    16    8    9 1    
    17    8   69 1    
    18    8   70 1    
    19    9   10 ar   
    20    9   14 ar   
    21   10   11 ar   
    22   10   71 1    
    23   11   12 ar   
    24   11   61 1    
    25   12   13 ar   
    26   12   72 1    
    27   13   14 ar   
    28   13   15 1    
    29   14   73 1    
    30   15   16 1    
    31   15   74 1    
    32   15   75 1    
    33   16   17 1    
    34   17   18 1    
    35   17   76 1    
    36   17   77 1    
    37   18   19 1    
    38   18   27 1    
    39   18   78 1    
    40   19   20 am   BACKBONE|DICT|INTERRES
    41   19   79 1    
    42   20   21 2    
    43   20   22 1    
    44   22   23 1    
    45   22   24 1    
    46   22   80 1    
    47   23   81 1    
    48   23   82 1    
    49   23   83 1    
    50   24   25 am   BACKBONE|DICT|INTERRES
    51   24   84 1    
    52   25   26 2    
    53   27   28 2    
    54   27   29 am   BACKBONE|DICT|INTERRES
    55   29   30 1    
    56   29   85 1    
    57   30   31 1    
    58   30   32 1    
    59   30   86 1    
    60   31   87 1    
    61   31   88 1    
    62   31   89 1    
    63   32   33 2    
    64   32   34 am   BACKBONE|DICT|INTERRES
    65   34   35 1    
    66   34   90 1    
    67   35   36 1    
    68   35   37 1    
    69   35   91 1    
    70   36   92 1    
    71   36   93 1    
    72   36   94 1    
    73   37   38 2    
    74   37   39 am   BACKBONE|DICT|INTERRES
    75   39   40 1    
    76   39   95 1    
    77   40   41 1    
    78   40   42 1    
    79   40   96 1    
    80   41   97 1    
    81   41   98 1    
    82   41   99 1    
    83   42   43 2    
    84   42   44 am   BACKBONE|DICT|INTERRES
    85   44   45 1    
    86   44  100 1    
    87   45   46 1    
    88   45   47 1    
    89   45  101 1    
    90   46  102 1    
    91   46  103 1    
    92   46  104 1    
    93   47   48 2    
    94   47   49 am   BACKBONE|DICT|INTERRES
    95   49   50 1    
    96   49  105 1    
    97   50   51 1    
    98   50   52 1    
    99   50  106 1    
   100   51  107 1    
   101   51  108 1    
   102   51  109 1    
   103   52   53 2    
   104   52   54 am   BACKBONE|DICT|INTERRES
   105   54   55 1    
   106   54  110 1    
   107   55   56 1    
   108   55   59 1    
   109   55  111 1    
   110   56   57 am   BACKBONE|DICT|INTERRES
   111   56   58 2    
   112   57  112 1    
   113   57  113 1    
   114   59   60 1    
   115   59  114 1    
   116   59  115 1    
   117   60   61 1    
   118   61  116 1    
   119   61  117 1    
@<TRIPOS>SUBSTRUCTURE
     1 UNK         1 GROUP             0       ****    0 ROOT    
