@<TRIPOS>MOLECULE
3R8
117   119    1
SMALL
USER_CHARGES


@<TRIPOS>ATOM
      1 CA         16.4662  -28.7740  -41.4048 C.3       0 UNK        -0.2013 
      2 C          17.1380  -28.0024  -42.5311 C.2       0 UNK         0.4866 
      3 O          18.2763  -28.3102  -42.8894 O.2       0 UNK        -0.5176 
      4 N          16.4327  -27.0075  -43.0924 N.am      1 UNK        -0.4884 
      5 CA         16.8767  -26.1475  -44.2012 C.3       1 UNK         0.0853 
      6 C6         17.0813  -26.9503  -45.5207 C.3       10 UNK        -0.0849 
      7 S7         15.5630  -27.7407  -46.1686 S.3       10 UNK        -0.2776 
      8 C8         15.5900  -29.4457  -45.4911 C.3       10 UNK         0.0316 
      9 C9         16.8820  -30.2440  -45.6857 C.ar      10 UNK        -0.0863 
     10 C10        17.1678  -31.2861  -44.7947 C.ar      10 UNK        -0.1009 
     11 C11        18.3585  -32.0120  -44.8992 C.ar      10 UNK        -0.0712 
     12 C12        19.2775  -31.6817  -45.8973 C.ar      10 UNK        -0.0894 
     13 C13        19.0125  -30.6377  -46.7865 C.ar      10 UNK        -0.0745 
     14 C14        17.7956  -29.9568  -46.7081 C.ar      10 UNK        -0.0972 
     15 C15        20.0799  -30.1833  -47.7704 C.3       10 UNK         0.0209 
     16 S16        20.8121  -28.5850  -47.2714 S.3       10 UNK        -0.2568 
     17 C17        21.2929  -28.9135  -45.5384 C.3       10 UNK        -0.0983 
     18 CA         21.9007  -27.6832  -44.8250 C.3       3 UNK         0.0876 
     19 N          21.0128  -26.5170  -44.8829 N.am      3 UNK        -0.4424 
     20 C          21.2785  -25.2853  -44.4199 C.2       2 UNK         0.4918 
     21 O          22.3208  -24.9794  -43.8405 O.2       2 UNK        -0.4875 
     22 CA         20.1918  -24.2132  -44.6354 C.3       2 UNK         0.0481 
     23 CB         20.5309  -23.3496  -45.8606 C.3       2 UNK        -0.1831 
     24 N          18.8588  -24.8005  -44.8098 N.am      2 UNK        -0.4498 
     25 C          18.1254  -25.3111  -43.8091 C.2       1 UNK         0.5027 
     26 O          18.4147  -25.1434  -42.6203 O.2       1 UNK        -0.4969 
     27 C          22.2950  -28.0638  -43.3856 C.2       3 UNK         0.5005 
     28 O          23.4282  -28.4978  -43.1712 O.2       3 UNK        -0.5279 
     29 N          21.3798  -27.8625  -42.4226 N.am      4 UNK        -0.4463 
     30 CA         21.5509  -28.1254  -40.9884 C.3       4 UNK         0.0283 
     31 CB         20.2916  -27.6800  -40.2327 C.3       4 UNK        -0.1875 
     32 C          22.7962  -27.5008  -40.3360 C.2       4 UNK         0.4949 
     33 O          23.2688  -28.0363  -39.3347 O.2       4 UNK        -0.5039 
     34 N          23.3335  -26.4236  -40.9252 N.am      5 UNK        -0.4663 
     35 CA         24.5974  -25.7986  -40.5275 C.3       5 UNK         0.0242 
     36 CB         24.7801  -24.4962  -41.3231 C.3       5 UNK        -0.1982 
     37 C          25.8304  -26.7101  -40.6981 C.2       5 UNK         0.5017 
     38 O          26.8303  -26.4817  -40.0162 O.2       5 UNK        -0.5012 
     39 N          25.7445  -27.7096  -41.5881 N.am      6 UNK        -0.4439 
     40 CA         26.7984  -28.6921  -41.8507 C.3       6 UNK         0.0297 
     41 CB         27.3280  -28.4975  -43.2813 C.3       6 UNK        -0.2006 
     42 C          26.3047  -30.1337  -41.6535 C.2       6 UNK         0.4892 
     43 O          27.0415  -30.9483  -41.0971 O.2       6 UNK        -0.5089 
     44 N          25.0856  -30.4349  -42.1210 N.am      7 UNK        -0.4243 
     45 CA         24.5071  -31.7809  -42.1333 C.3       7 UNK         0.0196 
     46 CB         23.4852  -31.8638  -43.2795 C.3       7 UNK        -0.2007 
     47 C          23.8536  -32.1948  -40.8035 C.2       7 UNK         0.5020 
     48 O          23.5890  -33.3831  -40.6223 O.2       7 UNK        -0.5147 
     49 N          23.5846  -31.2261  -39.9132 N.am      8 UNK        -0.4734 
     50 CA         22.9217  -31.3818  -38.6068 C.3       8 UNK         0.0238 
     51 CB         23.7879  -32.2249  -37.6459 C.3       8 UNK        -0.1912 
     52 C          21.4627  -31.8840  -38.6928 C.2       8 UNK         0.5038 
     53 O          20.9679  -32.4898  -37.7401 O.2       8 UNK        -0.5046 
     54 N          20.8025  -31.6167  -39.8270 N.am      9 UNK        -0.4200 
     55 CA         19.3886  -31.9116  -40.1025 C.3       9 UNK         0.0839 
     56 C          18.4063  -31.1859  -39.1409 C.2       9 UNK         0.5513 
     57 N          17.2150  -31.7359  -38.9502 N.am      9 UNK        -0.7519 
     58 O          18.6913  -30.1190  -38.6024 O.2       9 UNK        -0.4960 
     59 C59        19.0390  -31.6007  -41.5814 C.3       10 UNK        -0.0876 
     60 S60        19.9628  -32.6675  -42.7363 S.3       10 UNK        -0.2414 
     61 C61        18.6720  -33.1427  -43.9298 C.3       10 UNK         0.0169 
     62 H62        17.0325  -28.6627  -40.4810 H         1 UNK         0.0903 
     63 H63        15.4499  -28.4262  -41.2211 H         1 UNK         0.0903 
     64 H64        16.4192  -29.8336  -41.6526 H         1 UNK         0.0903 
     65 H65        15.5171  -26.7880  -42.7252 H         1 UNK         0.3096 
     66 H66        16.0792  -25.4214  -44.3676 H         1 UNK         0.1121 
     67 H67        17.8746  -27.6859  -45.3938 H         1 UNK         0.0849 
     68 H68        17.4152  -26.2981  -46.3281 H         1 UNK         0.0849 
     69 H69        15.3527  -29.3877  -44.4286 H         1 UNK         0.0865 
     70 H70        14.7736  -30.0052  -45.9493 H         1 UNK         0.0865 
     71 H71        16.4666  -31.5250  -44.0069 H         1 UNK         0.1346 
     72 H72        20.2180  -32.2130  -45.9517 H         1 UNK         0.1412 
     73 H73        17.6009  -29.1538  -47.4048 H         1 UNK         0.1426 
     74 H74        20.8731  -30.9279  -47.8536 H         1 UNK         0.0716 
     75 H75        19.6435  -30.0834  -48.7651 H         1 UNK         0.0716 
     76 H76        20.4113  -29.2486  -44.9880 H         1 UNK         0.0695 
     77 H77        21.9969  -29.7485  -45.5345 H         1 UNK         0.0695 
     78 H78        22.8218  -27.4083  -45.3433 H         1 UNK         0.0983 
     79 H79        20.1363  -26.6702  -45.3561 H         1 UNK         0.3095 
     80 H80        20.1821  -23.5656  -43.7561 H         1 UNK         0.0454 
     81 H81        20.5618  -23.9389  -46.7780 H         1 UNK         0.0851 
     82 H82        19.8020  -22.5507  -45.9976 H         1 UNK         0.0851 
     83 H83        21.5075  -22.8774  -45.7449 H         1 UNK         0.0851 
     84 H84        18.5360  -24.9105  -45.7608 H         1 UNK         0.2976 
     85 H85        20.4570  -27.5535  -42.7071 H         1 UNK         0.3116 
     86 H86        21.6494  -29.2047  -40.8803 H         1 UNK         0.0646 
     87 H87        20.0588  -26.6301  -40.4141 H         1 UNK         0.0847 
     88 H88        19.4283  -28.2725  -40.5270 H         1 UNK         0.0847 
     89 H89        20.4075  -27.8112  -39.1556 H         1 UNK         0.0847 
     90 H90        22.8857  -26.0547  -41.7547 H         1 UNK         0.3040 
     91 H91        24.5259  -25.5488  -39.4667 H         1 UNK         0.1015 
     92 H92        24.8401  -24.6853  -42.3958 H         1 UNK         0.0786 
     93 H93        25.6969  -23.9830  -41.0296 H         1 UNK         0.0786 
     94 H94        23.9539  -23.8061  -41.1510 H         1 UNK         0.0786 
     95 H95        24.8751  -27.8231  -42.1027 H         1 UNK         0.3172 
     96 H96        27.6332  -28.5471  -41.1619 H         1 UNK         0.0595 
     97 H97        28.1085  -29.2239  -43.5121 H         1 UNK         0.0839 
     98 H98        27.7611  -27.5054  -43.4098 H         1 UNK         0.0839 
     99 H99        26.5390  -28.6166  -44.0252 H         1 UNK         0.0839 
    100 H100       24.5303  -29.7087  -42.5724 H         1 UNK         0.2998 
    101 H101       25.3023  -32.5008  -42.3397 H         1 UNK         0.0822 
    102 H102       23.0725  -32.8701  -43.3639 H         1 UNK         0.0787 
    103 H103       22.6486  -31.1818  -43.1250 H         1 UNK         0.0787 
    104 H104       23.9419  -31.6207  -44.2389 H         1 UNK         0.0787 
    105 H105       23.8619  -30.2817  -40.1472 H         1 UNK         0.3055 
    106 H106       22.8547  -30.3800  -38.1800 H         1 UNK         0.1106 
    107 H107       24.8067  -31.8416  -37.5903 H         1 UNK         0.0828 
    108 H108       23.3819  -32.2062  -36.6337 H         1 UNK         0.0828 
    109 H109       23.8379  -33.2695  -37.9544 H         1 UNK         0.0828 
    110 H110       21.3049  -31.1541  -40.5670 H         1 UNK         0.2931 
    111 H111       19.2587  -32.9835  -39.9397 H         1 UNK         0.0412 
    112 H112       16.5579  -31.2770  -38.3387 H         1 UNK         0.3472 
    113 H113       16.9666  -32.6117  -39.3837 H         1 UNK         0.3472 
    114 H114       17.9714  -31.7383  -41.7583 H         1 UNK         0.0970 
    115 H115       19.2529  -30.5580  -41.8226 H         1 UNK         0.0970 
    116 H116       19.0227  -34.0078  -44.4945 H         1 UNK         0.0612 
    117 H117       17.7761  -33.4693  -43.3996 H         1 UNK         0.0612 
@<TRIPOS>BOND
     1    1    2 1    
     2    1   62 1    
     3    1   63 1    
     4    1   64 1    
     5    2    3 2    
     6    2    4 am   BACKBONE|DICT|INTERRES
     7    4    5 1    
     8    4   65 1    
     9    5    6 1    
    10    5   25 1    
    11    5   66 1    
    12    6    7 1    
    13    6   67 1    
    14    6   68 1    
    15    7    8 1    
    16    8    9 1    
    17    8   69 1    
    18    8   70 1    
    19    9   10 ar   
    20    9   14 ar   
    21   10   11 ar   
    22   10   71 1    
    23   11   12 ar   
    24   11   61 1    
    25   12   13 ar   
    26   12   72 1    
    27   13   14 ar   
    28   13   15 1    
    29   14   73 1    
    30   15   16 1    
    31   15   74 1    
    32   15   75 1    
    33   16   17 1    
    34   17   18 1    
    35   17   76 1    
    36   17   77 1    
    37   18   19 1    
    38   18   27 1    
    39   18   78 1    
    40   19   20 am   BACKBONE|DICT|INTERRES
    41   19   79 1    
    42   20   21 2    
    43   20   22 1    
    44   22   23 1    
    45   22   24 1    
    46   22   80 1    
    47   23   81 1    
    48   23   82 1    
    49   23   83 1    
    50   24   25 am   BACKBONE|DICT|INTERRES
    51   24   84 1    
    52   25   26 2    
    53   27   28 2    
    54   27   29 am   BACKBONE|DICT|INTERRES
    55   29   30 1    
    56   29   85 1    
    57   30   31 1    
    58   30   32 1    
    59   30   86 1    
    60   31   87 1    
    61   31   88 1    
    62   31   89 1    
    63   32   33 2    
    64   32   34 am   BACKBONE|DICT|INTERRES
    65   34   35 1    
    66   34   90 1    
    67   35   36 1    
    68   35   37 1    
    69   35   91 1    
    70   36   92 1    
    71   36   93 1    
    72   36   94 1    
    73   37   38 2    
    74   37   39 am   BACKBONE|DICT|INTERRES
    75   39   40 1    
    76   39   95 1    
    77   40   41 1    
    78   40   42 1    
    79   40   96 1    
    80   41   97 1    
    81   41   98 1    
    82   41   99 1    
    83   42   43 2    
    84   42   44 am   BACKBONE|DICT|INTERRES
    85   44   45 1    
    86   44  100 1    
    87   45   46 1    
    88   45   47 1    
    89   45  101 1    
    90   46  102 1    
    91   46  103 1    
    92   46  104 1    
    93   47   48 2    
    94   47   49 am   BACKBONE|DICT|INTERRES
    95   49   50 1    
    96   49  105 1    
    97   50   51 1    
    98   50   52 1    
    99   50  106 1    
   100   51  107 1    
   101   51  108 1    
   102   51  109 1    
   103   52   53 2    
   104   52   54 am   BACKBONE|DICT|INTERRES
   105   54   55 1    
   106   54  110 1    
   107   55   56 1    
   108   55   59 1    
   109   55  111 1    
   110   56   57 am   BACKBONE|DICT|INTERRES
   111   56   58 2    
   112   57  112 1    
   113   57  113 1    
   114   59   60 1    
   115   59  114 1    
   116   59  115 1    
   117   60   61 1    
   118   61  116 1    
   119   61  117 1    
@<TRIPOS>SUBSTRUCTURE
     1 UNK         1 GROUP             0       ****    0 ROOT    
