@<TRIPOS>MOLECULE
3R8
117   119    1
SMALL
USER_CHARGES


@<TRIPOS>ATOM
      1 CA         21.6642  -29.9580  -43.8846 C.3       0 UNK        -0.2013 
      2 C          21.0626  -29.2013  -42.7132 C.2       0 UNK         0.4866 
      3 O          21.7201  -29.0474  -41.6857 O.2       0 UNK        -0.5176 
      4 N          19.8187  -28.7273  -42.8539 N.am      1 UNK        -0.4884 
      5 CA         19.1864  -27.7777  -41.9303 C.3       1 UNK         0.0853 
      6 C6         17.6405  -27.9189  -41.9078 C.3       10 UNK        -0.0849 
      7 S7         17.0917  -29.5388  -41.2770 S.3       10 UNK        -0.2776 
      8 C8         16.1986  -30.2104  -42.7170 C.3       10 UNK         0.0316 
      9 C9         17.1517  -30.6900  -43.8015 C.ar      10 UNK        -0.0863 
     10 C10        17.8883  -31.8564  -43.5984 C.ar      10 UNK        -0.1009 
     11 C11        18.7580  -32.3359  -44.5775 C.ar      10 UNK        -0.0712 
     12 C12        18.8866  -31.6341  -45.7818 C.ar      10 UNK        -0.0894 
     13 C13        18.1581  -30.4575  -46.0025 C.ar      10 UNK        -0.0745 
     14 C14        17.2853  -29.9963  -45.0078 C.ar      10 UNK        -0.0972 
     15 C15        18.2639  -29.7359  -47.3446 C.3       10 UNK         0.0209 
     16 S16        18.3982  -27.9208  -47.2016 S.3       10 UNK        -0.2568 
     17 C17        20.1990  -27.6748  -47.0568 C.3       10 UNK        -0.0983 
     18 CA         20.5495  -26.1969  -46.7425 C.3       3 UNK         0.0876 
     19 N          19.9552  -25.7637  -45.4761 N.am      3 UNK        -0.4424 
     20 C          19.9607  -24.5261  -44.9599 C.2       2 UNK         0.4918 
     21 O          20.5202  -23.5628  -45.4836 O.2       2 UNK        -0.4875 
     22 CA         19.1807  -24.3199  -43.6440 C.3       2 UNK         0.0481 
     23 CB         17.9051  -23.5006  -43.8997 C.3       2 UNK        -0.1831 
     24 N          18.8125  -25.5856  -42.9985 N.am      2 UNK        -0.4498 
     25 C          19.6675  -26.3612  -42.3157 C.2       1 UNK         0.5027 
     26 O          20.8167  -26.0118  -42.0468 O.2       1 UNK        -0.4969 
     27 C          22.0720  -25.9606  -46.8044 C.2       3 UNK         0.5005 
     28 O          22.5578  -25.4320  -47.8060 O.2       3 UNK        -0.5279 
     29 N          22.7861  -26.3356  -45.7355 N.am      4 UNK        -0.4463 
     30 CA         24.2322  -26.2047  -45.5580 C.3       4 UNK         0.0283 
     31 CB         25.0019  -27.0334  -46.6097 C.3       4 UNK        -0.1875 
     32 C          24.5907  -26.7088  -44.1566 C.2       4 UNK         0.4949 
     33 O          23.8327  -27.4931  -43.5866 O.2       4 UNK        -0.5039 
     34 N          25.7543  -26.2849  -43.6468 N.am      5 UNK        -0.4663 
     35 CA         26.4714  -26.7694  -42.4526 C.3       5 UNK         0.0242 
     36 CB         26.8859  -28.2431  -42.6411 C.3       5 UNK        -0.1982 
     37 C          25.7850  -26.5909  -41.0822 C.2       5 UNK         0.5017 
     38 O          26.5011  -26.4643  -40.0882 O.2       5 UNK        -0.5012 
     39 N          24.4460  -26.6084  -41.0372 N.am      6 UNK        -0.4439 
     40 CA         23.5943  -26.6636  -39.8419 C.3       6 UNK         0.0297 
     41 CB         23.7324  -25.3891  -38.9820 C.3       6 UNK        -0.2006 
     42 C          23.8130  -27.9690  -39.0514 C.2       6 UNK         0.4892 
     43 O          23.9601  -27.9454  -37.8279 O.2       6 UNK        -0.5089 
     44 N          23.8389  -29.0876  -39.7871 N.am      7 UNK        -0.4243 
     45 CA         23.9454  -30.4479  -39.2610 C.3       7 UNK         0.0196 
     46 CB         24.4306  -31.3796  -40.3840 C.3       7 UNK        -0.2007 
     47 C          22.6130  -30.9558  -38.6847 C.2       7 UNK         0.5020 
     48 O          22.6345  -31.7674  -37.7594 O.2       7 UNK        -0.5147 
     49 N          21.4917  -30.4692  -39.2406 N.am      8 UNK        -0.4734 
     50 CA         20.1038  -30.7906  -38.8867 C.3       8 UNK         0.0238 
     51 CB         19.7591  -30.2552  -37.4810 C.3       8 UNK        -0.1912 
     52 C          19.7795  -32.2866  -39.0649 C.2       8 UNK         0.5038 
     53 O          19.2632  -32.9268  -38.1473 O.2       8 UNK        -0.5046 
     54 N          20.0973  -32.8103  -40.2549 N.am      9 UNK        -0.4200 
     55 CA         19.8737  -34.1996  -40.6932 C.3       9 UNK         0.0839 
     56 C          18.3874  -34.6390  -40.8769 C.2       9 UNK         0.5513 
     57 N          17.3932  -33.8177  -40.5640 N.am      9 UNK        -0.7519 
     58 O          18.1276  -35.7633  -41.2977 O.2       9 UNK        -0.4960 
     59 C59        20.7740  -34.5737  -41.9110 C.3       10 UNK        -0.0876 
     60 S60        20.9408  -33.2773  -43.1900 S.3       10 UNK        -0.2414 
     61 C61        19.5491  -33.6096  -44.3141 C.3       10 UNK         0.0169 
     62 H62        22.1906  -29.2745  -44.5481 H         1 UNK         0.0903 
     63 H63        22.3810  -30.6977  -43.5304 H         1 UNK         0.0903 
     64 H64        20.9016  -30.4713  -44.4624 H         1 UNK         0.0903 
     65 H65        19.2871  -28.9669  -43.6789 H         1 UNK         0.3096 
     66 H66        19.5499  -27.9612  -40.9165 H         1 UNK         0.1121 
     67 H67        17.2002  -27.1596  -41.2582 H         1 UNK         0.0849 
     68 H68        17.2158  -27.7588  -42.8999 H         1 UNK         0.0849 
     69 H69        15.5862  -31.0508  -42.3865 H         1 UNK         0.0865 
     70 H70        15.5018  -29.4653  -43.1041 H         1 UNK         0.0865 
     71 H71        17.7878  -32.3902  -42.6675 H         1 UNK         0.1346 
     72 H72        19.5532  -32.0071  -46.5475 H         1 UNK         0.1412 
     73 H73        16.6988  -29.1041  -45.1804 H         1 UNK         0.1426 
     74 H74        19.1067  -30.1120  -47.9268 H         1 UNK         0.0716 
     75 H75        17.3680  -29.9671  -47.9220 H         1 UNK         0.0716 
     76 H76        20.6571  -27.9868  -47.9976 H         1 UNK         0.0695 
     77 H77        20.5865  -28.3421  -46.2851 H         1 UNK         0.0695 
     78 H78        20.1083  -25.5738  -47.5238 H         1 UNK         0.0983 
     79 H79        19.4328  -26.4695  -44.9828 H         1 UNK         0.3095 
     80 H80        19.8202  -23.7500  -42.9666 H         1 UNK         0.0454 
     81 H81        17.3676  -23.3019  -42.9724 H         1 UNK         0.0851 
     82 H82        17.2241  -24.0119  -44.5813 H         1 UNK         0.0851 
     83 H83        18.1447  -22.5339  -44.3450 H         1 UNK         0.0851 
     84 H84        17.8740  -25.9187  -43.1660 H         1 UNK         0.2976 
     85 H85        22.3181  -26.7446  -44.9353 H         1 UNK         0.3116 
     86 H86        24.5024  -25.1501  -45.6386 H         1 UNK         0.0646 
     87 H87        24.8529  -26.6532  -47.6197 H         1 UNK         0.0847 
     88 H88        26.0764  -27.0092  -46.4230 H         1 UNK         0.0847 
     89 H89        24.6947  -28.0799  -46.5973 H         1 UNK         0.0847 
     90 H90        26.2654  -25.5985  -44.1859 H         1 UNK         0.3040 
     91 H91        27.3873  -26.1774  -42.4045 H         1 UNK         0.1015 
     92 H92        26.0205  -28.9050  -42.6940 H         1 UNK         0.0786 
     93 H93        27.5030  -28.5859  -41.8092 H         1 UNK         0.0786 
     94 H94        27.4685  -28.3789  -43.5523 H         1 UNK         0.0786 
     95 H95        23.9756  -26.8005  -41.9210 H         1 UNK         0.3172 
     96 H96        22.5667  -26.7024  -40.2036 H         1 UNK         0.0595 
     97 H97        24.7190  -25.3072  -38.5254 H         1 UNK         0.0839 
     98 H98        23.0017  -25.3880  -38.1724 H         1 UNK         0.0839 
     99 H99        23.5596  -24.4913  -39.5751 H         1 UNK         0.0839 
    100 H100       23.5987  -29.0025  -40.7689 H         1 UNK         0.2998 
    101 H101       24.6856  -30.4557  -38.4580 H         1 UNK         0.0822 
    102 H102       24.5420  -32.4024  -40.0216 H         1 UNK         0.0787 
    103 H103       23.7292  -31.4037  -41.2196 H         1 UNK         0.0787 
    104 H104       25.4004  -31.0641  -40.7693 H         1 UNK         0.0787 
    105 H105       21.6062  -29.8446  -40.0387 H         1 UNK         0.3055 
    106 H106       19.4749  -30.2578  -39.6010 H         1 UNK         0.1106 
    107 H107       19.9670  -29.1882  -37.4017 H         1 UNK         0.0828 
    108 H108       18.7004  -30.3960  -37.2595 H         1 UNK         0.0828 
    109 H109       20.3247  -30.7660  -36.7011 H         1 UNK         0.0828 
    110 H110       20.5142  -32.2091  -40.9508 H         1 UNK         0.2931 
    111 H111       20.2185  -34.8234  -39.8663 H         1 UNK         0.0412 
    112 H112       16.4424  -34.1318  -40.6774 H         1 UNK         0.3472 
    113 H113       17.5829  -32.9142  -40.1621 H         1 UNK         0.3472 
    114 H114       21.7830  -34.7626  -41.5416 H         1 UNK         0.0970 
    115 H115       20.4724  -35.5139  -42.3763 H         1 UNK         0.0970 
    116 H116       18.8876  -34.3658  -43.8896 H         1 UNK         0.0612 
    117 H117       19.9354  -34.0254  -45.2457 H         1 UNK         0.0612 
@<TRIPOS>BOND
     1    1    2 1    
     2    1   62 1    
     3    1   63 1    
     4    1   64 1    
     5    2    3 2    
     6    2    4 am   BACKBONE|DICT|INTERRES
     7    4    5 1    
     8    4   65 1    
     9    5    6 1    
    10    5   25 1    
    11    5   66 1    
    12    6    7 1    
    13    6   67 1    
    14    6   68 1    
    15    7    8 1    
    16    8    9 1    
    17    8   69 1    
    18    8   70 1    
    19    9   10 ar   
    20    9   14 ar   
    21   10   11 ar   
    22   10   71 1    
    23   11   12 ar   
    24   11   61 1    
    25   12   13 ar   
    26   12   72 1    
    27   13   14 ar   
    28   13   15 1    
    29   14   73 1    
    30   15   16 1    
    31   15   74 1    
    32   15   75 1    
    33   16   17 1    
    34   17   18 1    
    35   17   76 1    
    36   17   77 1    
    37   18   19 1    
    38   18   27 1    
    39   18   78 1    
    40   19   20 am   BACKBONE|DICT|INTERRES
    41   19   79 1    
    42   20   21 2    
    43   20   22 1    
    44   22   23 1    
    45   22   24 1    
    46   22   80 1    
    47   23   81 1    
    48   23   82 1    
    49   23   83 1    
    50   24   25 am   BACKBONE|DICT|INTERRES
    51   24   84 1    
    52   25   26 2    
    53   27   28 2    
    54   27   29 am   BACKBONE|DICT|INTERRES
    55   29   30 1    
    56   29   85 1    
    57   30   31 1    
    58   30   32 1    
    59   30   86 1    
    60   31   87 1    
    61   31   88 1    
    62   31   89 1    
    63   32   33 2    
    64   32   34 am   BACKBONE|DICT|INTERRES
    65   34   35 1    
    66   34   90 1    
    67   35   36 1    
    68   35   37 1    
    69   35   91 1    
    70   36   92 1    
    71   36   93 1    
    72   36   94 1    
    73   37   38 2    
    74   37   39 am   BACKBONE|DICT|INTERRES
    75   39   40 1    
    76   39   95 1    
    77   40   41 1    
    78   40   42 1    
    79   40   96 1    
    80   41   97 1    
    81   41   98 1    
    82   41   99 1    
    83   42   43 2    
    84   42   44 am   BACKBONE|DICT|INTERRES
    85   44   45 1    
    86   44  100 1    
    87   45   46 1    
    88   45   47 1    
    89   45  101 1    
    90   46  102 1    
    91   46  103 1    
    92   46  104 1    
    93   47   48 2    
    94   47   49 am   BACKBONE|DICT|INTERRES
    95   49   50 1    
    96   49  105 1    
    97   50   51 1    
    98   50   52 1    
    99   50  106 1    
   100   51  107 1    
   101   51  108 1    
   102   51  109 1    
   103   52   53 2    
   104   52   54 am   BACKBONE|DICT|INTERRES
   105   54   55 1    
   106   54  110 1    
   107   55   56 1    
   108   55   59 1    
   109   55  111 1    
   110   56   57 am   BACKBONE|DICT|INTERRES
   111   56   58 2    
   112   57  112 1    
   113   57  113 1    
   114   59   60 1    
   115   59  114 1    
   116   59  115 1    
   117   60   61 1    
   118   61  116 1    
   119   61  117 1    
@<TRIPOS>SUBSTRUCTURE
     1 UNK         1 GROUP             0       ****    0 ROOT    
