@<TRIPOS>MOLECULE
3R8
117   119    1
SMALL
USER_CHARGES


@<TRIPOS>ATOM
      1 CA         17.4047  -28.6334  -40.8936 C.3       0 UNK        -0.2013 
      2 C          17.0600  -27.2474  -41.4095 C.2       0 UNK         0.4866 
      3 O          16.4431  -26.4604  -40.6915 O.2       0 UNK        -0.5176 
      4 N          17.4481  -26.9482  -42.6518 N.am      1 UNK        -0.4884 
      5 CA         17.1987  -25.6815  -43.3305 C.3       1 UNK         0.0853 
      6 C6         15.8888  -25.7361  -44.1665 C.3       10 UNK        -0.0849 
      7 S7         15.9088  -26.7610  -45.6900 S.3       10 UNK        -0.2776 
      8 C8         15.7965  -28.4776  -45.0626 C.3       10 UNK         0.0316 
      9 C9         17.1006  -29.2886  -45.0814 C.ar      10 UNK        -0.0863 
     10 C10        17.1793  -30.4382  -44.2885 C.ar      10 UNK        -0.1009 
     11 C11        18.3076  -31.2625  -44.3236 C.ar      10 UNK        -0.0712 
     12 C12        19.3833  -30.9135  -45.1464 C.ar      10 UNK        -0.0894 
     13 C13        19.3412  -29.7634  -45.9420 C.ar      10 UNK        -0.0745 
     14 C14        18.1842  -28.9696  -45.9143 C.ar      10 UNK        -0.0972 
     15 C15        20.5390  -29.4593  -46.8536 C.3       10 UNK         0.0209 
     16 S16        20.6704  -27.7293  -47.4386 S.3       10 UNK        -0.2568 
     17 C17        22.3908  -27.2327  -47.0223 C.3       10 UNK        -0.0983 
     18 CA         22.5190  -26.3032  -45.7789 C.3       3 UNK         0.0876 
     19 N          21.4747  -25.2784  -45.7731 N.am      3 UNK        -0.4424 
     20 C          21.2804  -24.3006  -44.8796 C.2       2 UNK         0.4918 
     21 O          22.0674  -24.0158  -43.9769 O.2       2 UNK        -0.4875 
     22 CA         19.9544  -23.5184  -45.0134 C.3       2 UNK         0.0481 
     23 CB         19.5013  -23.3536  -46.4812 C.3       2 UNK        -0.1831 
     24 N          18.8519  -24.0760  -44.2122 N.am      2 UNK        -0.4498 
     25 C          18.4449  -25.3553  -44.1668 C.2       1 UNK         0.5027 
     26 O          19.0045  -26.2782  -44.7580 O.2       1 UNK        -0.4969 
     27 C          22.5570  -27.1287  -44.4778 C.2       3 UNK         0.5005 
     28 O          23.6367  -27.3318  -43.9172 O.2       3 UNK        -0.5279 
     29 N          21.3816  -27.6201  -44.0540 N.am      4 UNK        -0.4463 
     30 CA         21.1010  -28.4429  -42.8687 C.3       4 UNK         0.0283 
     31 CB         21.0881  -27.5489  -41.6130 C.3       4 UNK        -0.1875 
     32 C          22.0106  -29.6787  -42.6941 C.2       4 UNK         0.4949 
     33 O          22.1871  -30.1388  -41.5668 O.2       4 UNK        -0.5039 
     34 N          22.6072  -30.1616  -43.7951 N.am      5 UNK        -0.4663 
     35 CA         23.6599  -31.1840  -43.8660 C.3       5 UNK         0.0242 
     36 CB         23.0776  -32.5815  -43.5782 C.3       5 UNK        -0.1982 
     37 C          24.8805  -30.8450  -42.9833 C.2       5 UNK         0.5017 
     38 O          25.4055  -31.7239  -42.2998 O.2       5 UNK        -0.5012 
     39 N          25.2794  -29.5618  -42.9834 N.am      6 UNK        -0.4439 
     40 CA         26.3071  -28.9612  -42.1215 C.3       6 UNK         0.0297 
     41 CB         27.7061  -29.5454  -42.4139 C.3       6 UNK        -0.2006 
     42 C          25.9144  -29.0255  -40.6316 C.2       6 UNK         0.4892 
     43 O          26.7362  -29.3763  -39.7839 O.2       6 UNK        -0.5089 
     44 N          24.6424  -28.6953  -40.3655 N.am      7 UNK        -0.4243 
     45 CA         23.9418  -28.6904  -39.0751 C.3       7 UNK         0.0196 
     46 CB         24.6482  -27.7835  -38.0453 C.3       7 UNK        -0.2007 
     47 C          23.6224  -30.0856  -38.5030 C.2       7 UNK         0.5020 
     48 O          23.0717  -30.1599  -37.4036 O.2       7 UNK        -0.5147 
     49 N          23.9053  -31.1666  -39.2454 N.am      8 UNK        -0.4734 
     50 CA         23.5666  -32.5415  -38.8585 C.3       8 UNK         0.0238 
     51 CB         24.3018  -33.5373  -39.7678 C.3       8 UNK        -0.1912 
     52 C          22.0518  -32.8209  -38.8522 C.2       8 UNK         0.5038 
     53 O          21.6088  -33.6767  -38.0847 O.2       8 UNK        -0.5046 
     54 N          21.2870  -32.0859  -39.6710 N.am      9 UNK        -0.4200 
     55 CA         19.8150  -32.0816  -39.6626 C.3       9 UNK         0.0839 
     56 C          19.1952  -31.2514  -38.4986 C.2       9 UNK         0.5513 
     57 N          19.9690  -30.5510  -37.6760 N.am      9 UNK        -0.7519 
     58 O          17.9783  -31.2470  -38.3344 O.2       9 UNK        -0.4960 
     59 C59        19.2287  -31.6404  -41.0299 C.3       10 UNK        -0.0876 
     60 S60        19.7251  -32.7338  -42.3991 S.3       10 UNK        -0.2414 
     61 C61        18.3206  -32.5767  -43.5476 C.3       10 UNK         0.0169 
     62 H62        18.2398  -28.5807  -40.1957 H         1 UNK         0.0903 
     63 H63        16.5521  -29.0691  -40.3733 H         1 UNK         0.0903 
     64 H64        17.6729  -29.2983  -41.7119 H         1 UNK         0.0903 
     65 H65        17.9720  -27.6065  -43.2156 H         1 UNK         0.3096 
     66 H66        17.0949  -24.8945  -42.5799 H         1 UNK         0.1121 
     67 H67        15.0597  -26.0614  -43.5362 H         1 UNK         0.0849 
     68 H68        15.6275  -24.7223  -44.4744 H         1 UNK         0.0849 
     69 H69        15.3817  -28.4629  -44.0536 H         1 UNK         0.0865 
     70 H70        15.0688  -29.0085  -45.6775 H         1 UNK         0.0865 
     71 H71        16.3367  -30.7161  -43.6696 H         1 UNK         0.1346 
     72 H72        20.2500  -31.5595  -45.1820 H         1 UNK         0.1412 
     73 H73        18.1225  -28.1004  -46.5517 H         1 UNK         0.1426 
     74 H74        20.4731  -30.1061  -47.7292 H         1 UNK         0.0716 
     75 H75        21.4606  -29.7375  -46.3445 H         1 UNK         0.0716 
     76 H76        22.7705  -26.6944  -47.8919 H         1 UNK         0.0695 
     77 H77        23.0322  -28.1122  -46.9382 H         1 UNK         0.0695 
     78 H78        23.4759  -25.7809  -45.8419 H         1 UNK         0.0983 
     79 H79        20.7189  -25.4607  -46.4187 H         1 UNK         0.3095 
     80 H80        20.1480  -22.5195  -44.6193 H         1 UNK         0.0454 
     81 H81        20.3123  -22.9759  -47.1054 H         1 UNK         0.0851 
     82 H82        18.6819  -22.6389  -46.5572 H         1 UNK         0.0851 
     83 H83        19.1551  -24.2914  -46.9176 H         1 UNK         0.0851 
     84 H84        18.3469  -23.3988  -43.6574 H         1 UNK         0.2976 
     85 H85        20.5562  -27.3383  -44.5821 H         1 UNK         0.3116 
     86 H86        20.0929  -28.8350  -43.0078 H         1 UNK         0.0646 
     87 H87        22.0717  -27.1225  -41.4151 H         1 UNK         0.0847 
     88 H88        20.3866  -26.7224  -41.7253 H         1 UNK         0.0847 
     89 H89        20.7854  -28.1083  -40.7270 H         1 UNK         0.0847 
     90 H90        22.4022  -29.6852  -44.6600 H         1 UNK         0.3040 
     91 H91        24.0272  -31.1867  -44.8934 H         1 UNK         0.1015 
     92 H92        23.8350  -33.3579  -43.6928 H         1 UNK         0.0786 
     93 H93        22.2650  -32.8206  -44.2635 H         1 UNK         0.0786 
     94 H94        22.6886  -32.6508  -42.5630 H         1 UNK         0.0786 
     95 H95        24.7357  -28.8945  -43.5272 H         1 UNK         0.3172 
     96 H96        26.3359  -27.9019  -42.3816 H         1 UNK         0.0595 
     97 H97        27.7829  -30.5918  -42.1174 H         1 UNK         0.0839 
     98 H98        28.4761  -28.9994  -41.8675 H         1 UNK         0.0839 
     99 H99        27.9516  -29.4773  -43.4735 H         1 UNK         0.0839 
    100 H100       24.0551  -28.4861  -41.1612 H         1 UNK         0.2998 
    101 H101       22.9695  -28.2413  -39.2807 H         1 UNK         0.0822 
    102 H102       24.0308  -27.6479  -37.1564 H         1 UNK         0.0787 
    103 H103       24.8436  -26.7928  -38.4556 H         1 UNK         0.0787 
    104 H104       25.5976  -28.2052  -37.7145 H         1 UNK         0.0787 
    105 H105       24.3187  -31.0336  -40.1593 H         1 UNK         0.3055 
    106 H106       23.9236  -32.6934  -37.8373 H         1 UNK         0.1106 
    107 H107       25.3788  -33.3690  -39.7549 H         1 UNK         0.0828 
    108 H108       24.1291  -34.5635  -39.4408 H         1 UNK         0.0828 
    109 H109       23.9651  -33.4664  -40.8010 H         1 UNK         0.0828 
    110 H110       21.7295  -31.4074  -40.2872 H         1 UNK         0.2931 
    111 H111       19.4855  -33.1085  -39.4934 H         1 UNK         0.0412 
    112 H112       19.5396  -30.0283  -36.9292 H         1 UNK         0.3472 
    113 H113       20.9766  -30.5592  -37.7656 H         1 UNK         0.3472 
    114 H114       18.1382  -31.6260  -40.9860 H         1 UNK         0.0970 
    115 H115       19.5438  -30.6252  -41.2669 H         1 UNK         0.0970 
    116 H116       18.3764  -33.3955  -44.2660 H         1 UNK         0.0612 
    117 H117       17.3890  -32.7212  -42.9985 H         1 UNK         0.0612 
@<TRIPOS>BOND
     1    1    2 1    
     2    1   62 1    
     3    1   63 1    
     4    1   64 1    
     5    2    3 2    
     6    2    4 am   BACKBONE|DICT|INTERRES
     7    4    5 1    
     8    4   65 1    
     9    5    6 1    
    10    5   25 1    
    11    5   66 1    
    12    6    7 1    
    13    6   67 1    
    14    6   68 1    
    15    7    8 1    
    16    8    9 1    
    17    8   69 1    
    18    8   70 1    
    19    9   10 ar   
    20    9   14 ar   
    21   10   11 ar   
    22   10   71 1    
    23   11   12 ar   
    24   11   61 1    
    25   12   13 ar   
    26   12   72 1    
    27   13   14 ar   
    28   13   15 1    
    29   14   73 1    
    30   15   16 1    
    31   15   74 1    
    32   15   75 1    
    33   16   17 1    
    34   17   18 1    
    35   17   76 1    
    36   17   77 1    
    37   18   19 1    
    38   18   27 1    
    39   18   78 1    
    40   19   20 am   BACKBONE|DICT|INTERRES
    41   19   79 1    
    42   20   21 2    
    43   20   22 1    
    44   22   23 1    
    45   22   24 1    
    46   22   80 1    
    47   23   81 1    
    48   23   82 1    
    49   23   83 1    
    50   24   25 am   BACKBONE|DICT|INTERRES
    51   24   84 1    
    52   25   26 2    
    53   27   28 2    
    54   27   29 am   BACKBONE|DICT|INTERRES
    55   29   30 1    
    56   29   85 1    
    57   30   31 1    
    58   30   32 1    
    59   30   86 1    
    60   31   87 1    
    61   31   88 1    
    62   31   89 1    
    63   32   33 2    
    64   32   34 am   BACKBONE|DICT|INTERRES
    65   34   35 1    
    66   34   90 1    
    67   35   36 1    
    68   35   37 1    
    69   35   91 1    
    70   36   92 1    
    71   36   93 1    
    72   36   94 1    
    73   37   38 2    
    74   37   39 am   BACKBONE|DICT|INTERRES
    75   39   40 1    
    76   39   95 1    
    77   40   41 1    
    78   40   42 1    
    79   40   96 1    
    80   41   97 1    
    81   41   98 1    
    82   41   99 1    
    83   42   43 2    
    84   42   44 am   BACKBONE|DICT|INTERRES
    85   44   45 1    
    86   44  100 1    
    87   45   46 1    
    88   45   47 1    
    89   45  101 1    
    90   46  102 1    
    91   46  103 1    
    92   46  104 1    
    93   47   48 2    
    94   47   49 am   BACKBONE|DICT|INTERRES
    95   49   50 1    
    96   49  105 1    
    97   50   51 1    
    98   50   52 1    
    99   50  106 1    
   100   51  107 1    
   101   51  108 1    
   102   51  109 1    
   103   52   53 2    
   104   52   54 am   BACKBONE|DICT|INTERRES
   105   54   55 1    
   106   54  110 1    
   107   55   56 1    
   108   55   59 1    
   109   55  111 1    
   110   56   57 am   BACKBONE|DICT|INTERRES
   111   56   58 2    
   112   57  112 1    
   113   57  113 1    
   114   59   60 1    
   115   59  114 1    
   116   59  115 1    
   117   60   61 1    
   118   61  116 1    
   119   61  117 1    
@<TRIPOS>SUBSTRUCTURE
     1 UNK         1 GROUP             0       ****    0 ROOT    
