@<TRIPOS>MOLECULE
3R8
117   119    1
SMALL
USER_CHARGES


@<TRIPOS>ATOM
      1 CA         21.6651  -24.4241  -40.4648 C.3       0 UNK        -0.2013 
      2 C          20.4147  -24.2591  -41.3158 C.2       0 UNK         0.4866 
      3 O          19.7308  -23.2402  -41.2110 O.2       0 UNK        -0.5176 
      4 N          20.1142  -25.2528  -42.1575 N.am      1 UNK        -0.4884 
      5 CA         19.0364  -25.2219  -43.1477 C.3       1 UNK         0.0853 
      6 C6         18.5139  -26.6488  -43.4836 C.3       10 UNK        -0.0849 
      7 S7         18.0476  -27.6187  -42.0099 S.3       10 UNK        -0.2776 
      8 C8         16.9287  -28.8816  -42.6965 C.3       10 UNK         0.0316 
      9 C9         17.6219  -29.8431  -43.6565 C.ar      10 UNK        -0.0863 
     10 C10        18.3415  -30.9439  -43.1732 C.ar      10 UNK        -0.1009 
     11 C11        18.9045  -31.8684  -44.0620 C.ar      10 UNK        -0.0712 
     12 C12        18.7678  -31.6688  -45.4390 C.ar      10 UNK        -0.0894 
     13 C13        18.0603  -30.5708  -45.9336 C.ar      10 UNK        -0.0745 
     14 C14        17.4839  -29.6662  -45.0367 C.ar      10 UNK        -0.0972 
     15 C15        17.8824  -30.3924  -47.4360 C.3       10 UNK         0.0209 
     16 S16        19.3253  -29.6013  -48.2150 S.3       10 UNK        -0.2568 
     17 C17        19.1399  -27.8895  -47.6127 C.3       10 UNK        -0.0983 
     18 CA         20.3866  -26.9777  -47.7960 C.3       3 UNK         0.0876 
     19 N          20.1722  -25.6537  -47.2211 N.am      3 UNK        -0.4424 
     20 C          19.2514  -24.7635  -47.6062 C.2       2 UNK         0.4918 
     21 O          18.5715  -24.8802  -48.6269 O.2       2 UNK        -0.4875 
     22 CA         19.0117  -23.5789  -46.6424 C.3       2 UNK         0.0481 
     23 CB         17.8965  -22.6345  -47.1281 C.3       2 UNK        -0.1831 
     24 N          18.6826  -24.0543  -45.2899 N.am      2 UNK        -0.4498 
     25 C          19.5775  -24.5500  -44.4248 C.2       1 UNK         0.5027 
     26 O          20.7897  -24.5697  -44.6641 O.2       1 UNK        -0.4969 
     27 C          21.6565  -27.5826  -47.1682 C.2       3 UNK         0.5005 
     28 O          22.6013  -27.8936  -47.8959 O.2       3 UNK        -0.5279 
     29 N          21.6583  -27.7459  -45.8372 N.am      4 UNK        -0.4463 
     30 CA         22.6788  -28.4699  -45.0816 C.3       4 UNK         0.0283 
     31 CB         22.4012  -29.9793  -45.1795 C.3       4 UNK        -0.1875 
     32 C          22.6853  -28.0067  -43.6193 C.2       4 UNK         0.4949 
     33 O          21.7604  -27.3217  -43.1819 O.2       4 UNK        -0.5039 
     34 N          23.7285  -28.3974  -42.8789 N.am      5 UNK        -0.4663 
     35 CA         24.0728  -27.9314  -41.5285 C.3       5 UNK         0.0242 
     36 CB         25.5580  -28.2548  -41.2783 C.3       5 UNK        -0.1982 
     37 C          23.1589  -28.4124  -40.3745 C.2       5 UNK         0.5017 
     38 O          23.6602  -28.6637  -39.2772 O.2       5 UNK        -0.5012 
     39 N          21.8434  -28.4959  -40.6199 N.am      6 UNK        -0.4439 
     40 CA         20.7520  -28.7456  -39.6667 C.3       6 UNK         0.0297 
     41 CB         20.4061  -27.4485  -38.9044 C.3       6 UNK        -0.2006 
     42 C          20.9953  -29.9490  -38.7389 C.2       6 UNK         0.4892 
     43 O          20.8445  -31.0845  -39.1831 O.2       6 UNK        -0.5089 
     44 N          21.3838  -29.6919  -37.4820 N.am      7 UNK        -0.4243 
     45 CA         21.6908  -30.7059  -36.4686 C.3       7 UNK         0.0196 
     46 CB         21.9503  -30.0096  -35.1229 C.3       7 UNK        -0.2007 
     47 C          22.8705  -31.6270  -36.8338 C.2       7 UNK         0.5020 
     48 O          22.9155  -32.7582  -36.3499 O.2       7 UNK        -0.5147 
     49 N          23.7927  -31.1450  -37.6785 N.am      8 UNK        -0.4734 
     50 CA         24.9117  -31.9283  -38.2070 C.3       8 UNK         0.0238 
     51 CB         26.1166  -30.9990  -38.4260 C.3       8 UNK        -0.1912 
     52 C          24.5552  -32.6887  -39.4987 C.2       8 UNK         0.5038 
     53 O          25.3517  -33.5260  -39.9254 O.2       8 UNK        -0.5046 
     54 N          23.3922  -32.4020  -40.1023 N.am      9 UNK        -0.4200 
     55 CA         22.8551  -33.1350  -41.2546 C.3       9 UNK         0.0839 
     56 C          22.2569  -34.4954  -40.8014 C.2       9 UNK         0.5513 
     57 N          22.6019  -35.5851  -41.4736 N.am      9 UNK        -0.7519 
     58 O          21.4658  -34.5660  -39.8637 O.2       9 UNK        -0.4960 
     59 C59        21.8363  -32.2666  -42.0391 C.3       10 UNK        -0.0876 
     60 S60        21.4215  -32.9773  -43.6670 S.3       10 UNK        -0.2414 
     61 C61        19.6106  -33.1198  -43.5561 C.3       10 UNK         0.0169 
     62 H62        22.3845  -23.6401  -40.6990 H         1 UNK         0.0903 
     63 H63        21.4128  -24.3525  -39.4072 H         1 UNK         0.0903 
     64 H64        22.1450  -25.3870  -40.6343 H         1 UNK         0.0903 
     65 H65        20.7633  -26.0248  -42.2870 H         1 UNK         0.3096 
     66 H66        18.2077  -24.6246  -42.7609 H         1 UNK         0.1121 
     67 H67        19.2629  -27.2272  -44.0255 H         1 UNK         0.0849 
     68 H68        17.6466  -26.5833  -44.1430 H         1 UNK         0.0849 
     69 H69        16.0878  -28.3884  -43.1866 H         1 UNK         0.0865 
     70 H70        16.4985  -29.4490  -41.8699 H         1 UNK         0.0865 
     71 H71        18.4370  -31.0955  -42.1065 H         1 UNK         0.1346 
     72 H72        19.2016  -32.3804  -46.1284 H         1 UNK         0.1412 
     73 H73        16.9134  -28.8292  -45.4153 H         1 UNK         0.1426 
     74 H74        16.9869  -29.8073  -47.6514 H         1 UNK         0.0716 
     75 H75        17.7250  -31.3667  -47.9009 H         1 UNK         0.0716 
     76 H76        18.8677  -27.9142  -46.5584 H         1 UNK         0.0695 
     77 H77        18.2808  -27.4627  -48.1312 H         1 UNK         0.0695 
     78 H78        20.5729  -26.8540  -48.8650 H         1 UNK         0.0983 
     79 H79        20.7112  -25.4317  -46.3877 H         1 UNK         0.3095 
     80 H80        19.9372  -23.0007  -46.6016 H         1 UNK         0.0454 
     81 H81        17.7754  -21.7847  -46.4564 H         1 UNK         0.0851 
     82 H82        16.9355  -23.1452  -47.2008 H         1 UNK         0.0851 
     83 H83        18.1275  -22.2328  -48.1156 H         1 UNK         0.0851 
     84 H84        17.7001  -24.0957  -45.0576 H         1 UNK         0.2976 
     85 H85        20.8935  -27.4030  -45.2727 H         1 UNK         0.3116 
     86 H86        23.6619  -28.2502  -45.5031 H         1 UNK         0.0646 
     87 H87        23.1388  -30.5607  -44.6259 H         1 UNK         0.0847 
     88 H88        22.4311  -30.3267  -46.2123 H         1 UNK         0.0847 
     89 H89        21.4169  -30.2241  -44.7785 H         1 UNK         0.0847 
     90 H90        24.4132  -28.9978  -43.3160 H         1 UNK         0.3040 
     91 H91        23.9808  -26.8433  -41.5324 H         1 UNK         0.1015 
     92 H92        25.7427  -29.3290  -41.3041 H         1 UNK         0.0786 
     93 H93        25.8928  -27.8828  -40.3089 H         1 UNK         0.0786 
     94 H94        26.1958  -27.7893  -42.0301 H         1 UNK         0.0786 
     95 H95        21.5543  -28.2636  -41.5664 H         1 UNK         0.3172 
     96 H96        19.8819  -29.0158  -40.2649 H         1 UNK         0.0595 
     97 H97        21.2739  -27.0149  -38.4064 H         1 UNK         0.0839 
     98 H98        19.6368  -27.6226  -38.1506 H         1 UNK         0.0839 
     99 H99        20.0050  -26.6994  -39.5852 H         1 UNK         0.0839 
    100 H100       21.5196  -28.7277  -37.2152 H         1 UNK         0.2998 
    101 H101       20.8083  -31.3405  -36.3625 H         1 UNK         0.0822 
    102 H102       21.0863  -29.4265  -34.8033 H         1 UNK         0.0787 
    103 H103       22.1538  -30.7399  -34.3383 H         1 UNK         0.0787 
    104 H104       22.8094  -29.3395  -35.1751 H         1 UNK         0.0787 
    105 H105       23.6786  -30.2059  -38.0536 H         1 UNK         0.3055 
    106 H106       25.2056  -32.6811  -37.4718 H         1 UNK         0.1106 
    107 H107       26.9746  -31.5504  -38.8128 H         1 UNK         0.0828 
    108 H108       25.8904  -30.2062  -39.1363 H         1 UNK         0.0828 
    109 H109       26.4285  -30.5304  -37.4925 H         1 UNK         0.0828 
    110 H110       22.7421  -31.7768  -39.6402 H         1 UNK         0.2931 
    111 H111       23.6920  -33.3329  -41.9283 H         1 UNK         0.0412 
    112 H112       22.2157  -36.4754  -41.2005 H         1 UNK         0.3472 
    113 H113       23.2371  -35.5317  -42.2549 H         1 UNK         0.3472 
    114 H114       22.2480  -31.2711  -42.2112 H         1 UNK         0.0970 
    115 H115       20.9261  -32.1153  -41.4597 H         1 UNK         0.0970 
    116 H116       19.2982  -33.9719  -44.1616 H         1 UNK         0.0612 
    117 H117       19.3081  -33.3565  -42.5349 H         1 UNK         0.0612 
@<TRIPOS>BOND
     1    1    2 1    
     2    1   62 1    
     3    1   63 1    
     4    1   64 1    
     5    2    3 2    
     6    2    4 am   BACKBONE|DICT|INTERRES
     7    4    5 1    
     8    4   65 1    
     9    5    6 1    
    10    5   25 1    
    11    5   66 1    
    12    6    7 1    
    13    6   67 1    
    14    6   68 1    
    15    7    8 1    
    16    8    9 1    
    17    8   69 1    
    18    8   70 1    
    19    9   10 ar   
    20    9   14 ar   
    21   10   11 ar   
    22   10   71 1    
    23   11   12 ar   
    24   11   61 1    
    25   12   13 ar   
    26   12   72 1    
    27   13   14 ar   
    28   13   15 1    
    29   14   73 1    
    30   15   16 1    
    31   15   74 1    
    32   15   75 1    
    33   16   17 1    
    34   17   18 1    
    35   17   76 1    
    36   17   77 1    
    37   18   19 1    
    38   18   27 1    
    39   18   78 1    
    40   19   20 am   BACKBONE|DICT|INTERRES
    41   19   79 1    
    42   20   21 2    
    43   20   22 1    
    44   22   23 1    
    45   22   24 1    
    46   22   80 1    
    47   23   81 1    
    48   23   82 1    
    49   23   83 1    
    50   24   25 am   BACKBONE|DICT|INTERRES
    51   24   84 1    
    52   25   26 2    
    53   27   28 2    
    54   27   29 am   BACKBONE|DICT|INTERRES
    55   29   30 1    
    56   29   85 1    
    57   30   31 1    
    58   30   32 1    
    59   30   86 1    
    60   31   87 1    
    61   31   88 1    
    62   31   89 1    
    63   32   33 2    
    64   32   34 am   BACKBONE|DICT|INTERRES
    65   34   35 1    
    66   34   90 1    
    67   35   36 1    
    68   35   37 1    
    69   35   91 1    
    70   36   92 1    
    71   36   93 1    
    72   36   94 1    
    73   37   38 2    
    74   37   39 am   BACKBONE|DICT|INTERRES
    75   39   40 1    
    76   39   95 1    
    77   40   41 1    
    78   40   42 1    
    79   40   96 1    
    80   41   97 1    
    81   41   98 1    
    82   41   99 1    
    83   42   43 2    
    84   42   44 am   BACKBONE|DICT|INTERRES
    85   44   45 1    
    86   44  100 1    
    87   45   46 1    
    88   45   47 1    
    89   45  101 1    
    90   46  102 1    
    91   46  103 1    
    92   46  104 1    
    93   47   48 2    
    94   47   49 am   BACKBONE|DICT|INTERRES
    95   49   50 1    
    96   49  105 1    
    97   50   51 1    
    98   50   52 1    
    99   50  106 1    
   100   51  107 1    
   101   51  108 1    
   102   51  109 1    
   103   52   53 2    
   104   52   54 am   BACKBONE|DICT|INTERRES
   105   54   55 1    
   106   54  110 1    
   107   55   56 1    
   108   55   59 1    
   109   55  111 1    
   110   56   57 am   BACKBONE|DICT|INTERRES
   111   56   58 2    
   112   57  112 1    
   113   57  113 1    
   114   59   60 1    
   115   59  114 1    
   116   59  115 1    
   117   60   61 1    
   118   61  116 1    
   119   61  117 1    
@<TRIPOS>SUBSTRUCTURE
     1 UNK         1 GROUP             0       ****    0 ROOT    
