@<TRIPOS>MOLECULE
3R8
117   119    1
SMALL
USER_CHARGES


@<TRIPOS>ATOM
      1 CA         14.5847  -23.0281  -45.4678 C.3       0 UNK        -0.2013 
      2 C          15.1547  -24.4356  -45.5585 C.2       0 UNK         0.4866 
      3 O          15.9814  -24.7049  -46.4289 O.2       0 UNK        -0.5176 
      4 N          14.7150  -25.3332  -44.6713 N.am      1 UNK        -0.4884 
      5 CA         15.1624  -26.7200  -44.5657 C.3       1 UNK         0.0853 
      6 C6         14.5929  -27.5941  -45.7160 C.3       10 UNK        -0.0849 
      7 S7         15.1320  -29.3391  -45.6806 S.3       10 UNK        -0.2776 
      8 C8         16.4149  -29.3702  -46.9695 C.3       10 UNK         0.0316 
      9 C9         17.7525  -28.8616  -46.4534 C.ar      10 UNK        -0.0863 
     10 C10        18.6237  -29.7363  -45.7953 C.ar      10 UNK        -0.1009 
     11 C11        19.8807  -29.2973  -45.3715 C.ar      10 UNK        -0.0712 
     12 C12        20.2677  -27.9798  -45.6256 C.ar      10 UNK        -0.0894 
     13 C13        19.3860  -27.0794  -46.2279 C.ar      10 UNK        -0.0745 
     14 C14        18.1313  -27.5294  -46.6506 C.ar      10 UNK        -0.0972 
     15 C15        19.7955  -25.6269  -46.4302 C.3       10 UNK         0.0209 
     16 S16        19.3602  -24.5787  -45.0006 S.3       10 UNK        -0.2568 
     17 C17        20.5699  -25.1018  -43.7341 C.3       10 UNK        -0.0983 
     18 CA         19.9035  -25.6988  -42.4607 C.3       3 UNK         0.0876 
     19 N          18.9596  -26.7776  -42.7681 N.am      3 UNK        -0.4424 
     20 C          17.7689  -26.9304  -42.1814 C.2       2 UNK         0.4918 
     21 O          17.3000  -26.1463  -41.3523 O.2       2 UNK        -0.4875 
     22 CA         16.9651  -28.1793  -42.5832 C.3       2 UNK         0.0481 
     23 CB         17.3830  -29.3822  -41.7232 C.3       2 UNK        -0.1831 
     24 N          15.5289  -27.9487  -42.4025 N.am      2 UNK        -0.4498 
     25 C          14.7107  -27.2164  -43.1736 C.2       1 UNK         0.5027 
     26 O          13.5685  -26.9378  -42.8021 O.2       1 UNK        -0.4969 
     27 C          20.9045  -26.2156  -41.4002 C.2       3 UNK         0.5005 
     28 O          20.4778  -26.7488  -40.3738 O.2       3 UNK        -0.5279 
     29 N          22.2109  -26.0648  -41.6513 N.am      4 UNK        -0.4463 
     30 CA         23.2981  -26.5830  -40.8196 C.3       4 UNK         0.0283 
     31 CB         23.6122  -25.6011  -39.6731 C.3       4 UNK        -0.1875 
     32 C          24.5106  -26.8833  -41.7130 C.2       4 UNK         0.4949 
     33 O          25.6249  -26.4501  -41.4194 O.2       4 UNK        -0.5039 
     34 N          24.2584  -27.5904  -42.8233 N.am      5 UNK        -0.4663 
     35 CA         25.2495  -27.9044  -43.8602 C.3       5 UNK         0.0242 
     36 CB         24.5036  -28.3246  -45.1377 C.3       5 UNK        -0.1982 
     37 C          26.2707  -28.9865  -43.4578 C.2       5 UNK         0.5017 
     38 O          27.3055  -29.1099  -44.1140 O.2       5 UNK        -0.5012 
     39 N          25.9593  -29.7558  -42.4106 N.am      6 UNK        -0.4439 
     40 CA         26.7273  -30.8727  -41.8714 C.3       6 UNK         0.0297 
     41 CB         26.6454  -32.0836  -42.8236 C.3       6 UNK        -0.2006 
     42 C          26.1371  -31.2228  -40.5008 C.2       6 UNK         0.4892 
     43 O          25.0368  -30.7644  -40.1785 O.2       6 UNK        -0.5089 
     44 N          26.8409  -32.0702  -39.7393 N.am      7 UNK        -0.4243 
     45 CA         26.4002  -32.5736  -38.4311 C.3       7 UNK         0.0196 
     46 CB         27.5363  -33.3852  -37.7879 C.3       7 UNK        -0.2007 
     47 C          25.1063  -33.4092  -38.4883 C.2       7 UNK         0.5020 
     48 O          24.3382  -33.3991  -37.5268 O.2       7 UNK        -0.5147 
     49 N          24.8782  -34.0986  -39.6155 N.am      8 UNK        -0.4734 
     50 CA         23.6460  -34.8427  -39.8974 C.3       8 UNK         0.0238 
     51 CB         23.9227  -35.8729  -41.0048 C.3       8 UNK        -0.1912 
     52 C          22.4691  -33.9316  -40.2954 C.2       8 UNK         0.5038 
     53 O          21.3171  -34.3262  -40.1121 O.2       8 UNK        -0.5046 
     54 N          22.7773  -32.7475  -40.8393 N.am      9 UNK        -0.4200 
     55 CA         21.8120  -31.6988  -41.1868 C.3       9 UNK         0.0839 
     56 C          21.4089  -30.8787  -39.9303 C.2       9 UNK         0.5513 
     57 N          22.3697  -30.3909  -39.1543 N.am      9 UNK        -0.7519 
     58 O          20.2262  -30.7083  -39.6478 O.2       9 UNK        -0.4960 
     59 C59        22.3709  -30.8145  -42.3323 C.3       10 UNK        -0.0876 
     60 S60        21.1872  -29.5875  -42.9706 S.3       10 UNK        -0.2414 
     61 C61        20.8254  -30.2322  -44.6324 C.3       10 UNK         0.0169 
     62 H62        14.0865  -22.7646  -46.4004 H         1 UNK         0.0903 
     63 H63        13.8620  -22.9313  -44.6578 H         1 UNK         0.0903 
     64 H64        15.3865  -22.3106  -45.2950 H         1 UNK         0.0903 
     65 H65        14.0297  -25.0744  -43.9710 H         1 UNK         0.3096 
     66 H66        16.2492  -26.7052  -44.6373 H         1 UNK         0.1121 
     67 H67        13.5016  -27.5822  -45.6885 H         1 UNK         0.0849 
     68 H68        14.8611  -27.1631  -46.6810 H         1 UNK         0.0849 
     69 H69        16.5303  -30.3977  -47.3180 H         1 UNK         0.0865 
     70 H70        16.0917  -28.7980  -47.8404 H         1 UNK         0.0865 
     71 H71        18.3227  -30.7603  -45.6196 H         1 UNK         0.1346 
     72 H72        21.2529  -27.6552  -45.3251 H         1 UNK         0.1412 
     73 H73        17.4525  -26.8417  -47.1372 H         1 UNK         0.1426 
     74 H74        20.8664  -25.5549  -46.6265 H         1 UNK         0.0716 
     75 H75        19.2988  -25.2266  -47.3154 H         1 UNK         0.0716 
     76 H76        21.2806  -25.7969  -44.1771 H         1 UNK         0.0695 
     77 H77        21.1479  -24.2151  -43.4675 H         1 UNK         0.0695 
     78 H78        19.3658  -24.8782  -41.9806 H         1 UNK         0.0983 
     79 H79        19.2831  -27.4784  -43.4205 H         1 UNK         0.3095 
     80 H80        17.1733  -28.4279  -43.6236 H         1 UNK         0.0454 
     81 H81        16.8370  -30.2820  -42.0070 H         1 UNK         0.0851 
     82 H82        18.4444  -29.6009  -41.8417 H         1 UNK         0.0851 
     83 H83        17.2100  -29.2025  -40.6614 H         1 UNK         0.0851 
     84 H84        15.1666  -28.2415  -41.5075 H         1 UNK         0.2976 
     85 H85        22.4976  -25.6077  -42.5064 H         1 UNK         0.3116 
     86 H86        22.9938  -27.5373  -40.3829 H         1 UNK         0.0646 
     87 H87        24.4136  -25.9830  -39.0393 H         1 UNK         0.0847 
     88 H88        22.7434  -25.4462  -39.0333 H         1 UNK         0.0847 
     89 H89        23.9279  -24.6285  -40.0518 H         1 UNK         0.0847 
     90 H90        23.3159  -27.9200  -42.9807 H         1 UNK         0.3040 
     91 H91        25.8165  -26.9962  -44.0778 H         1 UNK         0.1015 
     92 H92        23.8297  -27.5403  -45.4825 H         1 UNK         0.0786 
     93 H93        23.9175  -29.2306  -44.9814 H         1 UNK         0.0786 
     94 H94        25.2030  -28.5268  -45.9503 H         1 UNK         0.0786 
     95 H95        25.1306  -29.5400  -41.8715 H         1 UNK         0.3172 
     96 H96        27.7661  -30.5640  -41.7394 H         1 UNK         0.0595 
     97 H97        25.6151  -32.4075  -42.9768 H         1 UNK         0.0839 
     98 H98        27.2029  -32.9359  -42.4337 H         1 UNK         0.0839 
     99 H99        27.0681  -31.8527  -43.8014 H         1 UNK         0.0839 
    100 H100       27.7342  -32.4018  -40.0754 H         1 UNK         0.2998 
    101 H101       26.1968  -31.7078  -37.7968 H         1 UNK         0.0822 
    102 H102       28.4317  -32.7780  -37.6533 H         1 UNK         0.0787 
    103 H103       27.2446  -33.7508  -36.8021 H         1 UNK         0.0787 
    104 H104       27.8050  -34.2535  -38.3909 H         1 UNK         0.0787 
    105 H105       25.5800  -34.0775  -40.3412 H         1 UNK         0.3055 
    106 H106       23.3490  -35.3816  -38.9945 H         1 UNK         0.1106 
    107 H107       23.0305  -36.4629  -41.2199 H         1 UNK         0.0828 
    108 H108       24.2292  -35.3954  -41.9363 H         1 UNK         0.0828 
    109 H109       24.7063  -36.5715  -40.7105 H         1 UNK         0.0828 
    110 H110       23.7490  -32.4755  -40.8615 H         1 UNK         0.2931 
    111 H111       20.9100  -32.1835  -41.5668 H         1 UNK         0.0412 
    112 H112       22.1214  -29.8669  -38.3310 H         1 UNK         0.3472 
    113 H113       23.3467  -30.5289  -39.3962 H         1 UNK         0.3472 
    114 H114       22.7092  -31.4449  -43.1561 H         1 UNK         0.0970 
    115 H115       23.2504  -30.2717  -41.9938 H         1 UNK         0.0970 
    116 H116       21.7504  -30.3329  -45.2011 H         1 UNK         0.0612 
    117 H117       20.3968  -31.2315  -44.5419 H         1 UNK         0.0612 
@<TRIPOS>BOND
     1    1    2 1    
     2    1   62 1    
     3    1   63 1    
     4    1   64 1    
     5    2    3 2    
     6    2    4 am   BACKBONE|DICT|INTERRES
     7    4    5 1    
     8    4   65 1    
     9    5    6 1    
    10    5   25 1    
    11    5   66 1    
    12    6    7 1    
    13    6   67 1    
    14    6   68 1    
    15    7    8 1    
    16    8    9 1    
    17    8   69 1    
    18    8   70 1    
    19    9   10 ar   
    20    9   14 ar   
    21   10   11 ar   
    22   10   71 1    
    23   11   12 ar   
    24   11   61 1    
    25   12   13 ar   
    26   12   72 1    
    27   13   14 ar   
    28   13   15 1    
    29   14   73 1    
    30   15   16 1    
    31   15   74 1    
    32   15   75 1    
    33   16   17 1    
    34   17   18 1    
    35   17   76 1    
    36   17   77 1    
    37   18   19 1    
    38   18   27 1    
    39   18   78 1    
    40   19   20 am   BACKBONE|DICT|INTERRES
    41   19   79 1    
    42   20   21 2    
    43   20   22 1    
    44   22   23 1    
    45   22   24 1    
    46   22   80 1    
    47   23   81 1    
    48   23   82 1    
    49   23   83 1    
    50   24   25 am   BACKBONE|DICT|INTERRES
    51   24   84 1    
    52   25   26 2    
    53   27   28 2    
    54   27   29 am   BACKBONE|DICT|INTERRES
    55   29   30 1    
    56   29   85 1    
    57   30   31 1    
    58   30   32 1    
    59   30   86 1    
    60   31   87 1    
    61   31   88 1    
    62   31   89 1    
    63   32   33 2    
    64   32   34 am   BACKBONE|DICT|INTERRES
    65   34   35 1    
    66   34   90 1    
    67   35   36 1    
    68   35   37 1    
    69   35   91 1    
    70   36   92 1    
    71   36   93 1    
    72   36   94 1    
    73   37   38 2    
    74   37   39 am   BACKBONE|DICT|INTERRES
    75   39   40 1    
    76   39   95 1    
    77   40   41 1    
    78   40   42 1    
    79   40   96 1    
    80   41   97 1    
    81   41   98 1    
    82   41   99 1    
    83   42   43 2    
    84   42   44 am   BACKBONE|DICT|INTERRES
    85   44   45 1    
    86   44  100 1    
    87   45   46 1    
    88   45   47 1    
    89   45  101 1    
    90   46  102 1    
    91   46  103 1    
    92   46  104 1    
    93   47   48 2    
    94   47   49 am   BACKBONE|DICT|INTERRES
    95   49   50 1    
    96   49  105 1    
    97   50   51 1    
    98   50   52 1    
    99   50  106 1    
   100   51  107 1    
   101   51  108 1    
   102   51  109 1    
   103   52   53 2    
   104   52   54 am   BACKBONE|DICT|INTERRES
   105   54   55 1    
   106   54  110 1    
   107   55   56 1    
   108   55   59 1    
   109   55  111 1    
   110   56   57 am   BACKBONE|DICT|INTERRES
   111   56   58 2    
   112   57  112 1    
   113   57  113 1    
   114   59   60 1    
   115   59  114 1    
   116   59  115 1    
   117   60   61 1    
   118   61  116 1    
   119   61  117 1    
@<TRIPOS>SUBSTRUCTURE
     1 UNK         1 GROUP             0       ****    0 ROOT    
