@<TRIPOS>MOLECULE
3R8
117   119    1
SMALL
USER_CHARGES


@<TRIPOS>ATOM
      1 CA         19.2823  -27.1733  -41.8311 C.3       0 UNK        -0.2013 
      2 C          18.5507  -26.1438  -42.6751 C.2       0 UNK         0.4866 
      3 O          18.8427  -24.9523  -42.5748 O.2       0 UNK        -0.5176 
      4 N          17.5911  -26.5913  -43.4956 N.am      1 UNK        -0.4884 
      5 CA         16.7365  -25.7336  -44.3285 C.3       1 UNK         0.0853 
      6 C6         15.5122  -26.4864  -44.9145 C.3       10 UNK        -0.0849 
      7 S7         14.6030  -27.5038  -43.6984 S.3       10 UNK        -0.2776 
      8 C8         14.8153  -29.1834  -44.3798 C.3       10 UNK         0.0316 
      9 C9         16.1724  -29.7815  -44.0307 C.ar      10 UNK        -0.0863 
     10 C10        16.3015  -30.6207  -42.9186 C.ar      10 UNK        -0.1009 
     11 C11        17.5356  -31.1968  -42.6033 C.ar      10 UNK        -0.0712 
     12 C12        18.6479  -30.9139  -43.3999 C.ar      10 UNK        -0.0894 
     13 C13        18.5390  -30.0626  -44.5027 C.ar      10 UNK        -0.0745 
     14 C14        17.2930  -29.5179  -44.8263 C.ar      10 UNK        -0.0972 
     15 C15        19.7642  -29.7409  -45.3461 C.3       10 UNK         0.0209 
     16 S16        21.0540  -28.9110  -44.3627 S.3       10 UNK        -0.2568 
     17 C17        22.2866  -28.5363  -45.6552 C.3       10 UNK        -0.0983 
     18 CA         22.5626  -27.0173  -45.8595 C.3       3 UNK         0.0876 
     19 N          21.3519  -26.2259  -46.0685 N.am      3 UNK        -0.4424 
     20 C          20.6058  -26.2281  -47.1753 C.2       2 UNK         0.4918 
     21 O          20.8540  -26.9174  -48.1659 O.2       2 UNK        -0.4875 
     22 CA         19.3515  -25.3435  -47.1406 C.3       2 UNK         0.0481 
     23 CB         18.5468  -25.3942  -48.4575 C.3       2 UNK        -0.1831 
     24 N          18.5201  -25.7564  -46.0114 N.am      2 UNK        -0.4498 
     25 C          17.5167  -25.0517  -45.4721 C.2       1 UNK         0.5027 
     26 O          17.1849  -23.9263  -45.8479 O.2       1 UNK        -0.4969 
     27 C          23.4019  -26.3627  -44.7435 C.2       3 UNK         0.5005 
     28 O          23.0429  -25.2845  -44.2581 O.2       3 UNK        -0.5279 
     29 N          24.5297  -26.9991  -44.3990 N.am      4 UNK        -0.4463 
     30 CA         25.5168  -26.5438  -43.4156 C.3       4 UNK         0.0283 
     31 CB         26.7343  -27.4833  -43.4857 C.3       4 UNK        -0.1875 
     32 C          24.9811  -26.4727  -41.9727 C.2       4 UNK         0.4949 
     33 O          23.9283  -27.0358  -41.6639 O.2       4 UNK        -0.5039 
     34 N          25.7523  -25.8029  -41.1036 N.am      5 UNK        -0.4663 
     35 CA         25.5007  -25.6732  -39.6642 C.3       5 UNK         0.0242 
     36 CB         26.6238  -24.8391  -39.0271 C.3       5 UNK        -0.1982 
     37 C          25.3780  -27.0384  -38.9622 C.2       5 UNK         0.5017 
     38 O          26.1290  -27.9598  -39.2882 O.2       5 UNK        -0.5012 
     39 N          24.4124  -27.1317  -38.0372 N.am      6 UNK        -0.4439 
     40 CA         23.9396  -28.3377  -37.3379 C.3       6 UNK         0.0297 
     41 CB         25.0802  -29.0664  -36.5952 C.3       6 UNK        -0.2006 
     42 C          23.1057  -29.2998  -38.2142 C.2       6 UNK         0.4892 
     43 O          22.6194  -30.2990  -37.6826 O.2       6 UNK        -0.5089 
     44 N          22.9050  -28.9528  -39.4967 N.am      7 UNK        -0.4243 
     45 CA         22.1165  -29.6284  -40.5325 C.3       7 UNK         0.0196 
     46 CB         20.6602  -29.8406  -40.0774 C.3       7 UNK        -0.2007 
     47 C          22.7352  -30.9425  -41.0372 C.2       7 UNK         0.5020 
     48 O          23.4644  -31.6284  -40.3189 O.2       7 UNK        -0.5147 
     49 N          22.3851  -31.2975  -42.2804 N.am      8 UNK        -0.4734 
     50 CA         22.8050  -32.5369  -42.9466 C.3       8 UNK         0.0238 
     51 CB         22.4564  -32.4492  -44.4413 C.3       8 UNK        -0.1912 
     52 C          22.2057  -33.8179  -42.3337 C.2       8 UNK         0.5038 
     53 O          22.7418  -34.9002  -42.5752 O.2       8 UNK        -0.5046 
     54 N          21.1164  -33.6802  -41.5650 N.am      9 UNK        -0.4200 
     55 CA         20.4449  -34.7790  -40.8512 C.3       9 UNK         0.0839 
     56 C          21.2266  -35.3092  -39.6128 C.2       9 UNK         0.5513 
     57 N          22.2671  -34.6337  -39.1374 N.am      9 UNK        -0.7519 
     58 O          20.8809  -36.3581  -39.0754 O.2       9 UNK        -0.4960 
     59 C59        18.9801  -34.4301  -40.4673 C.3       10 UNK        -0.0876 
     60 S60        17.9865  -33.8331  -41.8808 S.3       10 UNK        -0.2414 
     61 C61        17.6834  -32.1056  -41.3924 C.3       10 UNK         0.0169 
     62 H62        18.9710  -28.1883  -42.0755 H         1 UNK         0.0903 
     63 H63        20.3575  -27.0967  -41.9927 H         1 UNK         0.0903 
     64 H64        19.0831  -27.0002  -40.7741 H         1 UNK         0.0903 
     65 H65        17.3640  -27.5775  -43.5097 H         1 UNK         0.3096 
     66 H66        16.3582  -24.9370  -43.6834 H         1 UNK         0.1121 
     67 H67        14.8043  -25.7638  -45.3256 H         1 UNK         0.0849 
     68 H68        15.8039  -27.1095  -45.7605 H         1 UNK         0.0849 
     69 H69        14.0210  -29.8180  -43.9835 H         1 UNK         0.0865 
     70 H70        14.6701  -29.1732  -45.4612 H         1 UNK         0.0865 
     71 H71        15.4383  -30.8307  -42.3014 H         1 UNK         0.1346 
     72 H72        19.6028  -31.3560  -43.1578 H         1 UNK         0.1412 
     73 H73        17.1982  -28.8871  -45.6984 H         1 UNK         0.1426 
     74 H74        19.4949  -29.1023  -46.1889 H         1 UNK         0.0716 
     75 H75        20.1634  -30.6623  -45.7710 H         1 UNK         0.0716 
     76 H76        21.9459  -28.9619  -46.6000 H         1 UNK         0.0695 
     77 H77        23.2022  -29.0813  -45.4234 H         1 UNK         0.0695 
     78 H78        23.1703  -26.9140  -46.7615 H         1 UNK         0.0983 
     79 H79        21.1367  -25.5966  -45.3049 H         1 UNK         0.3095 
     80 H80        19.6856  -24.3173  -46.9754 H         1 UNK         0.0454 
     81 H81        19.1706  -25.1151  -49.3076 H         1 UNK         0.0851 
     82 H82        17.7038  -24.7038  -48.4422 H         1 UNK         0.0851 
     83 H83        18.1571  -26.3940  -48.6518 H         1 UNK         0.0851 
     84 H84        18.7486  -26.6513  -45.6005 H         1 UNK         0.2976 
     85 H85        24.7255  -27.8870  -44.8366 H         1 UNK         0.3116 
     86 H86        25.8313  -25.5390  -43.7055 H         1 UNK         0.0646 
     87 H87        26.4712  -28.5033  -43.2016 H         1 UNK         0.0847 
     88 H88        27.1595  -27.5121  -44.4891 H         1 UNK         0.0847 
     89 H89        27.5292  -27.1571  -42.8137 H         1 UNK         0.0847 
     90 H90        26.6129  -25.3976  -41.4420 H         1 UNK         0.3040 
     91 H91        24.5583  -25.1327  -39.5512 H         1 UNK         0.1015 
     92 H92        27.5964  -25.3203  -39.1401 H         1 UNK         0.0786 
     93 H93        26.6854  -23.8462  -39.4732 H         1 UNK         0.0786 
     94 H94        26.4514  -24.7018  -37.9586 H         1 UNK         0.0786 
     95 H95        23.8675  -26.3006  -37.8482 H         1 UNK         0.3172 
     96 H96        23.2503  -27.9702  -36.5761 H         1 UNK         0.0595 
     97 H97        25.7620  -29.5668  -37.2830 H         1 UNK         0.0839 
     98 H98        24.6812  -29.8332  -35.9301 H         1 UNK         0.0839 
     99 H99        25.6620  -28.3782  -35.9823 H         1 UNK         0.0839 
    100 H100       23.3951  -28.1341  -39.8368 H         1 UNK         0.2998 
    101 H101       22.1020  -28.9337  -41.3735 H         1 UNK         0.0822 
    102 H102       20.0266  -30.0714  -40.9313 H         1 UNK         0.0787 
    103 H103       20.2528  -28.9456  -39.6078 H         1 UNK         0.0787 
    104 H104       20.5690  -30.6619  -39.3655 H         1 UNK         0.0787 
    105 H105       21.8227  -30.6582  -42.8275 H         1 UNK         0.3055 
    106 H106       23.8905  -32.6155  -42.8517 H         1 UNK         0.1106 
    107 H107       22.9092  -31.5745  -44.9078 H         1 UNK         0.0828 
    108 H108       22.8236  -33.3249  -44.9784 H         1 UNK         0.0828 
    109 H109       21.3794  -32.4009  -44.6022 H         1 UNK         0.0828 
    110 H110       20.7500  -32.7549  -41.4119 H         1 UNK         0.2931 
    111 H111       20.3942  -35.6182  -41.5480 H         1 UNK         0.0412 
    112 H112       22.7623  -34.9922  -38.3361 H         1 UNK         0.3472 
    113 H113       22.5639  -33.7682  -39.5660 H         1 UNK         0.3472 
    114 H114       18.4791  -35.3153  -40.0707 H         1 UNK         0.0970 
    115 H115       18.9608  -33.6972  -39.6588 H         1 UNK         0.0970 
    116 H116       18.5061  -31.7424  -40.7790 H         1 UNK         0.0612 
    117 H117       16.7933  -32.0673  -40.7627 H         1 UNK         0.0612 
@<TRIPOS>BOND
     1    1    2 1    
     2    1   62 1    
     3    1   63 1    
     4    1   64 1    
     5    2    3 2    
     6    2    4 am   BACKBONE|DICT|INTERRES
     7    4    5 1    
     8    4   65 1    
     9    5    6 1    
    10    5   25 1    
    11    5   66 1    
    12    6    7 1    
    13    6   67 1    
    14    6   68 1    
    15    7    8 1    
    16    8    9 1    
    17    8   69 1    
    18    8   70 1    
    19    9   10 ar   
    20    9   14 ar   
    21   10   11 ar   
    22   10   71 1    
    23   11   12 ar   
    24   11   61 1    
    25   12   13 ar   
    26   12   72 1    
    27   13   14 ar   
    28   13   15 1    
    29   14   73 1    
    30   15   16 1    
    31   15   74 1    
    32   15   75 1    
    33   16   17 1    
    34   17   18 1    
    35   17   76 1    
    36   17   77 1    
    37   18   19 1    
    38   18   27 1    
    39   18   78 1    
    40   19   20 am   BACKBONE|DICT|INTERRES
    41   19   79 1    
    42   20   21 2    
    43   20   22 1    
    44   22   23 1    
    45   22   24 1    
    46   22   80 1    
    47   23   81 1    
    48   23   82 1    
    49   23   83 1    
    50   24   25 am   BACKBONE|DICT|INTERRES
    51   24   84 1    
    52   25   26 2    
    53   27   28 2    
    54   27   29 am   BACKBONE|DICT|INTERRES
    55   29   30 1    
    56   29   85 1    
    57   30   31 1    
    58   30   32 1    
    59   30   86 1    
    60   31   87 1    
    61   31   88 1    
    62   31   89 1    
    63   32   33 2    
    64   32   34 am   BACKBONE|DICT|INTERRES
    65   34   35 1    
    66   34   90 1    
    67   35   36 1    
    68   35   37 1    
    69   35   91 1    
    70   36   92 1    
    71   36   93 1    
    72   36   94 1    
    73   37   38 2    
    74   37   39 am   BACKBONE|DICT|INTERRES
    75   39   40 1    
    76   39   95 1    
    77   40   41 1    
    78   40   42 1    
    79   40   96 1    
    80   41   97 1    
    81   41   98 1    
    82   41   99 1    
    83   42   43 2    
    84   42   44 am   BACKBONE|DICT|INTERRES
    85   44   45 1    
    86   44  100 1    
    87   45   46 1    
    88   45   47 1    
    89   45  101 1    
    90   46  102 1    
    91   46  103 1    
    92   46  104 1    
    93   47   48 2    
    94   47   49 am   BACKBONE|DICT|INTERRES
    95   49   50 1    
    96   49  105 1    
    97   50   51 1    
    98   50   52 1    
    99   50  106 1    
   100   51  107 1    
   101   51  108 1    
   102   51  109 1    
   103   52   53 2    
   104   52   54 am   BACKBONE|DICT|INTERRES
   105   54   55 1    
   106   54  110 1    
   107   55   56 1    
   108   55   59 1    
   109   55  111 1    
   110   56   57 am   BACKBONE|DICT|INTERRES
   111   56   58 2    
   112   57  112 1    
   113   57  113 1    
   114   59   60 1    
   115   59  114 1    
   116   59  115 1    
   117   60   61 1    
   118   61  116 1    
   119   61  117 1    
@<TRIPOS>SUBSTRUCTURE
     1 UNK         1 GROUP             0       ****    0 ROOT    
