@<TRIPOS>MOLECULE
3R8
117   119    1
SMALL
USER_CHARGES


@<TRIPOS>ATOM
      1 CA         13.9579  -22.8693  -47.5546 C.3       0 UNK        -0.2013 
      2 C          14.5765  -24.2586  -47.6036 C.2       0 UNK         0.4866 
      3 O          14.9910  -24.7069  -48.6735 O.2       0 UNK        -0.5176 
      4 N          14.6351  -24.9469  -46.4565 N.am      1 UNK        -0.4884 
      5 CA         15.2617  -26.2646  -46.3076 C.3       1 UNK         0.0853 
      6 C6         14.7792  -26.9667  -45.0123 C.3       10 UNK        -0.0849 
      7 S7         14.8858  -28.7836  -45.1259 S.3       10 UNK        -0.2776 
      8 C8         14.6292  -29.2621  -43.3882 C.3       10 UNK         0.0316 
      9 C9         15.9406  -29.4069  -42.6264 C.ar      10 UNK        -0.0863 
     10 C10        16.5905  -30.6446  -42.5912 C.ar      10 UNK        -0.1009 
     11 C11        17.7596  -30.8168  -41.8432 C.ar      10 UNK        -0.0712 
     12 C12        18.2794  -29.7339  -41.1270 C.ar      10 UNK        -0.0894 
     13 C13        17.6400  -28.4901  -41.1499 C.ar      10 UNK        -0.0745 
     14 C14        16.4736  -28.3316  -41.9074 C.ar      10 UNK        -0.0972 
     15 C15        18.1612  -27.3390  -40.2952 C.3       10 UNK         0.0209 
     16 S16        19.8979  -26.9053  -40.6377 S.3       10 UNK        -0.2568 
     17 C17        19.7904  -26.2630  -42.3393 C.3       10 UNK        -0.0983 
     18 CA         20.6527  -27.0928  -43.3226 C.3       3 UNK         0.0876 
     19 N          20.2004  -26.9315  -44.6982 N.am      3 UNK        -0.4424 
     20 C          19.2889  -27.7055  -45.2897 C.2       2 UNK         0.4918 
     21 O          18.7322  -28.6599  -44.7467 O.2       2 UNK        -0.4875 
     22 CA         18.9212  -27.3513  -46.7385 C.3       2 UNK         0.0481 
     23 CB         19.3862  -28.4522  -47.7055 C.3       2 UNK        -0.1831 
     24 N          17.4726  -27.1838  -46.8454 N.am      2 UNK        -0.4498 
     25 C          16.7997  -26.1447  -46.3340 C.2       1 UNK         0.5027 
     26 O          17.3439  -25.1432  -45.8586 O.2       1 UNK        -0.4969 
     27 C          22.1344  -26.6966  -43.2714 C.2       3 UNK         0.5005 
     28 O          22.5231  -25.7239  -43.9254 O.2       3 UNK        -0.5279 
     29 N          22.9234  -27.4350  -42.4870 N.am      4 UNK        -0.4463 
     30 CA         24.3419  -27.2026  -42.2407 C.3       4 UNK         0.0283 
     31 CB         25.1868  -27.5792  -43.4760 C.3       4 UNK        -0.1875 
     32 C          24.6862  -28.0441  -41.0134 C.2       4 UNK         0.4949 
     33 O          25.2058  -29.1469  -41.1674 O.2       4 UNK        -0.5039 
     34 N          24.3016  -27.5374  -39.8321 N.am      5 UNK        -0.4663 
     35 CA         24.1540  -28.2516  -38.5530 C.3       5 UNK         0.0242 
     36 CB         23.9106  -27.2285  -37.4319 C.3       5 UNK        -0.1982 
     37 C          25.2760  -29.2258  -38.1496 C.2       5 UNK         0.5017 
     38 O          24.9762  -30.2596  -37.5513 O.2       5 UNK        -0.5012 
     39 N          26.5271  -28.9178  -38.5202 N.am      6 UNK        -0.4439 
     40 CA         27.6983  -29.7882  -38.3513 C.3       6 UNK         0.0297 
     41 CB         28.9580  -29.0285  -38.7974 C.3       6 UNK        -0.2006 
     42 C          27.5966  -31.1393  -39.0925 C.2       6 UNK         0.4892 
     43 O          28.2332  -32.1044  -38.6685 O.2       6 UNK        -0.5089 
     44 N          26.7923  -31.1883  -40.1610 N.am      7 UNK        -0.4243 
     45 CA         26.4417  -32.3788  -40.9316 C.3       7 UNK         0.0196 
     46 CB         27.1629  -32.3264  -42.2915 C.3       7 UNK        -0.2007 
     47 C          24.9110  -32.4778  -41.0799 C.2       7 UNK         0.5020 
     48 O          24.4296  -32.9580  -42.1080 O.2       7 UNK        -0.5147 
     49 N          24.1713  -32.0126  -40.0590 N.am      8 UNK        -0.4734 
     50 CA         22.7075  -31.9502  -39.9653 C.3       8 UNK         0.0238 
     51 CB         22.1125  -33.3672  -39.8009 C.3       8 UNK        -0.1912 
     52 C          22.0790  -31.1431  -41.1182 C.2       8 UNK         0.5038 
     53 O          22.0407  -29.9133  -41.0454 O.2       8 UNK        -0.5046 
     54 N          21.5903  -31.8403  -42.1515 N.am      9 UNK        -0.4200 
     55 CA         21.0344  -31.2270  -43.3644 C.3       9 UNK         0.0839 
     56 C          22.1324  -30.6421  -44.3055 C.2       9 UNK         0.5513 
     57 N          23.4044  -30.9892  -44.1433 N.am      9 UNK        -0.7519 
     58 O          21.8258  -29.8649  -45.2033 O.2       9 UNK        -0.4960 
     59 C59        20.1152  -32.1939  -44.1577 C.3       10 UNK        -0.0876 
     60 S60        18.7241  -33.0345  -43.3053 S.3       10 UNK        -0.2414 
     61 C61        18.4035  -32.1919  -41.7153 C.3       10 UNK         0.0169 
     62 H62        13.0899  -22.8216  -48.2121 H         1 UNK         0.0903 
     63 H63        13.6363  -22.6004  -46.5481 H         1 UNK         0.0903 
     64 H64        14.6808  -22.1254  -47.8893 H         1 UNK         0.0903 
     65 H65        14.3144  -24.5132  -45.6022 H         1 UNK         0.3096 
     66 H66        14.9506  -26.8640  -47.1671 H         1 UNK         0.1121 
     67 H67        15.3278  -26.6114  -44.1376 H         1 UNK         0.0849 
     68 H68        13.7306  -26.7284  -44.8249 H         1 UNK         0.0849 
     69 H69        13.9764  -28.5421  -42.8921 H         1 UNK         0.0865 
     70 H70        14.0904  -30.2107  -43.3679 H         1 UNK         0.0865 
     71 H71        16.1719  -31.4848  -43.1281 H         1 UNK         0.1346 
     72 H72        19.1696  -29.8616  -40.5262 H         1 UNK         0.1412 
     73 H73        15.9627  -27.3790  -41.9136 H         1 UNK         0.1426 
     74 H74        18.0757  -27.6211  -39.2450 H         1 UNK         0.0716 
     75 H75        17.5452  -26.4473  -40.4218 H         1 UNK         0.0716 
     76 H76        18.7450  -26.2864  -42.6518 H         1 UNK         0.0695 
     77 H77        20.0734  -25.2086  -42.3461 H         1 UNK         0.0695 
     78 H78        20.5769  -28.1482  -43.0570 H         1 UNK         0.0983 
     79 H79        20.6611  -26.1910  -45.2110 H         1 UNK         0.3095 
     80 H80        19.4074  -26.4154  -47.0229 H         1 UNK         0.0454 
     81 H81        18.9238  -29.4133  -47.4763 H         1 UNK         0.0851 
     82 H82        19.1497  -28.2014  -48.7395 H         1 UNK         0.0851 
     83 H83        20.4665  -28.5914  -47.6424 H         1 UNK         0.0851 
     84 H84        16.9505  -27.9943  -47.1472 H         1 UNK         0.2976 
     85 H85        22.5257  -28.2173  -41.9677 H         1 UNK         0.3116 
     86 H86        24.5057  -26.1496  -42.0025 H         1 UNK         0.0646 
     87 H87        26.2517  -27.4794  -43.2634 H         1 UNK         0.0847 
     88 H88        24.9655  -26.9343  -44.3261 H         1 UNK         0.0847 
     89 H89        25.0112  -28.6098  -43.7851 H         1 UNK         0.0847 
     90 H90        23.8893  -26.6152  -39.8507 H         1 UNK         0.3040 
     91 H91        23.2498  -28.8559  -38.6532 H         1 UNK         0.1015 
     92 H92        23.0127  -26.6390  -37.6194 H         1 UNK         0.0786 
     93 H93        24.7500  -26.5401  -37.3260 H         1 UNK         0.0786 
     94 H94        23.7718  -27.7247  -36.4699 H         1 UNK         0.0786 
     95 H95        26.6653  -28.0586  -39.0325 H         1 UNK         0.3172 
     96 H96        27.7911  -30.0090  -37.2860 H         1 UNK         0.0595 
     97 H97        29.0985  -28.1150  -38.2191 H         1 UNK         0.0839 
     98 H98        28.9127  -28.7569  -39.8530 H         1 UNK         0.0839 
     99 H99        29.8517  -29.6384  -38.6569 H         1 UNK         0.0839 
    100 H100       26.2904  -30.3432  -40.4391 H         1 UNK         0.2998 
    101 H101       26.7612  -33.2788  -40.4025 H         1 UNK         0.0822 
    102 H102       28.2432  -32.2560  -42.1639 H         1 UNK         0.0787 
    103 H103       26.9645  -33.2243  -42.8781 H         1 UNK         0.0787 
    104 H104       26.8375  -31.4687  -42.8819 H         1 UNK         0.0787 
    105 H105       24.6666  -31.6039  -39.2747 H         1 UNK         0.3055 
    106 H106       22.4812  -31.3944  -39.0536 H         1 UNK         0.1106 
    107 H107       22.3643  -34.0273  -40.6314 H         1 UNK         0.0828 
    108 H108       22.4799  -33.8381  -38.8891 H         1 UNK         0.0828 
    109 H109       21.0251  -33.3319  -39.7234 H         1 UNK         0.0828 
    110 H110       21.7055  -32.8426  -42.1626 H         1 UNK         0.2931 
    111 H111       20.4120  -30.3888  -43.0524 H         1 UNK         0.0412 
    112 H112       24.0991  -30.6110  -44.7658 H         1 UNK         0.3472 
    113 H113       23.6764  -31.6430  -43.4166 H         1 UNK         0.3472 
    114 H114       20.7206  -32.9791  -44.6148 H         1 UNK         0.0970 
    115 H115       19.6698  -31.6494  -44.9934 H         1 UNK         0.0970 
    116 H116       17.7087  -32.8196  -41.1562 H         1 UNK         0.0612 
    117 H117       19.3004  -32.1579  -41.1028 H         1 UNK         0.0612 
@<TRIPOS>BOND
     1    1    2 1    
     2    1   62 1    
     3    1   63 1    
     4    1   64 1    
     5    2    3 2    
     6    2    4 am   BACKBONE|DICT|INTERRES
     7    4    5 1    
     8    4   65 1    
     9    5    6 1    
    10    5   25 1    
    11    5   66 1    
    12    6    7 1    
    13    6   67 1    
    14    6   68 1    
    15    7    8 1    
    16    8    9 1    
    17    8   69 1    
    18    8   70 1    
    19    9   10 ar   
    20    9   14 ar   
    21   10   11 ar   
    22   10   71 1    
    23   11   12 ar   
    24   11   61 1    
    25   12   13 ar   
    26   12   72 1    
    27   13   14 ar   
    28   13   15 1    
    29   14   73 1    
    30   15   16 1    
    31   15   74 1    
    32   15   75 1    
    33   16   17 1    
    34   17   18 1    
    35   17   76 1    
    36   17   77 1    
    37   18   19 1    
    38   18   27 1    
    39   18   78 1    
    40   19   20 am   BACKBONE|DICT|INTERRES
    41   19   79 1    
    42   20   21 2    
    43   20   22 1    
    44   22   23 1    
    45   22   24 1    
    46   22   80 1    
    47   23   81 1    
    48   23   82 1    
    49   23   83 1    
    50   24   25 am   BACKBONE|DICT|INTERRES
    51   24   84 1    
    52   25   26 2    
    53   27   28 2    
    54   27   29 am   BACKBONE|DICT|INTERRES
    55   29   30 1    
    56   29   85 1    
    57   30   31 1    
    58   30   32 1    
    59   30   86 1    
    60   31   87 1    
    61   31   88 1    
    62   31   89 1    
    63   32   33 2    
    64   32   34 am   BACKBONE|DICT|INTERRES
    65   34   35 1    
    66   34   90 1    
    67   35   36 1    
    68   35   37 1    
    69   35   91 1    
    70   36   92 1    
    71   36   93 1    
    72   36   94 1    
    73   37   38 2    
    74   37   39 am   BACKBONE|DICT|INTERRES
    75   39   40 1    
    76   39   95 1    
    77   40   41 1    
    78   40   42 1    
    79   40   96 1    
    80   41   97 1    
    81   41   98 1    
    82   41   99 1    
    83   42   43 2    
    84   42   44 am   BACKBONE|DICT|INTERRES
    85   44   45 1    
    86   44  100 1    
    87   45   46 1    
    88   45   47 1    
    89   45  101 1    
    90   46  102 1    
    91   46  103 1    
    92   46  104 1    
    93   47   48 2    
    94   47   49 am   BACKBONE|DICT|INTERRES
    95   49   50 1    
    96   49  105 1    
    97   50   51 1    
    98   50   52 1    
    99   50  106 1    
   100   51  107 1    
   101   51  108 1    
   102   51  109 1    
   103   52   53 2    
   104   52   54 am   BACKBONE|DICT|INTERRES
   105   54   55 1    
   106   54  110 1    
   107   55   56 1    
   108   55   59 1    
   109   55  111 1    
   110   56   57 am   BACKBONE|DICT|INTERRES
   111   56   58 2    
   112   57  112 1    
   113   57  113 1    
   114   59   60 1    
   115   59  114 1    
   116   59  115 1    
   117   60   61 1    
   118   61  116 1    
   119   61  117 1    
@<TRIPOS>SUBSTRUCTURE
     1 UNK         1 GROUP             0       ****    0 ROOT    
