@<TRIPOS>MOLECULE
3R8
117   119    1
SMALL
USER_CHARGES


@<TRIPOS>ATOM
      1 CA         13.8553  -27.7063  -42.7771 C.3       0 UNK        -0.2013 
      2 C          14.8061  -28.7630  -43.3315 C.2       0 UNK         0.4866 
      3 O          14.7390  -29.9166  -42.9144 O.2       0 UNK        -0.5176 
      4 N          15.7046  -28.4284  -44.2674 N.am      1 UNK        -0.4884 
      5 CA         15.9035  -27.1068  -44.8795 C.3       1 UNK         0.0853 
      6 C6         16.5323  -27.2122  -46.2895 C.3       10 UNK        -0.0849 
      7 S7         15.6561  -28.3207  -47.4583 S.3       10 UNK        -0.2776 
      8 C8         16.1942  -30.0324  -47.0611 C.3       10 UNK         0.0316 
      9 C9         17.5885  -30.1468  -46.4527 C.ar      10 UNK        -0.0863 
     10 C10        17.7723  -30.8086  -45.2337 C.ar      10 UNK        -0.1009 
     11 C11        19.0358  -30.8650  -44.6371 C.ar      10 UNK        -0.0712 
     12 C12        20.1206  -30.2509  -45.2675 C.ar      10 UNK        -0.0894 
     13 C13        19.9469  -29.5781  -46.4815 C.ar      10 UNK        -0.0745 
     14 C14        18.6908  -29.5724  -47.0912 C.ar      10 UNK        -0.0972 
     15 C15        21.0909  -28.8079  -47.1212 C.3       10 UNK         0.0209 
     16 S16        21.1102  -27.0752  -46.5445 S.3       10 UNK        -0.2568 
     17 C17        22.0778  -27.2447  -45.0126 C.3       10 UNK        -0.0983 
     18 CA         21.6665  -26.2895  -43.8623 C.3       3 UNK         0.0876 
     19 N          20.2703  -26.4566  -43.4374 N.am      3 UNK        -0.4424 
     20 C          19.6299  -25.6081  -42.6166 C.2       2 UNK         0.4918 
     21 O          20.0718  -24.4977  -42.3149 O.2       2 UNK        -0.4875 
     22 CA         18.3032  -26.0978  -41.9998 C.3       2 UNK         0.0481 
     23 CB         17.5584  -25.0019  -41.2063 C.3       2 UNK        -0.1831 
     24 N          17.4188  -26.7534  -42.9675 N.am      2 UNK        -0.4498 
     25 C          16.7814  -26.1848  -44.0037 C.2       1 UNK         0.5027 
     26 O          16.8621  -24.9901  -44.2897 O.2       1 UNK        -0.4969 
     27 C          22.5798  -26.5361  -42.6428 C.2       3 UNK         0.5005 
     28 O          22.8458  -27.6955  -42.3243 O.2       3 UNK        -0.5279 
     29 N          23.0192  -25.4645  -41.9686 N.am      4 UNK        -0.4463 
     30 CA         23.7413  -25.5087  -40.6886 C.3       4 UNK         0.0283 
     31 CB         24.0262  -24.0726  -40.2203 C.3       4 UNK        -0.1875 
     32 C          25.0403  -26.3377  -40.6852 C.2       4 UNK         0.4949 
     33 O          25.4120  -26.8673  -39.6377 O.2       4 UNK        -0.5039 
     34 N          25.7021  -26.4318  -41.8451 N.am      5 UNK        -0.4663 
     35 CA         26.9388  -27.1904  -42.0408 C.3       5 UNK         0.0242 
     36 CB         27.7541  -26.5117  -43.1553 C.3       5 UNK        -0.1982 
     37 C          26.7123  -28.6783  -42.3732 C.2       5 UNK         0.5017 
     38 O          27.6888  -29.4302  -42.3839 O.2       5 UNK        -0.5012 
     39 N          25.4698  -29.0831  -42.6737 N.am      6 UNK        -0.4439 
     40 CA         25.1253  -30.4564  -43.0505 C.3       6 UNK         0.0297 
     41 CB         23.8766  -30.4311  -43.9461 C.3       6 UNK        -0.2006 
     42 C          24.8810  -31.3405  -41.8178 C.2       6 UNK         0.4892 
     43 O          24.6876  -30.8329  -40.7103 O.2       6 UNK        -0.5089 
     44 N          24.8542  -32.6607  -42.0448 N.am      7 UNK        -0.4243 
     45 CA         24.4812  -33.6652  -41.0465 C.3       7 UNK         0.0196 
     46 CB         24.6916  -35.0706  -41.6319 C.3       7 UNK        -0.2007 
     47 C          23.0235  -33.4802  -40.5929 C.2       7 UNK         0.5020 
     48 O          22.1519  -33.2468  -41.4338 O.2       7 UNK        -0.5147 
     49 N          22.7982  -33.5637  -39.2752 N.am      8 UNK        -0.4734 
     50 CA         21.5411  -33.3439  -38.5409 C.3       8 UNK         0.0238 
     51 CB         20.4410  -34.3307  -38.9813 C.3       8 UNK        -0.1912 
     52 C          21.0276  -31.8908  -38.5701 C.2       8 UNK         0.5038 
     53 O          20.6540  -31.3707  -37.5178 O.2       8 UNK        -0.5046 
     54 N          21.0120  -31.2688  -39.7535 N.am      9 UNK        -0.4200 
     55 CA         20.5763  -29.8837  -39.9770 C.3       9 UNK         0.0839 
     56 C          21.5558  -28.7995  -39.4453 C.2       9 UNK         0.5513 
     57 N          22.8416  -29.0794  -39.2750 N.am      9 UNK        -0.7519 
     58 O          21.1263  -27.6844  -39.1613 O.2       9 UNK        -0.4960 
     59 C59        20.2031  -29.6372  -41.4607 C.3       10 UNK        -0.0876 
     60 S60        18.6760  -30.5261  -41.9196 S.3       10 UNK        -0.2414 
     61 C61        19.2158  -31.5766  -43.3042 C.3       10 UNK         0.0169 
     62 H62        13.2561  -28.1213  -41.9668 H         1 UNK         0.0903 
     63 H63        13.1705  -27.3597  -43.5504 H         1 UNK         0.0903 
     64 H64        14.3999  -26.8519  -42.3773 H         1 UNK         0.0903 
     65 H65        16.3170  -29.1489  -44.6244 H         1 UNK         0.3096 
     66 H66        14.9342  -26.6174  -44.9916 H         1 UNK         0.1121 
     67 H67        16.5273  -26.2243  -46.7548 H         1 UNK         0.0849 
     68 H68        17.5871  -27.4699  -46.2225 H         1 UNK         0.0849 
     69 H69        15.4513  -30.4718  -46.3934 H         1 UNK         0.0865 
     70 H70        16.1607  -30.6281  -47.9743 H         1 UNK         0.0865 
     71 H71        16.9312  -31.2718  -44.7341 H         1 UNK         0.1346 
     72 H72        21.0931  -30.2854  -44.8013 H         1 UNK         0.1412 
     73 H73        18.5519  -29.0507  -48.0288 H         1 UNK         0.1426 
     74 H74        20.9804  -28.8150  -48.2067 H         1 UNK         0.0716 
     75 H75        22.0477  -29.2888  -46.9113 H         1 UNK         0.0716 
     76 H76        22.0096  -28.2766  -44.6763 H         1 UNK         0.0695 
     77 H77        23.1258  -27.0872  -45.2755 H         1 UNK         0.0695 
     78 H78        21.8057  -25.2632  -44.2091 H         1 UNK         0.0983 
     79 H79        19.8373  -27.3367  -43.6723 H         1 UNK         0.3095 
     80 H80        18.5741  -26.8675  -41.2771 H         1 UNK         0.0454 
     81 H81        17.3074  -24.1431  -41.8292 H         1 UNK         0.0851 
     82 H82        16.6351  -25.3835  -40.7709 H         1 UNK         0.0851 
     83 H83        18.1734  -24.6329  -40.3845 H         1 UNK         0.0851 
     84 H84        17.2814  -27.7467  -42.8360 H         1 UNK         0.2976 
     85 H85        22.7162  -24.5512  -42.2785 H         1 UNK         0.3116 
     86 H86        23.0701  -25.9704  -39.9626 H         1 UNK         0.0646 
     87 H87        24.5370  -24.0700  -39.2562 H         1 UNK         0.0847 
     88 H88        23.1043  -23.5042  -40.0955 H         1 UNK         0.0847 
     89 H89        24.6612  -23.5361  -40.9263 H         1 UNK         0.0847 
     90 H90        25.3165  -25.9662  -42.6538 H         1 UNK         0.3040 
     91 H91        27.5283  -27.1556  -41.1215 H         1 UNK         0.1015 
     92 H92        27.9778  -25.4737  -42.9077 H         1 UNK         0.0786 
     93 H93        27.2241  -26.5241  -44.1086 H         1 UNK         0.0786 
     94 H94        28.7086  -27.0179  -43.3070 H         1 UNK         0.0786 
     95 H95        24.6903  -28.4466  -42.5317 H         1 UNK         0.3172 
     96 H96        25.9478  -30.8871  -43.6257 H         1 UNK         0.0595 
     97 H97        23.0040  -30.0859  -43.3939 H         1 UNK         0.0839 
     98 H98        23.6426  -31.4246  -44.3303 H         1 UNK         0.0839 
     99 H99        24.0165  -29.7770  -44.8067 H         1 UNK         0.0839 
    100 H100       24.9907  -32.9934  -42.9880 H         1 UNK         0.2998 
    101 H101       25.1432  -33.5422  -40.1866 H         1 UNK         0.0822 
    102 H102       24.0631  -35.2411  -42.5073 H         1 UNK         0.0787 
    103 H103       25.7294  -35.2281  -41.9264 H         1 UNK         0.0787 
    104 H104       24.4434  -35.8394  -40.8987 H         1 UNK         0.0787 
    105 H105       23.6000  -33.7348  -38.6829 H         1 UNK         0.3055 
    106 H106       21.7709  -33.5642  -37.4967 H         1 UNK         0.1106 
    107 H107       20.1225  -34.1603  -40.0101 H         1 UNK         0.0828 
    108 H108       20.7793  -35.3637  -38.9015 H         1 UNK         0.0828 
    109 H109       19.5563  -34.2301  -38.3513 H         1 UNK         0.0828 
    110 H110       21.3415  -31.7895  -40.5611 H         1 UNK         0.2931 
    111 H111       19.6631  -29.7471  -39.3933 H         1 UNK         0.0412 
    112 H112       23.2414  -29.9458  -39.6161 H         1 UNK         0.3472 
    113 H113       23.4596  -28.3553  -38.9448 H         1 UNK         0.3472 
    114 H114       20.0317  -28.5784  -41.6419 H         1 UNK         0.0970 
    115 H115       21.0285  -29.9182  -42.1150 H         1 UNK         0.0970 
    116 H116       20.2500  -31.8939  -43.1606 H         1 UNK         0.0612 
    117 H117       18.6179  -32.4891  -43.3003 H         1 UNK         0.0612 
@<TRIPOS>BOND
     1    1    2 1    
     2    1   62 1    
     3    1   63 1    
     4    1   64 1    
     5    2    3 2    
     6    2    4 am   BACKBONE|DICT|INTERRES
     7    4    5 1    
     8    4   65 1    
     9    5    6 1    
    10    5   25 1    
    11    5   66 1    
    12    6    7 1    
    13    6   67 1    
    14    6   68 1    
    15    7    8 1    
    16    8    9 1    
    17    8   69 1    
    18    8   70 1    
    19    9   10 ar   
    20    9   14 ar   
    21   10   11 ar   
    22   10   71 1    
    23   11   12 ar   
    24   11   61 1    
    25   12   13 ar   
    26   12   72 1    
    27   13   14 ar   
    28   13   15 1    
    29   14   73 1    
    30   15   16 1    
    31   15   74 1    
    32   15   75 1    
    33   16   17 1    
    34   17   18 1    
    35   17   76 1    
    36   17   77 1    
    37   18   19 1    
    38   18   27 1    
    39   18   78 1    
    40   19   20 am   BACKBONE|DICT|INTERRES
    41   19   79 1    
    42   20   21 2    
    43   20   22 1    
    44   22   23 1    
    45   22   24 1    
    46   22   80 1    
    47   23   81 1    
    48   23   82 1    
    49   23   83 1    
    50   24   25 am   BACKBONE|DICT|INTERRES
    51   24   84 1    
    52   25   26 2    
    53   27   28 2    
    54   27   29 am   BACKBONE|DICT|INTERRES
    55   29   30 1    
    56   29   85 1    
    57   30   31 1    
    58   30   32 1    
    59   30   86 1    
    60   31   87 1    
    61   31   88 1    
    62   31   89 1    
    63   32   33 2    
    64   32   34 am   BACKBONE|DICT|INTERRES
    65   34   35 1    
    66   34   90 1    
    67   35   36 1    
    68   35   37 1    
    69   35   91 1    
    70   36   92 1    
    71   36   93 1    
    72   36   94 1    
    73   37   38 2    
    74   37   39 am   BACKBONE|DICT|INTERRES
    75   39   40 1    
    76   39   95 1    
    77   40   41 1    
    78   40   42 1    
    79   40   96 1    
    80   41   97 1    
    81   41   98 1    
    82   41   99 1    
    83   42   43 2    
    84   42   44 am   BACKBONE|DICT|INTERRES
    85   44   45 1    
    86   44  100 1    
    87   45   46 1    
    88   45   47 1    
    89   45  101 1    
    90   46  102 1    
    91   46  103 1    
    92   46  104 1    
    93   47   48 2    
    94   47   49 am   BACKBONE|DICT|INTERRES
    95   49   50 1    
    96   49  105 1    
    97   50   51 1    
    98   50   52 1    
    99   50  106 1    
   100   51  107 1    
   101   51  108 1    
   102   51  109 1    
   103   52   53 2    
   104   52   54 am   BACKBONE|DICT|INTERRES
   105   54   55 1    
   106   54  110 1    
   107   55   56 1    
   108   55   59 1    
   109   55  111 1    
   110   56   57 am   BACKBONE|DICT|INTERRES
   111   56   58 2    
   112   57  112 1    
   113   57  113 1    
   114   59   60 1    
   115   59  114 1    
   116   59  115 1    
   117   60   61 1    
   118   61  116 1    
   119   61  117 1    
@<TRIPOS>SUBSTRUCTURE
     1 UNK         1 GROUP             0       ****    0 ROOT    
