@<TRIPOS>MOLECULE
3R8
117   119    1
SMALL
USER_CHARGES


@<TRIPOS>ATOM
      1 CA         16.8546  -24.5758  -41.2918 C.3       0 UNK        -0.2013 
      2 C          15.8705  -24.5884  -42.4589 C.2       0 UNK         0.4866 
      3 O          15.0075  -23.7143  -42.5155 O.2       0 UNK        -0.5176 
      4 N          15.9281  -25.5363  -43.4063 N.am      1 UNK        -0.4884 
      5 CA         16.8963  -26.6277  -43.5923 C.3       1 UNK         0.0853 
      6 C6         16.9622  -27.6698  -42.4354 C.3       10 UNK        -0.0849 
      7 S7         15.3309  -28.2999  -41.9096 S.3       10 UNK        -0.2776 
      8 C8         14.7665  -29.2345  -43.3715 C.3       10 UNK         0.0316 
      9 C9         15.7331  -30.3412  -43.7688 C.ar      10 UNK        -0.0863 
     10 C10        15.9293  -31.4352  -42.9234 C.ar      10 UNK        -0.1009 
     11 C11        16.8085  -32.4603  -43.2798 C.ar      10 UNK        -0.0712 
     12 C12        17.4873  -32.3927  -44.5018 C.ar      10 UNK        -0.0894 
     13 C13        17.3123  -31.2953  -45.3522 C.ar      10 UNK        -0.0745 
     14 C14        16.4237  -30.2791  -44.9830 C.ar      10 UNK        -0.0972 
     15 C15        18.0423  -31.2309  -46.6900 C.3       10 UNK         0.0209 
     16 S16        18.9554  -29.6698  -46.9323 S.3       10 UNK        -0.2568 
     17 C17        20.6061  -30.0772  -46.2741 C.3       10 UNK        -0.0983 
     18 CA         21.4714  -28.8030  -46.1161 C.3       3 UNK         0.0876 
     19 N          20.9739  -27.9485  -45.0347 N.am      3 UNK        -0.4424 
     20 C          21.2587  -26.6500  -44.8763 C.2       2 UNK         0.4918 
     21 O          21.9079  -25.9831  -45.6834 O.2       2 UNK        -0.4875 
     22 CA         20.7335  -26.0155  -43.5758 C.3       2 UNK         0.0481 
     23 CB         20.9375  -24.4868  -43.5100 C.3       2 UNK        -0.1831 
     24 N          19.3392  -26.3897  -43.3079 N.am      2 UNK        -0.4498 
     25 C          18.2615  -26.0662  -44.0406 C.2       1 UNK         0.5027 
     26 O          18.3007  -25.3480  -45.0414 O.2       1 UNK        -0.4969 
     27 C          22.9726  -29.1258  -45.9347 C.2       3 UNK         0.5005 
     28 O          23.6557  -29.3973  -46.9236 O.2       3 UNK        -0.5279 
     29 N          23.4739  -29.0194  -44.6976 N.am      4 UNK        -0.4463 
     30 CA         24.8839  -28.8876  -44.3504 C.3       4 UNK         0.0283 
     31 CB         25.5386  -30.2648  -44.1530 C.3       4 UNK        -0.1875 
     32 C          24.9549  -28.0478  -43.0706 C.2       4 UNK         0.4949 
     33 O          23.9936  -28.0364  -42.2944 O.2       4 UNK        -0.5039 
     34 N          26.0872  -27.3640  -42.8702 N.am      5 UNK        -0.4663 
     35 CA         26.3589  -26.5427  -41.6879 C.3       5 UNK         0.0242 
     36 CB         27.6472  -25.7362  -41.9170 C.3       5 UNK        -0.1982 
     37 C          26.4801  -27.3997  -40.4173 C.2       5 UNK         0.5017 
     38 O          27.0365  -28.4990  -40.4788 O.2       5 UNK        -0.5012 
     39 N          25.9535  -26.8822  -39.2983 N.am      6 UNK        -0.4439 
     40 CA         25.8892  -27.4700  -37.9491 C.3       6 UNK         0.0297 
     41 CB         27.2957  -27.7358  -37.3773 C.3       6 UNK        -0.2006 
     42 C          24.9971  -28.7216  -37.8282 C.2       6 UNK         0.4892 
     43 O          24.2299  -28.8190  -36.8701 O.2       6 UNK        -0.5089 
     44 N          25.0992  -29.6443  -38.7920 N.am      7 UNK        -0.4243 
     45 CA         24.3076  -30.8726  -38.8835 C.3       7 UNK         0.0196 
     46 CB         24.9727  -31.8197  -39.8954 C.3       7 UNK        -0.2007 
     47 C          22.8393  -30.6290  -39.2711 C.2       7 UNK         0.5020 
     48 O          21.9959  -31.4724  -38.9661 O.2       7 UNK        -0.5147 
     49 N          22.5648  -29.5126  -39.9636 N.am      8 UNK        -0.4734 
     50 CA         21.2760  -29.0412  -40.4945 C.3       8 UNK         0.0238 
     51 CB         20.2207  -28.8565  -39.3871 C.3       8 UNK        -0.1912 
     52 C          20.7287  -29.8884  -41.6540 C.2       8 UNK         0.5038 
     53 O          20.3401  -29.3165  -42.6729 O.2       8 UNK        -0.5046 
     54 N          20.7344  -31.2154  -41.4948 N.am      9 UNK        -0.4200 
     55 CA         20.3918  -32.1939  -42.5362 C.3       9 UNK         0.0839 
     56 C          21.5572  -32.5160  -43.5118 C.2       9 UNK         0.5513 
     57 N          22.7743  -32.0506  -43.2693 N.am      9 UNK        -0.7519 
     58 O          21.3479  -33.1923  -44.5149 O.2       9 UNK        -0.4960 
     59 C59        19.8055  -33.4999  -41.9410 C.3       10 UNK        -0.0876 
     60 S60        18.2403  -33.2407  -41.0424 S.3       10 UNK        -0.2414 
     61 C61        17.0156  -33.6331  -42.3332 C.3       10 UNK         0.0169 
     62 H62        16.5890  -25.3413  -40.5637 H         1 UNK         0.0903 
     63 H63        17.8830  -24.7261  -41.6110 H         1 UNK         0.0903 
     64 H64        16.8173  -23.6138  -40.7810 H         1 UNK         0.0903 
     65 H65        15.2532  -25.4672  -44.1551 H         1 UNK         0.3096 
     66 H66        16.5412  -27.1678  -44.4706 H         1 UNK         0.1121 
     67 H67        17.4463  -27.2578  -41.5505 H         1 UNK         0.0849 
     68 H68        17.5737  -28.5251  -42.7311 H         1 UNK         0.0849 
     69 H69        13.7949  -29.6775  -43.1480 H         1 UNK         0.0865 
     70 H70        14.5958  -28.5455  -44.1996 H         1 UNK         0.0865 
     71 H71        15.4035  -31.4826  -41.9793 H         1 UNK         0.1346 
     72 H72        18.1650  -33.1879  -44.7818 H         1 UNK         0.1412 
     73 H73        16.2720  -29.4399  -45.6479 H         1 UNK         0.1426 
     74 H74        18.7270  -32.0725  -46.8072 H         1 UNK         0.0716 
     75 H75        17.3036  -31.3251  -47.4868 H         1 UNK         0.0716 
     76 H76        20.4904  -30.5862  -45.3177 H         1 UNK         0.0695 
     77 H77        21.0737  -30.7892  -46.9570 H         1 UNK         0.0695 
     78 H78        21.4025  -28.2335  -47.0459 H         1 UNK         0.0983 
     79 H79        20.4785  -28.4272  -44.2854 H         1 UNK         0.3095 
     80 H80        21.3250  -26.4522  -42.7701 H         1 UNK         0.0454 
     81 H81        20.4367  -23.9704  -44.3291 H         1 UNK         0.0851 
     82 H82        20.5617  -24.0756  -42.5734 H         1 UNK         0.0851 
     83 H83        21.9968  -24.2349  -43.5716 H         1 UNK         0.0851 
     84 H84        19.2114  -27.0262  -42.5339 H         1 UNK         0.2976 
     85 H85        22.8494  -28.7790  -43.9370 H         1 UNK         0.3116 
     86 H86        25.3976  -28.3500  -45.1505 H         1 UNK         0.0646 
     87 H87        25.1573  -30.7708  -43.2674 H         1 UNK         0.0847 
     88 H88        25.3768  -30.9133  -45.0140 H         1 UNK         0.0847 
     89 H89        26.6164  -30.1641  -44.0217 H         1 UNK         0.0847 
     90 H90        26.8398  -27.4588  -43.5369 H         1 UNK         0.3040 
     91 H91        25.5264  -25.8455  -41.5674 H         1 UNK         0.1015 
     92 H92        28.5109  -26.3874  -42.0595 H         1 UNK         0.0786 
     93 H93        27.8629  -25.0923  -41.0632 H         1 UNK         0.0786 
     94 H94        27.5632  -25.0923  -42.7928 H         1 UNK         0.0786 
     95 H95        25.5052  -25.9790  -39.3768 H         1 UNK         0.3172 
     96 H96        25.4285  -26.7033  -37.3238 H         1 UNK         0.0595 
     97 H97        27.2359  -28.0701  -36.3407 H         1 UNK         0.0839 
     98 H98        27.9067  -26.8333  -37.3910 H         1 UNK         0.0839 
     99 H99        27.8268  -28.5086  -37.9338 H         1 UNK         0.0839 
    100 H100       25.7830  -29.4706  -39.5255 H         1 UNK         0.2998 
    101 H101       24.3116  -31.3554  -37.9039 H         1 UNK         0.0822 
    102 H102       24.4111  -32.7502  -39.9917 H         1 UNK         0.0787 
    103 H103       25.0356  -31.3702  -40.8867 H         1 UNK         0.0787 
    104 H104       25.9836  -32.0838  -39.5842 H         1 UNK         0.0787 
    105 H105       23.3538  -28.9344  -40.2267 H         1 UNK         0.3055 
    106 H106       21.4840  -28.0537  -40.9091 H         1 UNK         0.1106 
    107 H107       20.5873  -28.2018  -38.5966 H         1 UNK         0.0828 
    108 H108       19.3121  -28.4050  -39.7876 H         1 UNK         0.0828 
    109 H109       19.9330  -29.8040  -38.9309 H         1 UNK         0.0828 
    110 H110       21.0700  -31.5812  -40.6083 H         1 UNK         0.2931 
    111 H111       19.6237  -31.7360  -43.1561 H         1 UNK         0.0412 
    112 H112       23.5161  -32.2697  -43.9139 H         1 UNK         0.3472 
    113 H113       22.9527  -31.4912  -42.4530 H         1 UNK         0.3472 
    114 H114       19.6375  -34.2448  -42.7211 H         1 UNK         0.0970 
    115 H115       20.5218  -33.9519  -41.2526 H         1 UNK         0.0970 
    116 H116       17.3146  -34.5279  -42.8810 H         1 UNK         0.0612 
    117 H117       16.0693  -33.8795  -41.8494 H         1 UNK         0.0612 
@<TRIPOS>BOND
     1    1    2 1    
     2    1   62 1    
     3    1   63 1    
     4    1   64 1    
     5    2    3 2    
     6    2    4 am   BACKBONE|DICT|INTERRES
     7    4    5 1    
     8    4   65 1    
     9    5    6 1    
    10    5   25 1    
    11    5   66 1    
    12    6    7 1    
    13    6   67 1    
    14    6   68 1    
    15    7    8 1    
    16    8    9 1    
    17    8   69 1    
    18    8   70 1    
    19    9   10 ar   
    20    9   14 ar   
    21   10   11 ar   
    22   10   71 1    
    23   11   12 ar   
    24   11   61 1    
    25   12   13 ar   
    26   12   72 1    
    27   13   14 ar   
    28   13   15 1    
    29   14   73 1    
    30   15   16 1    
    31   15   74 1    
    32   15   75 1    
    33   16   17 1    
    34   17   18 1    
    35   17   76 1    
    36   17   77 1    
    37   18   19 1    
    38   18   27 1    
    39   18   78 1    
    40   19   20 am   BACKBONE|DICT|INTERRES
    41   19   79 1    
    42   20   21 2    
    43   20   22 1    
    44   22   23 1    
    45   22   24 1    
    46   22   80 1    
    47   23   81 1    
    48   23   82 1    
    49   23   83 1    
    50   24   25 am   BACKBONE|DICT|INTERRES
    51   24   84 1    
    52   25   26 2    
    53   27   28 2    
    54   27   29 am   BACKBONE|DICT|INTERRES
    55   29   30 1    
    56   29   85 1    
    57   30   31 1    
    58   30   32 1    
    59   30   86 1    
    60   31   87 1    
    61   31   88 1    
    62   31   89 1    
    63   32   33 2    
    64   32   34 am   BACKBONE|DICT|INTERRES
    65   34   35 1    
    66   34   90 1    
    67   35   36 1    
    68   35   37 1    
    69   35   91 1    
    70   36   92 1    
    71   36   93 1    
    72   36   94 1    
    73   37   38 2    
    74   37   39 am   BACKBONE|DICT|INTERRES
    75   39   40 1    
    76   39   95 1    
    77   40   41 1    
    78   40   42 1    
    79   40   96 1    
    80   41   97 1    
    81   41   98 1    
    82   41   99 1    
    83   42   43 2    
    84   42   44 am   BACKBONE|DICT|INTERRES
    85   44   45 1    
    86   44  100 1    
    87   45   46 1    
    88   45   47 1    
    89   45  101 1    
    90   46  102 1    
    91   46  103 1    
    92   46  104 1    
    93   47   48 2    
    94   47   49 am   BACKBONE|DICT|INTERRES
    95   49   50 1    
    96   49  105 1    
    97   50   51 1    
    98   50   52 1    
    99   50  106 1    
   100   51  107 1    
   101   51  108 1    
   102   51  109 1    
   103   52   53 2    
   104   52   54 am   BACKBONE|DICT|INTERRES
   105   54   55 1    
   106   54  110 1    
   107   55   56 1    
   108   55   59 1    
   109   55  111 1    
   110   56   57 am   BACKBONE|DICT|INTERRES
   111   56   58 2    
   112   57  112 1    
   113   57  113 1    
   114   59   60 1    
   115   59  114 1    
   116   59  115 1    
   117   60   61 1    
   118   61  116 1    
   119   61  117 1    
@<TRIPOS>SUBSTRUCTURE
     1 UNK         1 GROUP             0       ****    0 ROOT    
