@<TRIPOS>MOLECULE
3R8
117   119    1
SMALL
USER_CHARGES


@<TRIPOS>ATOM
      1 CA         15.8321  -21.8034  -43.5358 C.3       0 UNK        -0.2013 
      2 C          16.0438  -22.9291  -44.5369 C.2       0 UNK         0.4866 
      3 O          15.8174  -22.7370  -45.7314 O.2       0 UNK        -0.5176 
      4 N          16.4857  -24.1015  -44.0608 N.am      1 UNK        -0.4884 
      5 CA         16.7298  -25.3021  -44.8770 C.3       1 UNK         0.0853 
      6 C6         16.5359  -26.5991  -44.0406 C.3       10 UNK        -0.0849 
      7 S7         15.6211  -27.8814  -44.9587 S.3       10 UNK        -0.2776 
      8 C8         15.7601  -29.3076  -43.8270 C.3       10 UNK         0.0316 
      9 C9         17.1970  -29.7797  -43.6286 C.ar      10 UNK        -0.0863 
     10 C10        17.6931  -30.0022  -42.3396 C.ar      10 UNK        -0.1009 
     11 C11        19.0090  -30.4360  -42.1522 C.ar      10 UNK        -0.0712 
     12 C12        19.8349  -30.6379  -43.2613 C.ar      10 UNK        -0.0894 
     13 C13        19.3538  -30.4144  -44.5532 C.ar      10 UNK        -0.0745 
     14 C14        18.0296  -30.0046  -44.7296 C.ar      10 UNK        -0.0972 
     15 C15        20.2499  -30.6208  -45.7646 C.3       10 UNK         0.0209 
     16 S16        20.5726  -29.0549  -46.6395 S.3       10 UNK        -0.2568 
     17 C17        22.1355  -28.4695  -45.8950 C.3       10 UNK        -0.0983 
     18 CA         22.0176  -27.2335  -44.9588 C.3       3 UNK         0.0876 
     19 N          21.1560  -26.1811  -45.5119 N.am      3 UNK        -0.4424 
     20 C          21.3378  -24.8655  -45.3561 C.2       2 UNK         0.4918 
     21 O          22.2948  -24.3769  -44.7565 O.2       2 UNK        -0.4875 
     22 CA         20.2422  -23.9370  -45.9051 C.3       2 UNK         0.0481 
     23 CB         20.2561  -23.8872  -47.4458 C.3       2 UNK        -0.1831 
     24 N          18.9037  -24.2252  -45.3670 N.am      2 UNK        -0.4498 
     25 C          18.0980  -25.2741  -45.6040 C.2       1 UNK         0.5027 
     26 O          18.4055  -26.2044  -46.3489 O.2       1 UNK        -0.4969 
     27 C          21.6592  -27.5945  -43.4985 C.2       3 UNK         0.5005 
     28 O          22.2061  -28.5604  -42.9706 O.2       3 UNK        -0.5279 
     29 N          20.7900  -26.7977  -42.8537 N.am      4 UNK        -0.4463 
     30 CA         20.3217  -26.9526  -41.4707 C.3       4 UNK         0.0283 
     31 CB         19.2827  -25.8611  -41.1656 C.3       4 UNK        -0.1875 
     32 C          21.4281  -26.9376  -40.3984 C.2       4 UNK         0.4949 
     33 O          21.2256  -27.4902  -39.3161 O.2       4 UNK        -0.5039 
     34 N          22.5697  -26.3057  -40.7022 N.am      5 UNK        -0.4663 
     35 CA         23.7626  -26.2474  -39.8565 C.3       5 UNK         0.0242 
     36 CB         24.6527  -25.0870  -40.3398 C.3       5 UNK        -0.1982 
     37 C          24.5075  -27.5974  -39.8431 C.2       5 UNK         0.5017 
     38 O          25.5648  -27.7215  -40.4643 O.2       5 UNK        -0.5012 
     39 N          23.9243  -28.5795  -39.1413 N.am      6 UNK        -0.4439 
     40 CA         24.3547  -29.9758  -39.0251 C.3       6 UNK         0.0297 
     41 CB         25.7298  -30.0970  -38.3289 C.3       6 UNK        -0.2006 
     42 C          24.2605  -30.6902  -40.3840 C.2       6 UNK         0.4892 
     43 O          23.1443  -30.9816  -40.8128 O.2       6 UNK        -0.5089 
     44 N          25.4077  -30.9744  -41.0206 N.am      7 UNK        -0.4243 
     45 CA         25.5538  -31.6508  -42.3157 C.3       7 UNK         0.0196 
     46 CB         25.1120  -30.7131  -43.4631 C.3       7 UNK        -0.2007 
     47 C          24.8445  -33.0181  -42.3137 C.2       7 UNK         0.5020 
     48 O          25.2890  -33.9212  -41.6038 O.2       7 UNK        -0.5147 
     49 N          23.7342  -33.1349  -43.0550 N.am      8 UNK        -0.4734 
     50 CA         22.8641  -34.3148  -43.0956 C.3       8 UNK         0.0238 
     51 CB         21.7900  -34.1140  -44.1775 C.3       8 UNK        -0.1912 
     52 C          22.2065  -34.6577  -41.7442 C.2       8 UNK         0.5038 
     53 O          21.8818  -35.8253  -41.5232 O.2       8 UNK        -0.5046 
     54 N          22.0382  -33.6563  -40.8703 N.am      9 UNK        -0.4200 
     55 CA         21.5478  -33.8155  -39.4928 C.3       9 UNK         0.0839 
     56 C          22.6841  -34.0827  -38.4622 C.2       9 UNK         0.5513 
     57 N          23.9513  -34.1617  -38.8551 N.am      9 UNK        -0.7519 
     58 O          22.4089  -34.2344  -37.2749 O.2       9 UNK        -0.4960 
     59 C59        20.6480  -32.6290  -39.0512 C.3       10 UNK        -0.0876 
     60 S60        19.2416  -32.3572  -40.1856 S.3       10 UNK        -0.2414 
     61 C61        19.5582  -30.6590  -40.7535 C.3       10 UNK         0.0169 
     62 H62        16.0784  -22.1082  -42.5188 H         1 UNK         0.0903 
     63 H63        16.4563  -20.9485  -43.7943 H         1 UNK         0.0903 
     64 H64        14.7912  -21.4811  -43.5496 H         1 UNK         0.0903 
     65 H65        16.6516  -24.1992  -43.0687 H         1 UNK         0.3096 
     66 H66        15.9826  -25.2974  -45.6745 H         1 UNK         0.1121 
     67 H67        17.4895  -27.0082  -43.7011 H         1 UNK         0.0849 
     68 H68        15.9618  -26.3968  -43.1347 H         1 UNK         0.0849 
     69 H69        15.3021  -29.0435  -42.8725 H         1 UNK         0.0865 
     70 H70        15.1745  -30.1347  -44.2303 H         1 UNK         0.0865 
     71 H71        17.0587  -29.8390  -41.4791 H         1 UNK         0.1346 
     72 H72        20.8601  -30.9484  -43.1112 H         1 UNK         0.1412 
     73 H73        17.6550  -29.8343  -45.7300 H         1 UNK         0.1426 
     74 H74        19.7523  -31.3056  -46.4526 H         1 UNK         0.0716 
     75 H75        21.1893  -31.1009  -45.4877 H         1 UNK         0.0716 
     76 H76        22.7812  -28.1994  -46.7319 H         1 UNK         0.0695 
     77 H77        22.6529  -29.2963  -45.4056 H         1 UNK         0.0695 
     78 H78        23.0282  -26.8252  -44.8845 H         1 UNK         0.0983 
     79 H79        20.3121  -26.4970  -45.9843 H         1 UNK         0.3095 
     80 H80        20.4812  -22.9318  -45.5540 H         1 UNK         0.0454 
     81 H81        20.0540  -24.8597  -47.8953 H         1 UNK         0.0851 
     82 H82        21.2298  -23.5608  -47.8132 H         1 UNK         0.0851 
     83 H83        19.5152  -23.1836  -47.8250 H         1 UNK         0.0851 
     84 H84        18.5451  -23.5291  -44.7280 H         1 UNK         0.2976 
     85 H85        20.4165  -26.0163  -43.3697 H         1 UNK         0.3116 
     86 H86        19.8254  -27.9193  -41.4051 H         1 UNK         0.0646 
     87 H87        18.9020  -25.9596  -40.1479 H         1 UNK         0.0847 
     88 H88        18.4246  -25.9250  -41.8319 H         1 UNK         0.0847 
     89 H89        19.7084  -24.8610  -41.2570 H         1 UNK         0.0847 
     90 H90        22.6529  -25.9068  -41.6257 H         1 UNK         0.3040 
     91 H91        23.4573  -26.0274  -38.8308 H         1 UNK         0.1015 
     92 H92        24.1314  -24.1319  -40.2708 H         1 UNK         0.0786 
     93 H93        24.9697  -25.2220  -41.3748 H         1 UNK         0.0786 
     94 H94        25.5540  -25.0073  -39.7303 H         1 UNK         0.0786 
     95 H95        22.9947  -28.3788  -38.7847 H         1 UNK         0.3172 
     96 H96        23.6246  -30.4649  -38.3782 H         1 UNK         0.0595 
     97 H97        26.5279  -29.5954  -38.8762 H         1 UNK         0.0839 
     98 H98        26.0162  -31.1433  -38.2120 H         1 UNK         0.0839 
     99 H99        25.6981  -29.6633  -37.3294 H         1 UNK         0.0839 
    100 H100       26.2694  -30.7013  -40.5702 H         1 UNK         0.2998 
    101 H101       26.6172  -31.8569  -42.4457 H         1 UNK         0.0822 
    102 H102       24.0650  -30.4212  -43.3790 H         1 UNK         0.0787 
    103 H103       25.7021  -29.7965  -43.4639 H         1 UNK         0.0787 
    104 H104       25.2518  -31.1843  -44.4370 H         1 UNK         0.0787 
    105 H105       23.4290  -32.3239  -43.5729 H         1 UNK         0.3055 
    106 H106       23.4823  -35.1700  -43.3776 H         1 UNK         0.1106 
    107 H107       21.1285  -33.2805  -43.9407 H         1 UNK         0.0828 
    108 H108       22.2357  -33.9262  -45.1545 H         1 UNK         0.0828 
    109 H109       21.1657  -35.0034  -44.2744 H         1 UNK         0.0828 
    110 H110       22.3702  -32.7255  -41.1080 H         1 UNK         0.2931 
    111 H111       20.9184  -34.7066  -39.4589 H         1 UNK         0.0412 
    112 H112       24.2079  -34.0713  -39.8308 H         1 UNK         0.3472 
    113 H113       24.6641  -34.3472  -38.1675 H         1 UNK         0.3472 
    114 H114       20.2332  -32.8180  -38.0594 H         1 UNK         0.0970 
    115 H115       21.2397  -31.7173  -38.9557 H         1 UNK         0.0970 
    116 H116       20.6272  -30.4475  -40.7535 H         1 UNK         0.0612 
    117 H117       19.1100  -29.9561  -40.0497 H         1 UNK         0.0612 
@<TRIPOS>BOND
     1    1    2 1    
     2    1   62 1    
     3    1   63 1    
     4    1   64 1    
     5    2    3 2    
     6    2    4 am   BACKBONE|DICT|INTERRES
     7    4    5 1    
     8    4   65 1    
     9    5    6 1    
    10    5   25 1    
    11    5   66 1    
    12    6    7 1    
    13    6   67 1    
    14    6   68 1    
    15    7    8 1    
    16    8    9 1    
    17    8   69 1    
    18    8   70 1    
    19    9   10 ar   
    20    9   14 ar   
    21   10   11 ar   
    22   10   71 1    
    23   11   12 ar   
    24   11   61 1    
    25   12   13 ar   
    26   12   72 1    
    27   13   14 ar   
    28   13   15 1    
    29   14   73 1    
    30   15   16 1    
    31   15   74 1    
    32   15   75 1    
    33   16   17 1    
    34   17   18 1    
    35   17   76 1    
    36   17   77 1    
    37   18   19 1    
    38   18   27 1    
    39   18   78 1    
    40   19   20 am   BACKBONE|DICT|INTERRES
    41   19   79 1    
    42   20   21 2    
    43   20   22 1    
    44   22   23 1    
    45   22   24 1    
    46   22   80 1    
    47   23   81 1    
    48   23   82 1    
    49   23   83 1    
    50   24   25 am   BACKBONE|DICT|INTERRES
    51   24   84 1    
    52   25   26 2    
    53   27   28 2    
    54   27   29 am   BACKBONE|DICT|INTERRES
    55   29   30 1    
    56   29   85 1    
    57   30   31 1    
    58   30   32 1    
    59   30   86 1    
    60   31   87 1    
    61   31   88 1    
    62   31   89 1    
    63   32   33 2    
    64   32   34 am   BACKBONE|DICT|INTERRES
    65   34   35 1    
    66   34   90 1    
    67   35   36 1    
    68   35   37 1    
    69   35   91 1    
    70   36   92 1    
    71   36   93 1    
    72   36   94 1    
    73   37   38 2    
    74   37   39 am   BACKBONE|DICT|INTERRES
    75   39   40 1    
    76   39   95 1    
    77   40   41 1    
    78   40   42 1    
    79   40   96 1    
    80   41   97 1    
    81   41   98 1    
    82   41   99 1    
    83   42   43 2    
    84   42   44 am   BACKBONE|DICT|INTERRES
    85   44   45 1    
    86   44  100 1    
    87   45   46 1    
    88   45   47 1    
    89   45  101 1    
    90   46  102 1    
    91   46  103 1    
    92   46  104 1    
    93   47   48 2    
    94   47   49 am   BACKBONE|DICT|INTERRES
    95   49   50 1    
    96   49  105 1    
    97   50   51 1    
    98   50   52 1    
    99   50  106 1    
   100   51  107 1    
   101   51  108 1    
   102   51  109 1    
   103   52   53 2    
   104   52   54 am   BACKBONE|DICT|INTERRES
   105   54   55 1    
   106   54  110 1    
   107   55   56 1    
   108   55   59 1    
   109   55  111 1    
   110   56   57 am   BACKBONE|DICT|INTERRES
   111   56   58 2    
   112   57  112 1    
   113   57  113 1    
   114   59   60 1    
   115   59  114 1    
   116   59  115 1    
   117   60   61 1    
   118   61  116 1    
   119   61  117 1    
@<TRIPOS>SUBSTRUCTURE
     1 UNK         1 GROUP             0       ****    0 ROOT    
