@<TRIPOS>MOLECULE
3R8
117   119    1
SMALL
USER_CHARGES


@<TRIPOS>ATOM
      1 CA         18.2913  -21.8124  -43.8945 C.3       0 UNK        -0.2013 
      2 C          18.4589  -23.2002  -44.4949 C.2       0 UNK         0.4866 
      3 O          19.2010  -23.3623  -45.4643 O.2       0 UNK        -0.5176 
      4 N          17.7694  -24.2005  -43.9318 N.am      1 UNK        -0.4884 
      5 CA         17.8763  -25.6102  -44.3222 C.3       1 UNK         0.0853 
      6 C6         16.7204  -26.4575  -43.7299 C.3       10 UNK        -0.0849 
      7 S7         15.3651  -26.7396  -44.9205 S.3       10 UNK        -0.2776 
      8 C8         16.0582  -27.9856  -46.0786 C.3       10 UNK         0.0316 
      9 C9         16.5935  -29.2788  -45.4554 C.ar      10 UNK        -0.0863 
     10 C10        17.5013  -30.0586  -46.1827 C.ar      10 UNK        -0.1009 
     11 C11        18.0307  -31.2428  -45.6542 C.ar      10 UNK        -0.0712 
     12 C12        17.6525  -31.6332  -44.3631 C.ar      10 UNK        -0.0894 
     13 C13        16.7583  -30.8605  -43.6208 C.ar      10 UNK        -0.0745 
     14 C14        16.1997  -29.7153  -44.1866 C.ar      10 UNK        -0.0972 
     15 C15        16.4126  -31.2316  -42.1900 C.3       10 UNK         0.0209 
     16 S16        17.2879  -30.1456  -41.0183 S.3       10 UNK        -0.2568 
     17 C17        18.9860  -30.8212  -41.0740 C.3       10 UNK        -0.0983 
     18 CA         20.1198  -29.7760  -41.2453 C.3       3 UNK         0.0876 
     19 N          20.1130  -29.1370  -42.5699 N.am      3 UNK        -0.4424 
     20 C          21.1810  -28.5239  -43.1071 C.2       2 UNK         0.4918 
     21 O          22.2732  -28.4340  -42.5518 O.2       2 UNK        -0.4875 
     22 CA         21.0067  -27.8486  -44.4777 C.3       2 UNK         0.0481 
     23 CB         21.2519  -28.8494  -45.6150 C.3       2 UNK        -0.1831 
     24 N          19.7146  -27.1877  -44.6704 N.am      2 UNK        -0.4498 
     25 C          19.2354  -26.2013  -43.9001 C.2       1 UNK         0.5027 
     26 O          19.7873  -25.8075  -42.8695 O.2       1 UNK        -0.4969 
     27 C          20.1566  -28.7682  -40.0738 C.2       3 UNK         0.5005 
     28 O          20.5558  -29.1433  -38.9698 O.2       3 UNK        -0.5279 
     29 N          19.7348  -27.5188  -40.3185 N.am      4 UNK        -0.4463 
     30 CA         19.8282  -26.4196  -39.3581 C.3       4 UNK         0.0283 
     31 CB         18.6865  -25.4186  -39.6020 C.3       4 UNK        -0.1875 
     32 C          21.1945  -25.7261  -39.4575 C.2       4 UNK         0.4949 
     33 O          21.7580  -25.3474  -38.4307 O.2       4 UNK        -0.5039 
     34 N          21.6969  -25.5695  -40.6900 N.am      5 UNK        -0.4663 
     35 CA         22.9659  -24.9140  -41.0008 C.3       5 UNK         0.0242 
     36 CB         23.0322  -24.6389  -42.5118 C.3       5 UNK        -0.1982 
     37 C          24.2045  -25.7030  -40.5448 C.2       5 UNK         0.5017 
     38 O          25.1770  -25.0803  -40.1154 O.2       5 UNK        -0.5012 
     39 N          24.1693  -27.0373  -40.6581 N.am      6 UNK        -0.4439 
     40 CA         25.2951  -27.9246  -40.3671 C.3       6 UNK         0.0297 
     41 CB         26.2939  -27.8831  -41.5456 C.3       6 UNK        -0.2006 
     42 C          24.8005  -29.3547  -40.1066 C.2       6 UNK         0.4892 
     43 O          23.6063  -29.6315  -40.2090 O.2       6 UNK        -0.5089 
     44 N          25.7464  -30.2590  -39.8228 N.am      7 UNK        -0.4243 
     45 CA         25.5253  -31.7081  -39.7319 C.3       7 UNK         0.0196 
     46 CB         26.6003  -32.3129  -38.8112 C.3       7 UNK        -0.2007 
     47 C          25.5170  -32.4061  -41.1109 C.2       7 UNK         0.5020 
     48 O          25.4856  -33.6353  -41.1667 O.2       7 UNK        -0.5147 
     49 N          25.5666  -31.6243  -42.1994 N.am      8 UNK        -0.4734 
     50 CA         25.6224  -32.0767  -43.5936 C.3       8 UNK         0.0238 
     51 CB         25.9813  -30.8736  -44.4826 C.3       8 UNK        -0.1912 
     52 C          24.3355  -32.7512  -44.1057 C.2       8 UNK         0.5038 
     53 O          24.3804  -33.3975  -45.1533 O.2       8 UNK        -0.5046 
     54 N          23.2239  -32.5890  -43.3822 N.am      9 UNK        -0.4200 
     55 CA         21.9257  -33.2073  -43.6612 C.3       9 UNK         0.0839 
     56 C          21.1745  -33.5080  -42.3375 C.2       9 UNK         0.5513 
     57 N          20.0900  -34.2668  -42.3984 N.am      9 UNK        -0.7519 
     58 O          21.5557  -33.0548  -41.2600 O.2       9 UNK        -0.4960 
     59 C59        21.0963  -32.3589  -44.6650 C.3       10 UNK        -0.0876 
     60 S60        19.9464  -33.3638  -45.6612 S.3       10 UNK        -0.2414 
     61 C61        18.9838  -32.0702  -46.5233 C.3       10 UNK         0.0169 
     62 H62        17.9157  -21.1201  -44.6476 H         1 UNK         0.0903 
     63 H63        17.5952  -21.8115  -43.0558 H         1 UNK         0.0903 
     64 H64        19.2516  -21.4407  -43.5380 H         1 UNK         0.0903 
     65 H65        17.1886  -24.0088  -43.1284 H         1 UNK         0.3096 
     66 H66        17.8393  -25.6465  -45.4131 H         1 UNK         0.1121 
     67 H67        17.0640  -27.4215  -43.3563 H         1 UNK         0.0849 
     68 H68        16.2965  -25.9729  -42.8486 H         1 UNK         0.0849 
     69 H69        16.8465  -27.5088  -46.6625 H         1 UNK         0.0865 
     70 H70        15.2778  -28.2529  -46.7923 H         1 UNK         0.0865 
     71 H71        17.7933  -29.7466  -47.1767 H         1 UNK         0.1346 
     72 H72        18.0512  -32.5347  -43.9212 H         1 UNK         0.1412 
     73 H73        15.4873  -29.1454  -43.6069 H         1 UNK         0.1426 
     74 H74        16.6538  -32.2751  -41.9809 H         1 UNK         0.0716 
     75 H75        15.3375  -31.1274  -42.0361 H         1 UNK         0.0716 
     76 H76        19.0532  -31.5533  -41.8770 H         1 UNK         0.0695 
     77 H77        19.1461  -31.3909  -40.1568 H         1 UNK         0.0695 
     78 H78        21.0599  -30.3289  -41.1739 H         1 UNK         0.0983 
     79 H79        19.2423  -29.1648  -43.0808 H         1 UNK         0.3095 
     80 H80        21.7722  -27.0739  -44.5522 H         1 UNK         0.0454 
     81 H81        20.4718  -29.6071  -45.6551 H         1 UNK         0.0851 
     82 H82        22.2063  -29.3622  -45.4870 H         1 UNK         0.0851 
     83 H83        21.2836  -28.3503  -46.5835 H         1 UNK         0.0851 
     84 H84        19.1851  -27.4738  -45.4808 H         1 UNK         0.2976 
     85 H85        19.4497  -27.2773  -41.2583 H         1 UNK         0.3116 
     86 H86        19.7183  -26.8096  -38.3438 H         1 UNK         0.0646 
     87 H87        17.7125  -25.9007  -39.5186 H         1 UNK         0.0847 
     88 H88        18.7483  -24.9558  -40.5872 H         1 UNK         0.0847 
     89 H89        18.7137  -24.6145  -38.8655 H         1 UNK         0.0847 
     90 H90        21.1266  -25.8486  -41.4830 H         1 UNK         0.3040 
     91 H91        22.9802  -23.9541  -40.4796 H         1 UNK         0.1015 
     92 H92        22.1917  -24.0279  -42.8426 H         1 UNK         0.0786 
     93 H93        23.0206  -25.5641  -43.0886 H         1 UNK         0.0786 
     94 H94        23.9462  -24.1032  -42.7718 H         1 UNK         0.0786 
     95 H95        23.3364  -27.5021  -41.0130 H         1 UNK         0.3172 
     96 H96        25.7916  -27.5831  -39.4563 H         1 UNK         0.0595 
     97 H97        25.8295  -28.2160  -42.4747 H         1 UNK         0.0839 
     98 H98        27.1643  -28.5147  -41.3666 H         1 UNK         0.0839 
     99 H99        26.6724  -26.8743  -41.7113 H         1 UNK         0.0839 
    100 H100       26.7055  -29.9498  -39.7468 H         1 UNK         0.2998 
    101 H101       24.5486  -31.8900  -39.2776 H         1 UNK         0.0822 
    102 H102       26.5878  -31.8455  -37.8263 H         1 UNK         0.0787 
    103 H103       26.4340  -33.3805  -38.6604 H         1 UNK         0.0787 
    104 H104       27.6015  -32.1948  -39.2276 H         1 UNK         0.0787 
    105 H105       25.5721  -30.6264  -42.0526 H         1 UNK         0.3055 
    106 H106       26.4214  -32.8172  -43.6734 H         1 UNK         0.1106 
    107 H107       26.0743  -31.1727  -45.5277 H         1 UNK         0.0828 
    108 H108       25.2192  -30.0944  -44.4344 H         1 UNK         0.0828 
    109 H109       26.9343  -30.4320  -44.1904 H         1 UNK         0.0828 
    110 H110       23.2785  -32.0941  -42.5018 H         1 UNK         0.2931 
    111 H111       22.1323  -34.1823  -44.1078 H         1 UNK         0.0412 
    112 H112       19.7704  -34.6348  -43.2815 H         1 UNK         0.3472 
    113 H113       19.5904  -34.4822  -41.5501 H         1 UNK         0.3472 
    114 H114       21.7602  -31.8609  -45.3729 H         1 UNK         0.0970 
    115 H115       20.5549  -31.5648  -44.1497 H         1 UNK         0.0970 
    116 H116       19.6805  -31.4104  -47.0421 H         1 UNK         0.0612 
    117 H117       18.3917  -32.5576  -47.2988 H         1 UNK         0.0612 
@<TRIPOS>BOND
     1    1    2 1    
     2    1   62 1    
     3    1   63 1    
     4    1   64 1    
     5    2    3 2    
     6    2    4 am   BACKBONE|DICT|INTERRES
     7    4    5 1    
     8    4   65 1    
     9    5    6 1    
    10    5   25 1    
    11    5   66 1    
    12    6    7 1    
    13    6   67 1    
    14    6   68 1    
    15    7    8 1    
    16    8    9 1    
    17    8   69 1    
    18    8   70 1    
    19    9   10 ar   
    20    9   14 ar   
    21   10   11 ar   
    22   10   71 1    
    23   11   12 ar   
    24   11   61 1    
    25   12   13 ar   
    26   12   72 1    
    27   13   14 ar   
    28   13   15 1    
    29   14   73 1    
    30   15   16 1    
    31   15   74 1    
    32   15   75 1    
    33   16   17 1    
    34   17   18 1    
    35   17   76 1    
    36   17   77 1    
    37   18   19 1    
    38   18   27 1    
    39   18   78 1    
    40   19   20 am   BACKBONE|DICT|INTERRES
    41   19   79 1    
    42   20   21 2    
    43   20   22 1    
    44   22   23 1    
    45   22   24 1    
    46   22   80 1    
    47   23   81 1    
    48   23   82 1    
    49   23   83 1    
    50   24   25 am   BACKBONE|DICT|INTERRES
    51   24   84 1    
    52   25   26 2    
    53   27   28 2    
    54   27   29 am   BACKBONE|DICT|INTERRES
    55   29   30 1    
    56   29   85 1    
    57   30   31 1    
    58   30   32 1    
    59   30   86 1    
    60   31   87 1    
    61   31   88 1    
    62   31   89 1    
    63   32   33 2    
    64   32   34 am   BACKBONE|DICT|INTERRES
    65   34   35 1    
    66   34   90 1    
    67   35   36 1    
    68   35   37 1    
    69   35   91 1    
    70   36   92 1    
    71   36   93 1    
    72   36   94 1    
    73   37   38 2    
    74   37   39 am   BACKBONE|DICT|INTERRES
    75   39   40 1    
    76   39   95 1    
    77   40   41 1    
    78   40   42 1    
    79   40   96 1    
    80   41   97 1    
    81   41   98 1    
    82   41   99 1    
    83   42   43 2    
    84   42   44 am   BACKBONE|DICT|INTERRES
    85   44   45 1    
    86   44  100 1    
    87   45   46 1    
    88   45   47 1    
    89   45  101 1    
    90   46  102 1    
    91   46  103 1    
    92   46  104 1    
    93   47   48 2    
    94   47   49 am   BACKBONE|DICT|INTERRES
    95   49   50 1    
    96   49  105 1    
    97   50   51 1    
    98   50   52 1    
    99   50  106 1    
   100   51  107 1    
   101   51  108 1    
   102   51  109 1    
   103   52   53 2    
   104   52   54 am   BACKBONE|DICT|INTERRES
   105   54   55 1    
   106   54  110 1    
   107   55   56 1    
   108   55   59 1    
   109   55  111 1    
   110   56   57 am   BACKBONE|DICT|INTERRES
   111   56   58 2    
   112   57  112 1    
   113   57  113 1    
   114   59   60 1    
   115   59  114 1    
   116   59  115 1    
   117   60   61 1    
   118   61  116 1    
   119   61  117 1    
@<TRIPOS>SUBSTRUCTURE
     1 UNK         1 GROUP             0       ****    0 ROOT    
