@<TRIPOS>MOLECULE
3R8
117   119    1
SMALL
USER_CHARGES


@<TRIPOS>ATOM
      1 CA         16.4228  -23.7230  -40.6367 C.3       0 UNK        -0.2013 
      2 C          17.0643  -24.6512  -41.6566 C.2       0 UNK         0.4866 
      3 O          17.5444  -24.1884  -42.6925 O.2       0 UNK        -0.5176 
      4 N          17.0868  -25.9597  -41.3735 N.am      1 UNK        -0.4884 
      5 CA         17.6503  -27.0083  -42.2326 C.3       1 UNK         0.0853 
      6 C6         17.0350  -28.3986  -41.9284 C.3       10 UNK        -0.0849 
      7 S7         15.2456  -28.4840  -42.2715 S.3       10 UNK        -0.2776 
      8 C8         15.1953  -28.5503  -44.0971 C.3       10 UNK         0.0316 
      9 C9         16.0830  -29.6398  -44.6888 C.ar      10 UNK        -0.0863 
     10 C10        15.8464  -30.9840  -44.3857 C.ar      10 UNK        -0.1009 
     11 C11        16.6542  -31.9866  -44.9291 C.ar      10 UNK        -0.0712 
     12 C12        17.6822  -31.6401  -45.8085 C.ar      10 UNK        -0.0894 
     13 C13        17.9504  -30.2996  -46.0991 C.ar      10 UNK        -0.0745 
     14 C14        17.1430  -29.3035  -45.5391 C.ar      10 UNK        -0.0972 
     15 C15        19.1057  -29.9259  -47.0226 C.3       10 UNK         0.0209 
     16 S16        20.6811  -30.7394  -46.5788 S.3       10 UNK        -0.2568 
     17 C17        21.0326  -30.0215  -44.9402 C.3       10 UNK        -0.0983 
     18 CA         21.8862  -28.7306  -45.0274 C.3       3 UNK         0.0876 
     19 N          21.5884  -27.8393  -43.9057 N.am      3 UNK        -0.4424 
     20 C          21.9392  -26.5540  -43.7940 C.2       2 UNK         0.4918 
     21 O          22.7032  -25.9885  -44.5772 O.2       2 UNK        -0.4875 
     22 CA         21.3023  -25.7736  -42.6212 C.3       2 UNK         0.0481 
     23 CB         21.6399  -24.2727  -42.6576 C.3       2 UNK        -0.1831 
     24 N          19.8450  -25.9383  -42.5498 N.am      2 UNK        -0.4498 
     25 C          19.1911  -27.0398  -42.1556 C.2       1 UNK         0.5027 
     26 O          19.7679  -28.0591  -41.7715 O.2       1 UNK        -0.4969 
     27 C          23.3915  -29.0307  -45.1826 C.2       3 UNK         0.5005 
     28 O          23.8765  -29.1341  -46.3101 O.2       3 UNK        -0.5279 
     29 N          24.1122  -29.1183  -44.0563 N.am      4 UNK        -0.4463 
     30 CA         25.5624  -29.3329  -44.0039 C.3       4 UNK         0.0283 
     31 CB         25.8558  -30.3805  -42.9132 C.3       4 UNK        -0.1875 
     32 C          26.3190  -28.0141  -43.7469 C.2       4 UNK         0.4949 
     33 O          27.3981  -28.0443  -43.1555 O.2       4 UNK        -0.5039 
     34 N          25.7070  -26.8765  -44.1225 N.am      5 UNK        -0.4663 
     35 CA         26.0412  -25.4992  -43.7123 C.3       5 UNK         0.0242 
     36 CB         27.4575  -25.0897  -44.1684 C.3       5 UNK        -0.1982 
     37 C          25.8038  -25.2549  -42.2045 C.2       5 UNK         0.5017 
     38 O          26.2877  -24.2684  -41.6486 O.2       5 UNK        -0.5012 
     39 N          25.0449  -26.1644  -41.5885 N.am      6 UNK        -0.4439 
     40 CA         24.6589  -26.2816  -40.1933 C.3       6 UNK         0.0297 
     41 CB         25.8817  -26.6188  -39.3194 C.3       6 UNK        -0.2006 
     42 C          23.6173  -27.4083  -40.1413 C.2       6 UNK         0.4892 
     43 O          23.5052  -28.1834  -41.1011 O.2       6 UNK        -0.5089 
     44 N          22.8553  -27.4565  -39.0439 N.am      7 UNK        -0.4243 
     45 CA         21.8181  -28.4596  -38.8024 C.3       7 UNK         0.0196 
     46 CB         20.9906  -28.0304  -37.5781 C.3       7 UNK        -0.2007 
     47 C          22.4350  -29.8563  -38.5811 C.2       7 UNK         0.5020 
     48 O          23.3692  -29.9605  -37.7857 O.2       7 UNK        -0.5147 
     49 N          21.9496  -30.9270  -39.2209 N.am      8 UNK        -0.4734 
     50 CA         20.9240  -31.0220  -40.2625 C.3       8 UNK         0.0238 
     51 CB         19.5082  -30.8613  -39.6630 C.3       8 UNK        -0.1912 
     52 C          21.1097  -32.3735  -40.9762 C.2       8 UNK         0.5038 
     53 O          22.1459  -33.0188  -40.7911 O.2       8 UNK        -0.5046 
     54 N          20.1129  -32.7881  -41.7685 N.am      9 UNK        -0.4200 
     55 CA         20.0880  -34.0757  -42.4839 C.3       9 UNK         0.0839 
     56 C          19.9916  -35.3499  -41.5907 C.2       9 UNK         0.5513 
     57 N          19.6776  -35.2428  -40.3049 N.am      9 UNK        -0.7519 
     58 O          20.2169  -36.4556  -42.0761 O.2       9 UNK        -0.4960 
     59 C59        19.0244  -34.0769  -43.6122 C.3       10 UNK        -0.0876 
     60 S60        17.3075  -33.8680  -43.0142 S.3       10 UNK        -0.2414 
     61 C61        16.4276  -33.4411  -44.5502 C.3       10 UNK         0.0169 
     62 H62        16.0392  -24.2673  -39.7740 H         1 UNK         0.0903 
     63 H63        17.1515  -22.9946  -40.2822 H         1 UNK         0.0903 
     64 H64        15.5938  -23.1821  -41.0922 H         1 UNK         0.0903 
     65 H65        16.6854  -26.2836  -40.5047 H         1 UNK         0.3096 
     66 H66        17.4123  -26.7651  -43.2701 H         1 UNK         0.1121 
     67 H67        17.5334  -29.1849  -42.4984 H         1 UNK         0.0849 
     68 H68        17.1908  -28.6586  -40.8797 H         1 UNK         0.0849 
     69 H69        14.1656  -28.7264  -44.4115 H         1 UNK         0.0865 
     70 H70        15.4649  -27.5708  -44.4945 H         1 UNK         0.0865 
     71 H71        15.0436  -31.2478  -43.7104 H         1 UNK         0.1346 
     72 H72        18.2973  -32.4137  -46.2470 H         1 UNK         0.1412 
     73 H73        17.3375  -28.2650  -45.7703 H         1 UNK         0.1426 
     74 H74        19.2612  -28.8460  -47.0328 H         1 UNK         0.0716 
     75 H75        18.8415  -30.2089  -48.0422 H         1 UNK         0.0716 
     76 H76        20.0786  -29.8181  -44.4513 H         1 UNK         0.0695 
     77 H77        21.5159  -30.7777  -44.3182 H         1 UNK         0.0695 
     78 H78        21.5866  -28.1824  -45.9236 H         1 UNK         0.0983 
     79 H79        20.9772  -28.2040  -43.1798 H         1 UNK         0.3095 
     80 H80        21.7197  -26.1757  -41.7006 H         1 UNK         0.0454 
     81 H81        22.7188  -24.1125  -42.6403 H         1 UNK         0.0851 
     82 H82        21.2522  -23.7945  -43.5579 H         1 UNK         0.0851 
     83 H83        21.2247  -23.7513  -41.7951 H         1 UNK         0.0851 
     84 H84        19.2773  -25.1453  -42.8353 H         1 UNK         0.2976 
     85 H85        23.6453  -28.9832  -43.1655 H         1 UNK         0.3116 
     86 H86        25.9243  -29.7296  -44.9545 H         1 UNK         0.0646 
     87 H87        26.9162  -30.6341  -42.8841 H         1 UNK         0.0847 
     88 H88        25.3104  -31.3066  -43.0954 H         1 UNK         0.0847 
     89 H89        25.5787  -30.0187  -41.9219 H         1 UNK         0.0847 
     90 H90        24.8276  -26.9645  -44.6180 H         1 UNK         0.3040 
     91 H91        25.3309  -24.8527  -44.2307 H         1 UNK         0.1015 
     92 H92        28.2344  -25.6126  -43.6104 H         1 UNK         0.0786 
     93 H93        27.6197  -24.0216  -44.0187 H         1 UNK         0.0786 
     94 H94        27.6081  -25.2937  -45.2284 H         1 UNK         0.0786 
     95 H95        24.6864  -26.9327  -42.1421 H         1 UNK         0.3172 
     96 H96        24.2007  -25.3456  -39.8683 H         1 UNK         0.0595 
     97 H97        25.5967  -26.7478  -38.2746 H         1 UNK         0.0839 
     98 H98        26.6284  -25.8255  -39.3519 H         1 UNK         0.0839 
     99 H99        26.3627  -27.5430  -39.6434 H         1 UNK         0.0839 
    100 H100       23.0327  -26.8023  -38.2957 H         1 UNK         0.2998 
    101 H101       21.1649  -28.4613  -39.6718 H         1 UNK         0.0822 
    102 H102       21.6141  -27.9178  -36.6902 H         1 UNK         0.0787 
    103 H103       20.4837  -27.0817  -37.7559 H         1 UNK         0.0787 
    104 H104       20.2237  -28.7672  -37.3385 H         1 UNK         0.0787 
    105 H105       22.4249  -31.8115  -39.0843 H         1 UNK         0.3055 
    106 H106       21.1026  -30.2516  -41.0150 H         1 UNK         0.1106 
    107 H107       19.2950  -31.6341  -38.9236 H         1 UNK         0.0828 
    108 H108       19.3734  -29.8959  -39.1805 H         1 UNK         0.0828 
    109 H109       18.7368  -30.9182  -40.4313 H         1 UNK         0.0828 
    110 H110       19.2799  -32.2254  -41.8569 H         1 UNK         0.2931 
    111 H111       21.0565  -34.1571  -42.9819 H         1 UNK         0.0412 
    112 H112       19.6233  -36.0748  -39.7386 H         1 UNK         0.3472 
    113 H113       19.4841  -34.3419  -39.8994 H         1 UNK         0.3472 
    114 H114       19.0824  -34.9982  -44.1950 H         1 UNK         0.0970 
    115 H115       19.2621  -33.2745  -44.3091 H         1 UNK         0.0970 
    116 H116       16.7445  -34.1064  -45.3550 H         1 UNK         0.0612 
    117 H117       15.3613  -33.6210  -44.4060 H         1 UNK         0.0612 
@<TRIPOS>BOND
     1    1    2 1    
     2    1   62 1    
     3    1   63 1    
     4    1   64 1    
     5    2    3 2    
     6    2    4 am   BACKBONE|DICT|INTERRES
     7    4    5 1    
     8    4   65 1    
     9    5    6 1    
    10    5   25 1    
    11    5   66 1    
    12    6    7 1    
    13    6   67 1    
    14    6   68 1    
    15    7    8 1    
    16    8    9 1    
    17    8   69 1    
    18    8   70 1    
    19    9   10 ar   
    20    9   14 ar   
    21   10   11 ar   
    22   10   71 1    
    23   11   12 ar   
    24   11   61 1    
    25   12   13 ar   
    26   12   72 1    
    27   13   14 ar   
    28   13   15 1    
    29   14   73 1    
    30   15   16 1    
    31   15   74 1    
    32   15   75 1    
    33   16   17 1    
    34   17   18 1    
    35   17   76 1    
    36   17   77 1    
    37   18   19 1    
    38   18   27 1    
    39   18   78 1    
    40   19   20 am   BACKBONE|DICT|INTERRES
    41   19   79 1    
    42   20   21 2    
    43   20   22 1    
    44   22   23 1    
    45   22   24 1    
    46   22   80 1    
    47   23   81 1    
    48   23   82 1    
    49   23   83 1    
    50   24   25 am   BACKBONE|DICT|INTERRES
    51   24   84 1    
    52   25   26 2    
    53   27   28 2    
    54   27   29 am   BACKBONE|DICT|INTERRES
    55   29   30 1    
    56   29   85 1    
    57   30   31 1    
    58   30   32 1    
    59   30   86 1    
    60   31   87 1    
    61   31   88 1    
    62   31   89 1    
    63   32   33 2    
    64   32   34 am   BACKBONE|DICT|INTERRES
    65   34   35 1    
    66   34   90 1    
    67   35   36 1    
    68   35   37 1    
    69   35   91 1    
    70   36   92 1    
    71   36   93 1    
    72   36   94 1    
    73   37   38 2    
    74   37   39 am   BACKBONE|DICT|INTERRES
    75   39   40 1    
    76   39   95 1    
    77   40   41 1    
    78   40   42 1    
    79   40   96 1    
    80   41   97 1    
    81   41   98 1    
    82   41   99 1    
    83   42   43 2    
    84   42   44 am   BACKBONE|DICT|INTERRES
    85   44   45 1    
    86   44  100 1    
    87   45   46 1    
    88   45   47 1    
    89   45  101 1    
    90   46  102 1    
    91   46  103 1    
    92   46  104 1    
    93   47   48 2    
    94   47   49 am   BACKBONE|DICT|INTERRES
    95   49   50 1    
    96   49  105 1    
    97   50   51 1    
    98   50   52 1    
    99   50  106 1    
   100   51  107 1    
   101   51  108 1    
   102   51  109 1    
   103   52   53 2    
   104   52   54 am   BACKBONE|DICT|INTERRES
   105   54   55 1    
   106   54  110 1    
   107   55   56 1    
   108   55   59 1    
   109   55  111 1    
   110   56   57 am   BACKBONE|DICT|INTERRES
   111   56   58 2    
   112   57  112 1    
   113   57  113 1    
   114   59   60 1    
   115   59  114 1    
   116   59  115 1    
   117   60   61 1    
   118   61  116 1    
   119   61  117 1    
@<TRIPOS>SUBSTRUCTURE
     1 UNK         1 GROUP             0       ****    0 ROOT    
