@<TRIPOS>MOLECULE
3R8
117   119    1
SMALL
USER_CHARGES


@<TRIPOS>ATOM
      1 CA         15.0608  -25.4032  -50.1526 C.3       0 UNK        -0.2013 
      2 C          16.0328  -26.2590  -49.3540 C.2       0 UNK         0.4866 
      3 O          16.8701  -26.9452  -49.9414 O.2       0 UNK        -0.5176 
      4 N          15.9228  -26.2322  -48.0203 N.am      1 UNK        -0.4884 
      5 CA         16.8020  -26.9536  -47.0953 C.3       1 UNK         0.0853 
      6 C6         16.2485  -26.9439  -45.6504 C.3       10 UNK        -0.0849 
      7 S7         14.6970  -27.8814  -45.4502 S.3       10 UNK        -0.2776 
      8 C8         15.2517  -29.3477  -44.5006 C.3       10 UNK         0.0316 
      9 C9         16.0149  -29.0513  -43.2049 C.ar      10 UNK        -0.0863 
     10 C10        16.9491  -29.9854  -42.7423 C.ar      10 UNK        -0.1009 
     11 C11        17.6827  -29.7452  -41.5767 C.ar      10 UNK        -0.0712 
     12 C12        17.4786  -28.5617  -40.8658 C.ar      10 UNK        -0.0894 
     13 C13        16.5723  -27.6052  -41.3280 C.ar      10 UNK        -0.0745 
     14 C14        15.8220  -27.8683  -42.4776 C.ar      10 UNK        -0.0972 
     15 C15        16.4298  -26.2727  -40.6057 C.3       10 UNK         0.0209 
     16 S16        18.0138  -25.3710  -40.4975 S.3       10 UNK        -0.2568 
     17 C17        18.4994  -25.1890  -42.2515 C.3       10 UNK        -0.0983 
     18 CA         19.6327  -26.1580  -42.6840 C.3       3 UNK         0.0876 
     19 N          19.8134  -26.1437  -44.1387 N.am      3 UNK        -0.4424 
     20 C          20.5862  -26.9921  -44.8331 C.2       2 UNK         0.4918 
     21 O          21.2397  -27.9028  -44.3246 O.2       2 UNK        -0.4875 
     22 CA         20.5494  -26.8369  -46.3635 C.3       2 UNK         0.0481 
     23 CB         21.5888  -27.7213  -47.0778 C.3       2 UNK        -0.1831 
     24 N          19.2102  -27.2115  -46.8131 N.am      2 UNK        -0.4498 
     25 C          18.2191  -26.3493  -47.0673 C.2       1 UNK         0.5027 
     26 O          18.3724  -25.1281  -47.1541 O.2       1 UNK        -0.4969 
     27 C          20.9667  -25.8596  -41.9673 C.2       3 UNK         0.5005 
     28 O          21.6119  -24.8540  -42.2777 O.2       3 UNK        -0.5279 
     29 N          21.3514  -26.7357  -41.0342 N.am      4 UNK        -0.4463 
     30 CA         22.5952  -26.6905  -40.2744 C.3       4 UNK         0.0283 
     31 CB         23.7669  -27.1355  -41.1727 C.3       4 UNK        -0.1875 
     32 C          22.4559  -27.6005  -39.0468 C.2       4 UNK         0.4949 
     33 O          21.4989  -28.3720  -38.9558 O.2       4 UNK        -0.5039 
     34 N          23.4200  -27.5034  -38.1235 N.am      5 UNK        -0.4663 
     35 CA         23.4999  -28.3500  -36.9262 C.3       5 UNK         0.0242 
     36 CB         24.3219  -27.6162  -35.8532 C.3       5 UNK        -0.1982 
     37 C          24.1022  -29.7420  -37.2028 C.2       5 UNK         0.5017 
     38 O          23.9582  -30.6358  -36.3680 O.2       5 UNK        -0.5012 
     39 N          24.7759  -29.8949  -38.3478 N.am      6 UNK        -0.4439 
     40 CA         25.4453  -31.1029  -38.8208 C.3       6 UNK         0.0297 
     41 CB         26.7615  -31.3339  -38.0445 C.3       6 UNK        -0.2006 
     42 C          25.6323  -30.9602  -40.3399 C.2       6 UNK         0.4892 
     43 O          24.7756  -30.3542  -40.9876 O.2       6 UNK        -0.5089 
     44 N          26.7321  -31.5013  -40.8861 N.am      7 UNK        -0.4243 
     45 CA         27.1136  -31.4785  -42.3046 C.3       7 UNK         0.0196 
     46 CB         27.4844  -30.0442  -42.7497 C.3       7 UNK        -0.2007 
     47 C          26.0358  -32.1485  -43.1751 C.2       7 UNK         0.5020 
     48 O          25.8883  -33.3690  -43.1038 O.2       7 UNK        -0.5147 
     49 N          25.2670  -31.3513  -43.9298 N.am      8 UNK        -0.4734 
     50 CA         24.1060  -31.7936  -44.7114 C.3       8 UNK         0.0238 
     51 CB         23.5695  -30.6105  -45.5335 C.3       8 UNK        -0.1912 
     52 C          22.9800  -32.4059  -43.8552 C.2       8 UNK         0.5038 
     53 O          22.2505  -33.2649  -44.3523 O.2       8 UNK        -0.5046 
     54 N          22.8809  -31.9754  -42.5916 N.am      9 UNK        -0.4200 
     55 CA         21.9798  -32.5309  -41.5729 C.3       9 UNK         0.0839 
     56 C          22.6206  -33.6827  -40.7435 C.2       9 UNK         0.5513 
     57 N          23.8431  -34.1224  -41.0216 N.am      9 UNK        -0.7519 
     58 O          21.9864  -34.2053  -39.8309 O.2       9 UNK        -0.4960 
     59 C59        21.4113  -31.4146  -40.6598 C.3       10 UNK        -0.0876 
     60 S60        20.3896  -30.2219  -41.5884 S.3       10 UNK        -0.2414 
     61 C61        18.7202  -30.7418  -41.0905 C.3       10 UNK         0.0169 
     62 H62        14.3689  -24.8616  -49.5077 H         1 UNK         0.0903 
     63 H63        15.6072  -24.6746  -50.7510 H         1 UNK         0.0903 
     64 H64        14.4764  -26.0287  -50.8268 H         1 UNK         0.0903 
     65 H65        15.2214  -25.6473  -47.5887 H         1 UNK         0.3096 
     66 H66        16.8752  -27.9881  -47.4394 H         1 UNK         0.1121 
     67 H67        16.0673  -25.9198  -45.3172 H         1 UNK         0.0849 
     68 H68        16.9930  -27.3443  -44.9605 H         1 UNK         0.0849 
     69 H69        14.3778  -29.9526  -44.2558 H         1 UNK         0.0865 
     70 H70        15.8707  -29.9577  -45.1606 H         1 UNK         0.0865 
     71 H71        17.1165  -30.8992  -43.2965 H         1 UNK         0.1346 
     72 H72        18.0602  -28.3648  -39.9750 H         1 UNK         0.1412 
     73 H73        15.1094  -27.1320  -42.8217 H         1 UNK         0.1426 
     74 H74        15.6950  -25.6353  -41.1002 H         1 UNK         0.0716 
     75 H75        16.0545  -26.4527  -39.5975 H         1 UNK         0.0716 
     76 H76        18.7973  -24.1523  -42.4192 H         1 UNK         0.0695 
     77 H77        17.6164  -25.3473  -42.8727 H         1 UNK         0.0695 
     78 H78        19.3272  -27.1745  -42.4281 H         1 UNK         0.0983 
     79 H79        19.3364  -25.4098  -44.6416 H         1 UNK         0.3095 
     80 H80        20.7691  -25.7948  -46.6047 H         1 UNK         0.0454 
     81 H81        21.5640  -27.5666  -48.1564 H         1 UNK         0.0851 
     82 H82        21.4195  -28.7818  -46.8888 H         1 UNK         0.0851 
     83 H83        22.5989  -27.4867  -46.7395 H         1 UNK         0.0851 
     84 H84        18.9849  -28.1932  -46.7283 H         1 UNK         0.2976 
     85 H85        20.7639  -27.5290  -40.8004 H         1 UNK         0.3116 
     86 H86        22.7635  -25.6703  -39.9234 H         1 UNK         0.0646 
     87 H87        23.9266  -26.4359  -41.9930 H         1 UNK         0.0847 
     88 H88        24.7043  -27.1963  -40.6195 H         1 UNK         0.0847 
     89 H89        23.5780  -28.1159  -41.6114 H         1 UNK         0.0847 
     90 H90        24.1616  -26.8294  -38.2549 H         1 UNK         0.3040 
     91 H91        22.4918  -28.5068  -36.5349 H         1 UNK         0.1015 
     92 H92        25.3458  -27.4338  -36.1820 H         1 UNK         0.0786 
     93 H93        24.3748  -28.2011  -34.9338 H         1 UNK         0.0786 
     94 H94        23.8737  -26.6558  -35.5975 H         1 UNK         0.0786 
     95 H95        24.7649  -29.1363  -39.0163 H         1 UNK         0.3172 
     96 H96        24.7812  -31.9544  -38.6597 H         1 UNK         0.0595 
     97 H97        27.4852  -30.5393  -38.2313 H         1 UNK         0.0839 
     98 H98        27.2257  -32.2823  -38.3163 H         1 UNK         0.0839 
     99 H99        26.5877  -31.3731  -36.9691 H         1 UNK         0.0839 
    100 H100       27.3608  -32.0049  -40.2764 H         1 UNK         0.2998 
    101 H101       28.0091  -32.0948  -42.4001 H         1 UNK         0.0822 
    102 H102       26.6607  -29.3399  -42.6288 H         1 UNK         0.0787 
    103 H103       28.3241  -29.6637  -42.1680 H         1 UNK         0.0787 
    104 H104       27.7886  -30.0239  -43.7971 H         1 UNK         0.0787 
    105 H105       25.4382  -30.3566  -43.8921 H         1 UNK         0.3055 
    106 H106       24.4457  -32.5695  -45.4009 H         1 UNK         0.1106 
    107 H107       24.3289  -30.2146  -46.2078 H         1 UNK         0.0828 
    108 H108       22.7211  -30.9163  -46.1471 H         1 UNK         0.0828 
    109 H109       23.2287  -29.7959  -44.8925 H         1 UNK         0.0828 
    110 H110       23.5421  -31.2822  -42.2559 H         1 UNK         0.2931 
    111 H111       21.1278  -32.9894  -42.0783 H         1 UNK         0.0412 
    112 H112       24.2230  -34.8790  -40.4753 H         1 UNK         0.3472 
    113 H113       24.3795  -33.7461  -41.7946 H         1 UNK         0.3472 
    114 H114       20.8143  -31.8359  -39.8492 H         1 UNK         0.0970 
    115 H115       22.2217  -30.8676  -40.1748 H         1 UNK         0.0970 
    116 H116       18.5174  -31.7382  -41.4862 H         1 UNK         0.0612 
    117 H117       18.6675  -30.8177  -40.0033 H         1 UNK         0.0612 
@<TRIPOS>BOND
     1    1    2 1    
     2    1   62 1    
     3    1   63 1    
     4    1   64 1    
     5    2    3 2    
     6    2    4 am   BACKBONE|DICT|INTERRES
     7    4    5 1    
     8    4   65 1    
     9    5    6 1    
    10    5   25 1    
    11    5   66 1    
    12    6    7 1    
    13    6   67 1    
    14    6   68 1    
    15    7    8 1    
    16    8    9 1    
    17    8   69 1    
    18    8   70 1    
    19    9   10 ar   
    20    9   14 ar   
    21   10   11 ar   
    22   10   71 1    
    23   11   12 ar   
    24   11   61 1    
    25   12   13 ar   
    26   12   72 1    
    27   13   14 ar   
    28   13   15 1    
    29   14   73 1    
    30   15   16 1    
    31   15   74 1    
    32   15   75 1    
    33   16   17 1    
    34   17   18 1    
    35   17   76 1    
    36   17   77 1    
    37   18   19 1    
    38   18   27 1    
    39   18   78 1    
    40   19   20 am   BACKBONE|DICT|INTERRES
    41   19   79 1    
    42   20   21 2    
    43   20   22 1    
    44   22   23 1    
    45   22   24 1    
    46   22   80 1    
    47   23   81 1    
    48   23   82 1    
    49   23   83 1    
    50   24   25 am   BACKBONE|DICT|INTERRES
    51   24   84 1    
    52   25   26 2    
    53   27   28 2    
    54   27   29 am   BACKBONE|DICT|INTERRES
    55   29   30 1    
    56   29   85 1    
    57   30   31 1    
    58   30   32 1    
    59   30   86 1    
    60   31   87 1    
    61   31   88 1    
    62   31   89 1    
    63   32   33 2    
    64   32   34 am   BACKBONE|DICT|INTERRES
    65   34   35 1    
    66   34   90 1    
    67   35   36 1    
    68   35   37 1    
    69   35   91 1    
    70   36   92 1    
    71   36   93 1    
    72   36   94 1    
    73   37   38 2    
    74   37   39 am   BACKBONE|DICT|INTERRES
    75   39   40 1    
    76   39   95 1    
    77   40   41 1    
    78   40   42 1    
    79   40   96 1    
    80   41   97 1    
    81   41   98 1    
    82   41   99 1    
    83   42   43 2    
    84   42   44 am   BACKBONE|DICT|INTERRES
    85   44   45 1    
    86   44  100 1    
    87   45   46 1    
    88   45   47 1    
    89   45  101 1    
    90   46  102 1    
    91   46  103 1    
    92   46  104 1    
    93   47   48 2    
    94   47   49 am   BACKBONE|DICT|INTERRES
    95   49   50 1    
    96   49  105 1    
    97   50   51 1    
    98   50   52 1    
    99   50  106 1    
   100   51  107 1    
   101   51  108 1    
   102   51  109 1    
   103   52   53 2    
   104   52   54 am   BACKBONE|DICT|INTERRES
   105   54   55 1    
   106   54  110 1    
   107   55   56 1    
   108   55   59 1    
   109   55  111 1    
   110   56   57 am   BACKBONE|DICT|INTERRES
   111   56   58 2    
   112   57  112 1    
   113   57  113 1    
   114   59   60 1    
   115   59  114 1    
   116   59  115 1    
   117   60   61 1    
   118   61  116 1    
   119   61  117 1    
@<TRIPOS>SUBSTRUCTURE
     1 UNK         1 GROUP             0       ****    0 ROOT    
