@<TRIPOS>MOLECULE
3R8
117   119    1
SMALL
USER_CHARGES


@<TRIPOS>ATOM
      1 CA         14.2552  -22.5636  -46.8559 C.3       0 UNK        -0.2013 
      2 C          15.0089  -23.7914  -46.3685 C.2       0 UNK         0.4866 
      3 O          15.2772  -24.7003  -47.1539 O.2       0 UNK        -0.5176 
      4 N          15.3815  -23.8206  -45.0824 N.am      1 UNK        -0.4884 
      5 CA         16.0801  -24.9259  -44.4045 C.3       1 UNK         0.0853 
      6 C6         15.7353  -24.9385  -42.8841 C.3       10 UNK        -0.0849 
      7 S7         15.2780  -26.5923  -42.2605 S.3       10 UNK        -0.2776 
      8 C8         16.8402  -27.1622  -41.5046 C.3       10 UNK         0.0316 
      9 C9         17.3680  -28.4804  -42.0734 C.ar      10 UNK        -0.0863 
     10 C10        18.0878  -29.3461  -41.2428 C.ar      10 UNK        -0.1009 
     11 C11        18.5738  -30.5650  -41.7269 C.ar      10 UNK        -0.0712 
     12 C12        18.3427  -30.9161  -43.0603 C.ar      10 UNK        -0.0894 
     13 C13        17.6404  -30.0574  -43.9100 C.ar      10 UNK        -0.0745 
     14 C14        17.1604  -28.8429  -43.4093 C.ar      10 UNK        -0.0972 
     15 C15        17.3406  -30.4798  -45.3439 C.3       10 UNK         0.0209 
     16 S16        17.6022  -29.1492  -46.5620 S.3       10 UNK        -0.2568 
     17 C17        19.3905  -29.2739  -46.9176 C.3       10 UNK        -0.0983 
     18 CA         20.2722  -28.1419  -46.3184 C.3       3 UNK         0.0876 
     19 N          19.6179  -26.8322  -46.3828 N.am      3 UNK        -0.4424 
     20 C          20.2345  -25.6466  -46.4374 C.2       2 UNK         0.4918 
     21 O          21.4567  -25.5144  -46.4907 O.2       2 UNK        -0.4875 
     22 CA         19.3440  -24.3908  -46.4290 C.3       2 UNK         0.0481 
     23 CB         19.2871  -23.7664  -47.8325 C.3       2 UNK        -0.1831 
     24 N          17.9732  -24.6095  -45.9530 N.am      2 UNK        -0.4498 
     25 C          17.6049  -24.9258  -44.7029 C.2       1 UNK         0.5027 
     26 O          18.4200  -25.1859  -43.8166 O.2       1 UNK        -0.4969 
     27 C          20.8519  -28.4892  -44.9271 C.2       3 UNK         0.5005 
     28 O          21.4775  -29.5437  -44.7985 O.2       3 UNK        -0.5279 
     29 N          20.6873  -27.6122  -43.9240 N.am      4 UNK        -0.4463 
     30 CA         21.3613  -27.7136  -42.6275 C.3       4 UNK         0.0283 
     31 CB         20.8012  -26.6561  -41.6658 C.3       4 UNK        -0.1875 
     32 C          22.8860  -27.5471  -42.7498 C.2       4 UNK         0.4949 
     33 O          23.3543  -26.7041  -43.5175 O.2       4 UNK        -0.5039 
     34 N          23.6233  -28.3214  -41.9504 N.am      5 UNK        -0.4663 
     35 CA         25.0805  -28.3135  -41.8539 C.3       5 UNK         0.0242 
     36 CB         25.7294  -28.9753  -43.0888 C.3       5 UNK        -0.1982 
     37 C          25.4327  -29.0264  -40.5466 C.2       5 UNK         0.5017 
     38 O          25.6854  -30.2342  -40.5540 O.2       5 UNK        -0.5012 
     39 N          25.3502  -28.2760  -39.4387 N.am      6 UNK        -0.4439 
     40 CA         25.4660  -28.7466  -38.0533 C.3       6 UNK         0.0297 
     41 CB         26.9129  -29.2029  -37.7501 C.3       6 UNK        -0.2006 
     42 C          24.3843  -29.8001  -37.7329 C.2       6 UNK         0.4892 
     43 O          23.2427  -29.6369  -38.1678 O.2       6 UNK        -0.5089 
     44 N          24.7508  -30.8526  -36.9918 N.am      7 UNK        -0.4243 
     45 CA         23.8872  -32.0015  -36.7083 C.3       7 UNK         0.0196 
     46 CB         24.3408  -32.6487  -35.3887 C.3       7 UNK        -0.2007 
     47 C          23.8838  -33.0436  -37.8434 C.2       7 UNK         0.5020 
     48 O          23.0071  -33.9079  -37.8537 O.2       7 UNK        -0.5147 
     49 N          24.8701  -32.9793  -38.7502 N.am      8 UNK        -0.4734 
     50 CA         25.0386  -33.9227  -39.8573 C.3       8 UNK         0.0238 
     51 CB         26.4888  -33.8660  -40.3678 C.3       8 UNK        -0.1912 
     52 C          24.0426  -33.6653  -40.9973 C.2       8 UNK         0.5038 
     53 O          23.3648  -34.6005  -41.4263 O.2       8 UNK        -0.5046 
     54 N          23.9777  -32.4050  -41.4468 N.am      9 UNK        -0.4200 
     55 CA         23.1539  -31.9064  -42.5609 C.3       9 UNK         0.0839 
     56 C          23.5763  -32.4492  -43.9584 C.2       9 UNK         0.5513 
     57 N          23.0290  -31.8876  -45.0267 N.am      9 UNK        -0.7519 
     58 O          24.4082  -33.3432  -44.1004 O.2       9 UNK        -0.4960 
     59 C59        21.6269  -32.0395  -42.3046 C.3       10 UNK        -0.0876 
     60 S60        21.1021  -31.2081  -40.7672 S.3       10 UNK        -0.2414 
     61 C61        19.3103  -31.5179  -40.7949 C.3       10 UNK         0.0169 
     62 H62        14.0943  -21.8395  -46.0575 H         1 UNK         0.0903 
     63 H63        14.8133  -22.0723  -47.6525 H         1 UNK         0.0903 
     64 H64        13.2821  -22.8542  -47.2509 H         1 UNK         0.0903 
     65 H65        15.1747  -23.0207  -44.5001 H         1 UNK         0.3096 
     66 H66        15.7022  -25.8520  -44.8443 H         1 UNK         0.1121 
     67 H67        14.8589  -24.3168  -42.6932 H         1 UNK         0.0849 
     68 H68        16.5170  -24.4902  -42.2682 H         1 UNK         0.0849 
     69 H69        16.6719  -27.2629  -40.4313 H         1 UNK         0.0865 
     70 H70        17.6062  -26.3984  -41.6187 H         1 UNK         0.0865 
     71 H71        18.2640  -29.0774  -40.2101 H         1 UNK         0.1346 
     72 H72        18.6978  -31.8672  -43.4320 H         1 UNK         0.1412 
     73 H73        16.6084  -28.1866  -44.0657 H         1 UNK         0.1426 
     74 H74        16.2947  -30.7852  -45.3924 H         1 UNK         0.0716 
     75 H75        17.9261  -31.3551  -45.6288 H         1 UNK         0.0716 
     76 H76        19.4809  -29.2362  -48.0042 H         1 UNK         0.0695 
     77 H77        19.7599  -30.2641  -46.6448 H         1 UNK         0.0695 
     78 H78        21.1566  -28.0812  -46.9569 H         1 UNK         0.0983 
     79 H79        18.6086  -26.8523  -46.3541 H         1 UNK         0.3095 
     80 H80        19.8135  -23.6704  -45.7561 H         1 UNK         0.0454 
     81 H81        18.7425  -22.8222  -47.8260 H         1 UNK         0.0851 
     82 H82        18.8018  -24.4298  -48.5495 H         1 UNK         0.0851 
     83 H83        20.2892  -23.5563  -48.2094 H         1 UNK         0.0851 
     84 H84        17.2256  -24.4653  -46.6239 H         1 UNK         0.2976 
     85 H85        20.1550  -26.7697  -44.0963 H         1 UNK         0.3116 
     86 H86        21.1442  -28.7014  -42.2194 H         1 UNK         0.0646 
     87 H87        19.7571  -26.8501  -41.4396 H         1 UNK         0.0847 
     88 H88        20.8783  -25.6496  -42.0792 H         1 UNK         0.0847 
     89 H89        21.3368  -26.6637  -40.7155 H         1 UNK         0.0847 
     90 H90        23.1530  -28.9555  -41.3158 H         1 UNK         0.3040 
     91 H91        25.4307  -27.2806  -41.7924 H         1 UNK         0.1015 
     92 H92        25.4767  -28.4451  -44.0070 H         1 UNK         0.0786 
     93 H93        25.4262  -30.0141  -43.2118 H         1 UNK         0.0786 
     94 H94        26.8164  -28.9667  -43.0017 H         1 UNK         0.0786 
     95 H95        25.0710  -27.3102  -39.5430 H         1 UNK         0.3172 
     96 H96        25.2497  -27.8867  -37.4177 H         1 UNK         0.0595 
     97 H97        27.1837  -30.1084  -38.2946 H         1 UNK         0.0839 
     98 H98        27.0565  -29.3956  -36.6863 H         1 UNK         0.0839 
     99 H99        27.6305  -28.4302  -38.0261 H         1 UNK         0.0839 
    100 H100       25.7027  -30.9032  -36.6580 H         1 UNK         0.2998 
    101 H101       22.8590  -31.6550  -36.5808 H         1 UNK         0.0822 
    102 H102       24.2959  -31.9388  -34.5624 H         1 UNK         0.0787 
    103 H103       23.6981  -33.4901  -35.1253 H         1 UNK         0.0787 
    104 H104       25.3619  -33.0269  -35.4531 H         1 UNK         0.0787 
    105 H105       25.5231  -32.2107  -38.7006 H         1 UNK         0.3055 
    106 H106       24.8544  -34.9323  -39.4820 H         1 UNK         0.1106 
    107 H107       26.7589  -32.8702  -40.7218 H         1 UNK         0.0828 
    108 H108       27.1949  -34.1464  -39.5862 H         1 UNK         0.0828 
    109 H109       26.6356  -34.5572  -41.1990 H         1 UNK         0.0828 
    110 H110       24.6019  -31.7180  -41.0333 H         1 UNK         0.2931 
    111 H111       23.3714  -30.8431  -42.6034 H         1 UNK         0.0412 
    112 H112       22.4024  -31.0882  -44.9341 H         1 UNK         0.3472 
    113 H113       23.2922  -32.2131  -45.9429 H         1 UNK         0.3472 
    114 H114       21.3297  -33.0883  -42.2648 H         1 UNK         0.0970 
    115 H115       21.0695  -31.5946  -43.1286 H         1 UNK         0.0970 
    116 H116       19.1202  -32.5544  -41.0778 H         1 UNK         0.0612 
    117 H117       18.9254  -31.4076  -39.7800 H         1 UNK         0.0612 
@<TRIPOS>BOND
     1    1    2 1    
     2    1   62 1    
     3    1   63 1    
     4    1   64 1    
     5    2    3 2    
     6    2    4 am   BACKBONE|DICT|INTERRES
     7    4    5 1    
     8    4   65 1    
     9    5    6 1    
    10    5   25 1    
    11    5   66 1    
    12    6    7 1    
    13    6   67 1    
    14    6   68 1    
    15    7    8 1    
    16    8    9 1    
    17    8   69 1    
    18    8   70 1    
    19    9   10 ar   
    20    9   14 ar   
    21   10   11 ar   
    22   10   71 1    
    23   11   12 ar   
    24   11   61 1    
    25   12   13 ar   
    26   12   72 1    
    27   13   14 ar   
    28   13   15 1    
    29   14   73 1    
    30   15   16 1    
    31   15   74 1    
    32   15   75 1    
    33   16   17 1    
    34   17   18 1    
    35   17   76 1    
    36   17   77 1    
    37   18   19 1    
    38   18   27 1    
    39   18   78 1    
    40   19   20 am   BACKBONE|DICT|INTERRES
    41   19   79 1    
    42   20   21 2    
    43   20   22 1    
    44   22   23 1    
    45   22   24 1    
    46   22   80 1    
    47   23   81 1    
    48   23   82 1    
    49   23   83 1    
    50   24   25 am   BACKBONE|DICT|INTERRES
    51   24   84 1    
    52   25   26 2    
    53   27   28 2    
    54   27   29 am   BACKBONE|DICT|INTERRES
    55   29   30 1    
    56   29   85 1    
    57   30   31 1    
    58   30   32 1    
    59   30   86 1    
    60   31   87 1    
    61   31   88 1    
    62   31   89 1    
    63   32   33 2    
    64   32   34 am   BACKBONE|DICT|INTERRES
    65   34   35 1    
    66   34   90 1    
    67   35   36 1    
    68   35   37 1    
    69   35   91 1    
    70   36   92 1    
    71   36   93 1    
    72   36   94 1    
    73   37   38 2    
    74   37   39 am   BACKBONE|DICT|INTERRES
    75   39   40 1    
    76   39   95 1    
    77   40   41 1    
    78   40   42 1    
    79   40   96 1    
    80   41   97 1    
    81   41   98 1    
    82   41   99 1    
    83   42   43 2    
    84   42   44 am   BACKBONE|DICT|INTERRES
    85   44   45 1    
    86   44  100 1    
    87   45   46 1    
    88   45   47 1    
    89   45  101 1    
    90   46  102 1    
    91   46  103 1    
    92   46  104 1    
    93   47   48 2    
    94   47   49 am   BACKBONE|DICT|INTERRES
    95   49   50 1    
    96   49  105 1    
    97   50   51 1    
    98   50   52 1    
    99   50  106 1    
   100   51  107 1    
   101   51  108 1    
   102   51  109 1    
   103   52   53 2    
   104   52   54 am   BACKBONE|DICT|INTERRES
   105   54   55 1    
   106   54  110 1    
   107   55   56 1    
   108   55   59 1    
   109   55  111 1    
   110   56   57 am   BACKBONE|DICT|INTERRES
   111   56   58 2    
   112   57  112 1    
   113   57  113 1    
   114   59   60 1    
   115   59  114 1    
   116   59  115 1    
   117   60   61 1    
   118   61  116 1    
   119   61  117 1    
@<TRIPOS>SUBSTRUCTURE
     1 UNK         1 GROUP             0       ****    0 ROOT    
