@<TRIPOS>MOLECULE
3R8
117   119    1
SMALL
USER_CHARGES


@<TRIPOS>ATOM
      1 CA         16.5528  -27.5955  -39.0601 C.3       0 UNK        -0.2013 
      2 C          16.3119  -27.1430  -40.4917 C.2       0 UNK         0.4866 
      3 O          15.9272  -25.9954  -40.7209 O.2       0 UNK        -0.5176 
      4 N          16.5237  -28.0485  -41.4542 N.am      1 UNK        -0.4884 
      5 CA         16.4210  -27.7951  -42.8951 C.3       1 UNK         0.0853 
      6 C6         16.4766  -29.1190  -43.6923 C.3       10 UNK        -0.0849 
      7 S7         15.6204  -29.0175  -45.3012 S.3       10 UNK        -0.2776 
      8 C8         15.8992  -30.6949  -45.9633 C.3       10 UNK         0.0316 
      9 C9         17.3839  -30.9871  -46.1167 C.ar      10 UNK        -0.0863 
     10 C10        18.0521  -31.7562  -45.1592 C.ar      10 UNK        -0.1009 
     11 C11        19.4372  -31.9285  -45.2301 C.ar      10 UNK        -0.0712 
     12 C12        20.1452  -31.3728  -46.2988 C.ar      10 UNK        -0.0894 
     13 C13        19.4841  -30.6151  -47.2702 C.ar      10 UNK        -0.0745 
     14 C14        18.1014  -30.4337  -47.1802 C.ar      10 UNK        -0.0972 
     15 C15        20.2712  -29.9452  -48.3859 C.3       10 UNK         0.0209 
     16 S16        20.3753  -28.1413  -48.1482 S.3       10 UNK        -0.2568 
     17 C17        21.3082  -28.0230  -46.5835 C.3       10 UNK        -0.0983 
     18 CA         21.1748  -26.6304  -45.9256 C.3       3 UNK         0.0876 
     19 N          19.7811  -26.2830  -45.6209 N.am      3 UNK        -0.4424 
     20 C          19.3695  -25.0529  -45.2860 C.2       2 UNK         0.4918 
     21 O          20.1146  -24.0730  -45.2471 O.2       2 UNK        -0.4875 
     22 CA         17.8818  -24.8595  -44.9370 C.3       2 UNK         0.0481 
     23 CB         17.1257  -24.3018  -46.1539 C.3       2 UNK        -0.1831 
     24 N          17.1610  -26.0336  -44.4285 N.am      2 UNK        -0.4498 
     25 C          17.4974  -26.7937  -43.3761 C.2       1 UNK         0.5027 
     26 O          18.5913  -26.7420  -42.8068 O.2       1 UNK        -0.4969 
     27 C          22.0922  -26.5288  -44.6874 C.2       3 UNK         0.5005 
     28 O          23.2571  -26.1593  -44.8452 O.2       3 UNK        -0.5279 
     29 N          21.5468  -26.8276  -43.4948 N.am      4 UNK        -0.4463 
     30 CA         22.1847  -26.7641  -42.1747 C.3       4 UNK         0.0283 
     31 CB         22.2500  -25.2951  -41.7002 C.3       4 UNK        -0.1875 
     32 C          23.5357  -27.5112  -42.1177 C.2       4 UNK         0.4949 
     33 O          23.5500  -28.7339  -42.2661 O.2       4 UNK        -0.5039 
     34 N          24.6325  -26.7649  -41.9117 N.am      5 UNK        -0.4663 
     35 CA         26.0284  -27.2166  -41.8409 C.3       5 UNK         0.0242 
     36 CB         26.4742  -27.8005  -43.2020 C.3       5 UNK        -0.1982 
     37 C          26.2939  -28.1655  -40.6545 C.2       5 UNK         0.5017 
     38 O          25.5164  -28.1907  -39.6977 O.2       5 UNK        -0.5012 
     39 N          27.3959  -28.9263  -40.7273 N.am      6 UNK        -0.4439 
     40 CA         27.8276  -29.8943  -39.7104 C.3       6 UNK         0.0297 
     41 CB         29.2312  -30.4104  -40.0667 C.3       6 UNK        -0.2006 
     42 C          26.8559  -31.0736  -39.5117 C.2       6 UNK         0.4892 
     43 O          26.8607  -31.6836  -38.4421 O.2       6 UNK        -0.5089 
     44 N          26.0340  -31.3609  -40.5308 N.am      7 UNK        -0.4243 
     45 CA         24.9501  -32.3431  -40.4825 C.3       7 UNK         0.0196 
     46 CB         24.5049  -32.6602  -41.9194 C.3       7 UNK        -0.2007 
     47 C          23.7455  -31.8790  -39.6426 C.2       7 UNK         0.5020 
     48 O          22.9470  -32.7241  -39.2361 O.2       7 UNK        -0.5147 
     49 N          23.6172  -30.5613  -39.4175 N.am      8 UNK        -0.4734 
     50 CA         22.5523  -29.8327  -38.7120 C.3       8 UNK         0.0238 
     51 CB         22.4437  -30.2667  -37.2374 C.3       8 UNK        -0.1912 
     52 C          21.1823  -29.8739  -39.4119 C.2       8 UNK         0.5038 
     53 O          20.5542  -28.8246  -39.5523 O.2       8 UNK        -0.5046 
     54 N          20.7554  -31.0679  -39.8402 N.am      9 UNK        -0.4200 
     55 CA         19.5392  -31.3445  -40.6201 C.3       9 UNK         0.0839 
     56 C          18.2091  -30.9665  -39.9019 C.2       9 UNK         0.5513 
     57 N          18.1597  -30.9758  -38.5755 N.am      9 UNK        -0.7519 
     58 O          17.2051  -30.6764  -40.5476 O.2       9 UNK        -0.4960 
     59 C59        19.6309  -30.7926  -42.0701 C.3       10 UNK        -0.0876 
     60 S60        21.0267  -31.5145  -43.0027 S.3       10 UNK        -0.2414 
     61 C61        20.1804  -32.6711  -44.1298 C.3       10 UNK         0.0169 
     62 H62        16.1245  -26.8868  -38.3515 H         1 UNK         0.0903 
     63 H63        16.0981  -28.5693  -38.8800 H         1 UNK         0.0903 
     64 H64        17.6227  -27.6722  -38.8642 H         1 UNK         0.0903 
     65 H65        16.8236  -28.9839  -41.1867 H         1 UNK         0.3096 
     66 H66        15.4420  -27.3350  -43.0495 H         1 UNK         0.1121 
     67 H67        17.5119  -29.4256  -43.8431 H         1 UNK         0.0849 
     68 H68        16.0008  -29.9236  -43.1283 H         1 UNK         0.0849 
     69 H69        15.4246  -31.4277  -45.3087 H         1 UNK         0.0865 
     70 H70        15.4051  -30.7846  -46.9319 H         1 UNK         0.0865 
     71 H71        17.5007  -32.1757  -44.3288 H         1 UNK         0.1346 
     72 H72        21.2188  -31.4947  -46.3471 H         1 UNK         0.1412 
     73 H73        17.5918  -29.8224  -47.9129 H         1 UNK         0.1426 
     74 H74        19.7883  -30.1502  -49.3424 H         1 UNK         0.0716 
     75 H75        21.2792  -30.3573  -48.4553 H         1 UNK         0.0716 
     76 H76        20.9655  -28.7895  -45.8878 H         1 UNK         0.0695 
     77 H77        22.3539  -28.2493  -46.8016 H         1 UNK         0.0695 
     78 H78        21.5409  -25.8917  -46.6428 H         1 UNK         0.0983 
     79 H79        19.1057  -27.0318  -45.6598 H         1 UNK         0.3095 
     80 H80        17.8433  -24.1081  -44.1460 H         1 UNK         0.0454 
     81 H81        17.6135  -23.4068  -46.5430 H         1 UNK         0.0851 
     82 H82        17.0815  -25.0274  -46.9671 H         1 UNK         0.0851 
     83 H83        16.1043  -24.0217  -45.8958 H         1 UNK         0.0851 
     84 H84        16.2647  -26.2114  -44.8602 H         1 UNK         0.2976 
     85 H85        20.5626  -27.0731  -43.4754 H         1 UNK         0.3116 
     86 H86        21.5185  -27.2957  -41.4951 H         1 UNK         0.0646 
     87 H87        22.6680  -25.2201  -40.6953 H         1 UNK         0.0847 
     88 H88        21.2516  -24.8588  -41.6596 H         1 UNK         0.0847 
     89 H89        22.8497  -24.6726  -42.3654 H         1 UNK         0.0847 
     90 H90        24.4952  -25.7723  -41.7851 H         1 UNK         0.3040 
     91 H91        26.6241  -26.3225  -41.6500 H         1 UNK         0.1015 
     92 H92        26.1890  -27.1413  -44.0226 H         1 UNK         0.0786 
     93 H93        26.0241  -28.7753  -43.3942 H         1 UNK         0.0786 
     94 H94        27.5568  -27.9178  -43.2566 H         1 UNK         0.0786 
     95 H95        27.9848  -28.8370  -41.5432 H         1 UNK         0.3172 
     96 H96        27.8910  -29.3648  -38.7574 H         1 UNK         0.0595 
     97 H97        29.5926  -31.1104  -39.3119 H         1 UNK         0.0839 
     98 H98        29.9539  -29.5959  -40.1199 H         1 UNK         0.0839 
     99 H99        29.2398  -30.9327  -41.0243 H         1 UNK         0.0839 
    100 H100       26.1057  -30.8065  -41.3714 H         1 UNK         0.2998 
    101 H101       25.3332  -33.2597  -40.0288 H         1 UNK         0.0822 
    102 H102       25.3253  -33.0675  -42.5104 H         1 UNK         0.0787 
    103 H103       23.7024  -33.3994  -41.9268 H         1 UNK         0.0787 
    104 H104       24.1303  -31.7709  -42.4291 H         1 UNK         0.0787 
    105 H105       24.3261  -29.9551  -39.8167 H         1 UNK         0.3055 
    106 H106       22.8676  -28.7876  -38.7208 H         1 UNK         0.1106 
    107 H107       22.1215  -31.3031  -37.1354 H         1 UNK         0.0828 
    108 H108       23.3993  -30.1611  -36.7238 H         1 UNK         0.0828 
    109 H109       21.7194  -29.6493  -36.7044 H         1 UNK         0.0828 
    110 H110       21.3647  -31.8622  -39.6624 H         1 UNK         0.2931 
    111 H111       19.4945  -32.4311  -40.7007 H         1 UNK         0.0412 
    112 H112       18.9762  -31.2162  -38.0366 H         1 UNK         0.3472 
    113 H113       17.2960  -30.7483  -38.1098 H         1 UNK         0.3472 
    114 H114       18.7085  -30.9999  -42.6084 H         1 UNK         0.0970 
    115 H115       19.7369  -29.7062  -42.0639 H         1 UNK         0.0970 
    116 H116       20.9228  -33.3337  -44.5768 H         1 UNK         0.0612 
    117 H117       19.5030  -33.3080  -43.5588 H         1 UNK         0.0612 
@<TRIPOS>BOND
     1    1    2 1    
     2    1   62 1    
     3    1   63 1    
     4    1   64 1    
     5    2    3 2    
     6    2    4 am   BACKBONE|DICT|INTERRES
     7    4    5 1    
     8    4   65 1    
     9    5    6 1    
    10    5   25 1    
    11    5   66 1    
    12    6    7 1    
    13    6   67 1    
    14    6   68 1    
    15    7    8 1    
    16    8    9 1    
    17    8   69 1    
    18    8   70 1    
    19    9   10 ar   
    20    9   14 ar   
    21   10   11 ar   
    22   10   71 1    
    23   11   12 ar   
    24   11   61 1    
    25   12   13 ar   
    26   12   72 1    
    27   13   14 ar   
    28   13   15 1    
    29   14   73 1    
    30   15   16 1    
    31   15   74 1    
    32   15   75 1    
    33   16   17 1    
    34   17   18 1    
    35   17   76 1    
    36   17   77 1    
    37   18   19 1    
    38   18   27 1    
    39   18   78 1    
    40   19   20 am   BACKBONE|DICT|INTERRES
    41   19   79 1    
    42   20   21 2    
    43   20   22 1    
    44   22   23 1    
    45   22   24 1    
    46   22   80 1    
    47   23   81 1    
    48   23   82 1    
    49   23   83 1    
    50   24   25 am   BACKBONE|DICT|INTERRES
    51   24   84 1    
    52   25   26 2    
    53   27   28 2    
    54   27   29 am   BACKBONE|DICT|INTERRES
    55   29   30 1    
    56   29   85 1    
    57   30   31 1    
    58   30   32 1    
    59   30   86 1    
    60   31   87 1    
    61   31   88 1    
    62   31   89 1    
    63   32   33 2    
    64   32   34 am   BACKBONE|DICT|INTERRES
    65   34   35 1    
    66   34   90 1    
    67   35   36 1    
    68   35   37 1    
    69   35   91 1    
    70   36   92 1    
    71   36   93 1    
    72   36   94 1    
    73   37   38 2    
    74   37   39 am   BACKBONE|DICT|INTERRES
    75   39   40 1    
    76   39   95 1    
    77   40   41 1    
    78   40   42 1    
    79   40   96 1    
    80   41   97 1    
    81   41   98 1    
    82   41   99 1    
    83   42   43 2    
    84   42   44 am   BACKBONE|DICT|INTERRES
    85   44   45 1    
    86   44  100 1    
    87   45   46 1    
    88   45   47 1    
    89   45  101 1    
    90   46  102 1    
    91   46  103 1    
    92   46  104 1    
    93   47   48 2    
    94   47   49 am   BACKBONE|DICT|INTERRES
    95   49   50 1    
    96   49  105 1    
    97   50   51 1    
    98   50   52 1    
    99   50  106 1    
   100   51  107 1    
   101   51  108 1    
   102   51  109 1    
   103   52   53 2    
   104   52   54 am   BACKBONE|DICT|INTERRES
   105   54   55 1    
   106   54  110 1    
   107   55   56 1    
   108   55   59 1    
   109   55  111 1    
   110   56   57 am   BACKBONE|DICT|INTERRES
   111   56   58 2    
   112   57  112 1    
   113   57  113 1    
   114   59   60 1    
   115   59  114 1    
   116   59  115 1    
   117   60   61 1    
   118   61  116 1    
   119   61  117 1    
@<TRIPOS>SUBSTRUCTURE
     1 UNK         1 GROUP             0       ****    0 ROOT    
