@<TRIPOS>MOLECULE
3R8
117   119    1
SMALL
USER_CHARGES


@<TRIPOS>ATOM
      1 CA         16.7505  -22.8851  -45.7029 C.3       0 UNK        -0.2013 
      2 C          16.7026  -24.0659  -44.7450 C.2       0 UNK         0.4866 
      3 O          16.3627  -23.8877  -43.5760 O.2       0 UNK        -0.5176 
      4 N          17.0609  -25.2634  -45.2302 N.am      1 UNK        -0.4884 
      5 CA         17.0473  -26.5575  -44.5218 C.3       1 UNK         0.0853 
      6 C6         15.6339  -26.9846  -44.0365 C.3       10 UNK        -0.0849 
      7 S7         14.5835  -27.4171  -45.4677 S.3       10 UNK        -0.2776 
      8 C8         14.3597  -29.2220  -45.2907 C.3       10 UNK         0.0316 
      9 C9         15.6453  -29.9711  -44.9533 C.ar      10 UNK        -0.0863 
     10 C10        15.7500  -30.6552  -43.7388 C.ar      10 UNK        -0.1009 
     11 C11        16.9153  -31.3520  -43.4100 C.ar      10 UNK        -0.0712 
     12 C12        17.9917  -31.3530  -44.3030 C.ar      10 UNK        -0.0894 
     13 C13        17.9040  -30.6662  -45.5176 C.ar      10 UNK        -0.0745 
     14 C14        16.7231  -29.9896  -45.8442 C.ar      10 UNK        -0.0972 
     15 C15        19.0736  -30.6663  -46.4900 C.3       10 UNK         0.0209 
     16 S16        20.0328  -29.1240  -46.3822 S.3       10 UNK        -0.2568 
     17 C17        21.3633  -29.5702  -45.2148 C.3       10 UNK        -0.0983 
     18 CA         22.0360  -28.2988  -44.6444 C.3       3 UNK         0.0876 
     19 N          21.1293  -27.5626  -43.7621 N.am      3 UNK        -0.4424 
     20 C          21.3509  -26.3513  -43.2379 C.2       2 UNK         0.4918 
     21 O          22.4006  -25.7244  -43.3901 O.2       2 UNK        -0.4875 
     22 CA         20.1938  -25.7399  -42.4253 C.3       2 UNK         0.0481 
     23 CB         20.5182  -24.3301  -41.8994 C.3       2 UNK        -0.1831 
     24 N          18.9773  -25.6858  -43.2382 N.am      2 UNK        -0.4498 
     25 C          18.1321  -26.7075  -43.4320 C.2       1 UNK         0.5027 
     26 O          18.2553  -27.7839  -42.8468 O.2       1 UNK        -0.4969 
     27 C          23.3665  -28.6105  -43.9325 C.2       3 UNK         0.5005 
     28 O          23.3578  -29.2659  -42.8868 O.2       3 UNK        -0.5279 
     29 N          24.4697  -28.0890  -44.4928 N.am      4 UNK        -0.4463 
     30 CA         25.8370  -28.1023  -43.9542 C.3       4 UNK         0.0283 
     31 CB         26.4185  -29.5312  -43.9647 C.3       4 UNK        -0.1875 
     32 C          25.9235  -27.4347  -42.5679 C.2       4 UNK         0.4949 
     33 O          26.4737  -28.0205  -41.6375 O.2       4 UNK        -0.5039 
     34 N          25.3136  -26.2458  -42.4372 N.am      5 UNK        -0.4663 
     35 CA         25.1230  -25.4932  -41.1848 C.3       5 UNK         0.0242 
     36 CB         26.4714  -24.9888  -40.6274 C.3       5 UNK        -0.1982 
     37 C          24.2971  -26.2823  -40.1462 C.2       5 UNK         0.5017 
     38 O          24.5573  -26.1994  -38.9455 O.2       5 UNK        -0.5012 
     39 N          23.3299  -27.0530  -40.6617 N.am      6 UNK        -0.4439 
     40 CA         22.4352  -27.9958  -39.9854 C.3       6 UNK         0.0297 
     41 CB         21.5940  -27.2981  -38.8960 C.3       6 UNK        -0.2006 
     42 C          23.1293  -29.2732  -39.4718 C.2       6 UNK         0.4892 
     43 O          22.4926  -30.0327  -38.7422 O.2       6 UNK        -0.5089 
     44 N          24.3881  -29.5236  -39.8661 N.am      7 UNK        -0.4243 
     45 CA         25.1287  -30.7331  -39.4965 C.3       7 UNK         0.0196 
     46 CB         26.6399  -30.4812  -39.6138 C.3       7 UNK        -0.2007 
     47 C          24.7283  -31.9598  -40.3319 C.2       7 UNK         0.5020 
     48 O          24.8359  -33.0781  -39.8280 O.2       7 UNK        -0.5147 
     49 N          24.2849  -31.7517  -41.5817 N.am      8 UNK        -0.4734 
     50 CA         23.8260  -32.8328  -42.4628 C.3       8 UNK         0.0238 
     51 CB         24.0724  -32.4591  -43.9334 C.3       8 UNK        -0.1912 
     52 C          22.3473  -33.1788  -42.2337 C.2       8 UNK         0.5038 
     53 O          21.9372  -34.2936  -42.5587 O.2       8 UNK        -0.5046 
     54 N          21.5781  -32.2292  -41.6857 N.am      9 UNK        -0.4200 
     55 CA         20.1873  -32.4246  -41.2698 C.3       9 UNK         0.0839 
     56 C          20.1138  -33.2926  -39.9828 C.2       9 UNK         0.5513 
     57 N          19.3579  -34.3823  -40.0029 N.am      9 UNK        -0.7519 
     58 O          20.7200  -32.9735  -38.9635 O.2       9 UNK        -0.4960 
     59 C59        19.4653  -31.0567  -41.1279 C.3       10 UNK        -0.0876 
     60 S60        17.6809  -31.1503  -40.7359 S.3       10 UNK        -0.2414 
     61 C61        16.9837  -32.1311  -42.1051 C.3       10 UNK         0.0169 
     62 H62        15.7606  -22.4391  -45.7959 H         1 UNK         0.0903 
     63 H63        17.0840  -23.1784  -46.6982 H         1 UNK         0.0903 
     64 H64        17.4330  -22.1233  -45.3271 H         1 UNK         0.0903 
     65 H65        17.3413  -25.3237  -46.2000 H         1 UNK         0.3096 
     66 H66        17.3618  -27.2863  -45.2704 H         1 UNK         0.1121 
     67 H67        15.1507  -26.1891  -43.4689 H         1 UNK         0.0849 
     68 H68        15.6812  -27.8326  -43.3523 H         1 UNK         0.0849 
     69 H69        13.6006  -29.3998  -44.5272 H         1 UNK         0.0865 
     70 H70        13.9496  -29.6191  -46.2202 H         1 UNK         0.0865 
     71 H71        14.9198  -30.6514  -43.0455 H         1 UNK         0.1346 
     72 H72        18.8958  -31.8912  -44.0567 H         1 UNK         0.1412 
     73 H73        16.6485  -29.4615  -46.7853 H         1 UNK         0.1426 
     74 H74        19.7248  -31.5254  -46.3206 H         1 UNK         0.0716 
     75 H75        18.6949  -30.7707  -47.5079 H         1 UNK         0.0716 
     76 H76        22.0846  -30.1837  -45.7579 H         1 UNK         0.0695 
     77 H77        20.9628  -30.1928  -44.4121 H         1 UNK         0.0695 
     78 H78        22.2593  -27.6367  -45.4843 H         1 UNK         0.0983 
     79 H79        20.2361  -28.0015  -43.5719 H         1 UNK         0.3095 
     80 H80        20.0240  -26.3847  -41.5608 H         1 UNK         0.0454 
     81 H81        19.6951  -23.9293  -41.3077 H         1 UNK         0.0851 
     82 H82        20.7199  -23.6305  -42.7113 H         1 UNK         0.0851 
     83 H83        21.3991  -24.3471  -41.2561 H         1 UNK         0.0851 
     84 H84        18.8230  -24.8442  -43.7746 H         1 UNK         0.2976 
     85 H85        24.3558  -27.5561  -45.3448 H         1 UNK         0.3116 
     86 H86        26.4435  -27.4944  -44.6273 H         1 UNK         0.0646 
     87 H87        26.3301  -29.9921  -44.9481 H         1 UNK         0.0847 
     88 H88        27.4775  -29.5211  -43.7043 H         1 UNK         0.0847 
     89 H89        25.9186  -30.1755  -43.2432 H         1 UNK         0.0847 
     90 H90        24.8391  -25.8646  -43.2467 H         1 UNK         0.3040 
     91 H91        24.5233  -24.6178  -41.4405 H         1 UNK         0.1015 
     92 H92        27.0294  -24.4335  -41.3811 H         1 UNK         0.0786 
     93 H93        27.1007  -25.8087  -40.2798 H         1 UNK         0.0786 
     94 H94        26.3172  -24.3186  -39.7808 H         1 UNK         0.0786 
     95 H95        23.2648  -27.0576  -41.6714 H         1 UNK         0.3172 
     96 H96        21.7416  -28.3364  -40.7554 H         1 UNK         0.0595 
     97 H97        21.1146  -26.3962  -39.2757 H         1 UNK         0.0839 
     98 H98        22.1993  -27.0191  -38.0332 H         1 UNK         0.0839 
     99 H99        20.8026  -27.9556  -38.5339 H         1 UNK         0.0839 
    100 H100       24.8605  -28.8679  -40.4783 H         1 UNK         0.2998 
    101 H101       24.9118  -30.9608  -38.4503 H         1 UNK         0.0822 
    102 H102       26.9397  -29.5830  -39.0735 H         1 UNK         0.0787 
    103 H103       27.2043  -31.3162  -39.1968 H         1 UNK         0.0787 
    104 H104       26.9521  -30.3703  -40.6526 H         1 UNK         0.0787 
    105 H105       24.1810  -30.8008  -41.9273 H         1 UNK         0.3055 
    106 H106       24.4024  -33.7370  -42.2530 H         1 UNK         0.1106 
    107 H107       25.1305  -32.2876  -44.1279 H         1 UNK         0.0828 
    108 H108       23.7528  -33.2640  -44.5968 H         1 UNK         0.0828 
    109 H109       23.5230  -31.5658  -44.2248 H         1 UNK         0.0828 
    110 H110       22.0172  -31.3632  -41.4119 H         1 UNK         0.2931 
    111 H111       19.7084  -32.9733  -42.0803 H         1 UNK         0.0412 
    112 H112       18.8638  -34.6595  -40.8362 H         1 UNK         0.3472 
    113 H113       19.2939  -34.9491  -39.1715 H         1 UNK         0.3472 
    114 H114       19.9437  -30.4635  -40.3459 H         1 UNK         0.0970 
    115 H115       19.5751  -30.4751  -42.0445 H         1 UNK         0.0970 
    116 H116       15.9773  -32.4365  -41.8148 H         1 UNK         0.0612 
    117 H117       17.5326  -33.0613  -42.2422 H         1 UNK         0.0612 
@<TRIPOS>BOND
     1    1    2 1    
     2    1   62 1    
     3    1   63 1    
     4    1   64 1    
     5    2    3 2    
     6    2    4 am   BACKBONE|DICT|INTERRES
     7    4    5 1    
     8    4   65 1    
     9    5    6 1    
    10    5   25 1    
    11    5   66 1    
    12    6    7 1    
    13    6   67 1    
    14    6   68 1    
    15    7    8 1    
    16    8    9 1    
    17    8   69 1    
    18    8   70 1    
    19    9   10 ar   
    20    9   14 ar   
    21   10   11 ar   
    22   10   71 1    
    23   11   12 ar   
    24   11   61 1    
    25   12   13 ar   
    26   12   72 1    
    27   13   14 ar   
    28   13   15 1    
    29   14   73 1    
    30   15   16 1    
    31   15   74 1    
    32   15   75 1    
    33   16   17 1    
    34   17   18 1    
    35   17   76 1    
    36   17   77 1    
    37   18   19 1    
    38   18   27 1    
    39   18   78 1    
    40   19   20 am   BACKBONE|DICT|INTERRES
    41   19   79 1    
    42   20   21 2    
    43   20   22 1    
    44   22   23 1    
    45   22   24 1    
    46   22   80 1    
    47   23   81 1    
    48   23   82 1    
    49   23   83 1    
    50   24   25 am   BACKBONE|DICT|INTERRES
    51   24   84 1    
    52   25   26 2    
    53   27   28 2    
    54   27   29 am   BACKBONE|DICT|INTERRES
    55   29   30 1    
    56   29   85 1    
    57   30   31 1    
    58   30   32 1    
    59   30   86 1    
    60   31   87 1    
    61   31   88 1    
    62   31   89 1    
    63   32   33 2    
    64   32   34 am   BACKBONE|DICT|INTERRES
    65   34   35 1    
    66   34   90 1    
    67   35   36 1    
    68   35   37 1    
    69   35   91 1    
    70   36   92 1    
    71   36   93 1    
    72   36   94 1    
    73   37   38 2    
    74   37   39 am   BACKBONE|DICT|INTERRES
    75   39   40 1    
    76   39   95 1    
    77   40   41 1    
    78   40   42 1    
    79   40   96 1    
    80   41   97 1    
    81   41   98 1    
    82   41   99 1    
    83   42   43 2    
    84   42   44 am   BACKBONE|DICT|INTERRES
    85   44   45 1    
    86   44  100 1    
    87   45   46 1    
    88   45   47 1    
    89   45  101 1    
    90   46  102 1    
    91   46  103 1    
    92   46  104 1    
    93   47   48 2    
    94   47   49 am   BACKBONE|DICT|INTERRES
    95   49   50 1    
    96   49  105 1    
    97   50   51 1    
    98   50   52 1    
    99   50  106 1    
   100   51  107 1    
   101   51  108 1    
   102   51  109 1    
   103   52   53 2    
   104   52   54 am   BACKBONE|DICT|INTERRES
   105   54   55 1    
   106   54  110 1    
   107   55   56 1    
   108   55   59 1    
   109   55  111 1    
   110   56   57 am   BACKBONE|DICT|INTERRES
   111   56   58 2    
   112   57  112 1    
   113   57  113 1    
   114   59   60 1    
   115   59  114 1    
   116   59  115 1    
   117   60   61 1    
   118   61  116 1    
   119   61  117 1    
@<TRIPOS>SUBSTRUCTURE
     1 UNK         1 GROUP             0       ****    0 ROOT    
