@<TRIPOS>MOLECULE
3R8
117   119    1
SMALL
USER_CHARGES


@<TRIPOS>ATOM
      1 CA         17.6605  -28.0582  -41.9663 C.3       0 UNK        -0.2013 
      2 C          17.0035  -27.1545  -42.9971 C.2       0 UNK         0.4866 
      3 O          16.3479  -26.1791  -42.6295 O.2       0 UNK        -0.5176 
      4 N          17.1886  -27.4532  -44.2888 N.am      1 UNK        -0.4884 
      5 CA         16.6114  -26.7277  -45.4302 C.3       1 UNK         0.0853 
      6 C6         16.5344  -27.6212  -46.6984 C.3       10 UNK        -0.0849 
      7 S7         15.6981  -29.2191  -46.4053 S.3       10 UNK        -0.2776 
      8 C8         17.0235  -30.4150  -46.7815 C.3       10 UNK         0.0316 
      9 C9         18.1428  -30.3973  -45.7470 C.ar      10 UNK        -0.0863 
     10 C10        17.9904  -31.0809  -44.5374 C.ar      10 UNK        -0.1009 
     11 C11        19.0258  -31.1026  -43.5983 C.ar      10 UNK        -0.0712 
     12 C12        20.2186  -30.4278  -43.8734 C.ar      10 UNK        -0.0894 
     13 C13        20.3837  -29.7311  -45.0756 C.ar      10 UNK        -0.0745 
     14 C14        19.3425  -29.7275  -46.0099 C.ar      10 UNK        -0.0972 
     15 C15        21.6810  -28.9849  -45.3876 C.3       10 UNK         0.0209 
     16 S16        22.3507  -28.0261  -43.9835 S.3       10 UNK        -0.2568 
     17 C17        20.9257  -26.9939  -43.5108 C.3       10 UNK        -0.0983 
     18 CA         21.1907  -25.4761  -43.6640 C.3       3 UNK         0.0876 
     19 N          19.9202  -24.7686  -43.7528 N.am      3 UNK        -0.4424 
     20 C          19.6766  -23.6636  -44.4646 C.2       2 UNK         0.4918 
     21 O          20.5518  -22.9999  -45.0231 O.2       2 UNK        -0.4875 
     22 CA         18.1845  -23.2873  -44.5975 C.3       2 UNK         0.0481 
     23 CB         17.9140  -22.2772  -45.7320 C.3       2 UNK        -0.1831 
     24 N          17.3356  -24.4850  -44.7263 N.am      2 UNK        -0.4498 
     25 C          17.3896  -25.4170  -45.6932 C.2       1 UNK         0.5027 
     26 O          18.0695  -25.3012  -46.7146 O.2       1 UNK        -0.4969 
     27 C          22.0316  -24.8838  -42.5194 C.2       3 UNK         0.5005 
     28 O          22.0686  -25.4485  -41.4250 O.2       3 UNK        -0.5279 
     29 N          22.6844  -23.7434  -42.7834 N.am      4 UNK        -0.4463 
     30 CA         23.5364  -23.0260  -41.8255 C.3       4 UNK         0.0283 
     31 CB         23.9890  -21.6938  -42.4444 C.3       4 UNK        -0.1875 
     32 C          24.7546  -23.8359  -41.3403 C.2       4 UNK         0.4949 
     33 O          25.1941  -23.6452  -40.2064 O.2       4 UNK        -0.5039 
     34 N          25.2657  -24.7307  -42.1971 N.am      5 UNK        -0.4663 
     35 CA         26.3598  -25.6534  -41.8816 C.3       5 UNK         0.0242 
     36 CB         27.0329  -26.0880  -43.1943 C.3       5 UNK        -0.1982 
     37 C          25.9081  -26.8902  -41.0802 C.2       5 UNK         0.5017 
     38 O          26.7587  -27.5319  -40.4618 O.2       5 UNK        -0.5012 
     39 N          24.6010  -27.1987  -41.1157 N.am      6 UNK        -0.4439 
     40 CA         23.9219  -28.3842  -40.5741 C.3       6 UNK         0.0297 
     41 CB         24.0949  -28.4684  -39.0423 C.3       6 UNK        -0.2006 
     42 C          24.3210  -29.7040  -41.2700 C.2       6 UNK         0.4892 
     43 O          25.2580  -29.7468  -42.0708 O.2       6 UNK        -0.5089 
     44 N          23.5840  -30.7714  -40.9477 N.am      7 UNK        -0.4243 
     45 CA         23.8316  -32.1416  -41.3873 C.3       7 UNK         0.0196 
     46 CB         23.2221  -32.3808  -42.7812 C.3       7 UNK        -0.2007 
     47 C          23.2176  -33.0882  -40.3518 C.2       7 UNK         0.5020 
     48 O          22.3394  -32.6760  -39.5881 O.2       7 UNK        -0.5147 
     49 N          23.6606  -34.3503  -40.3586 N.am      8 UNK        -0.4734 
     50 CA         23.2052  -35.4133  -39.4545 C.3       8 UNK         0.0238 
     51 CB         24.3133  -36.4784  -39.3432 C.3       8 UNK        -0.1912 
     52 C          21.8455  -36.0119  -39.8746 C.2       8 UNK         0.5038 
     53 O          21.7259  -37.2306  -40.0187 O.2       8 UNK        -0.5046 
     54 N          20.8506  -35.1426  -40.0799 N.am      9 UNK        -0.4200 
     55 CA         19.4608  -35.4973  -40.3944 C.3       9 UNK         0.0839 
     56 C          18.7445  -36.1781  -39.1966 C.2       9 UNK         0.5513 
     57 N          17.8376  -37.1074  -39.4648 N.am      9 UNK        -0.7519 
     58 O          18.9707  -35.8429  -38.0353 O.2       9 UNK        -0.4960 
     59 C59        18.6592  -34.2639  -40.8816 C.3       10 UNK        -0.0876 
     60 S60        19.3013  -33.5955  -42.4524 S.3       10 UNK        -0.2414 
     61 C61        18.8471  -31.8443  -42.2831 C.3       10 UNK         0.0169 
     62 H62        18.4756  -28.6348  -42.3989 H         1 UNK         0.0903 
     63 H63        18.0690  -27.4659  -41.1479 H         1 UNK         0.0903 
     64 H64        16.9289  -28.7525  -41.5542 H         1 UNK         0.0903 
     65 H65        17.7200  -28.2782  -44.5361 H         1 UNK         0.3096 
     66 H66        15.5884  -26.4438  -45.1721 H         1 UNK         0.1121 
     67 H67        15.9882  -27.1004  -47.4871 H         1 UNK         0.0849 
     68 H68        17.5295  -27.8065  -47.1044 H         1 UNK         0.0849 
     69 H69        16.5891  -31.4150  -46.8233 H         1 UNK         0.0865 
     70 H70        17.4173  -30.2201  -47.7805 H         1 UNK         0.0865 
     71 H71        17.0670  -31.6047  -44.3298 H         1 UNK         0.1346 
     72 H72        21.0168  -30.4329  -43.1450 H         1 UNK         0.1412 
     73 H73        19.4699  -29.2060  -46.9489 H         1 UNK         0.1426 
     74 H74        21.5360  -28.3010  -46.2254 H         1 UNK         0.0716 
     75 H75        22.4323  -29.7089  -45.7053 H         1 UNK         0.0716 
     76 H76        20.6164  -27.2579  -42.4980 H         1 UNK         0.0695 
     77 H77        20.0856  -27.2690  -44.1483 H         1 UNK         0.0695 
     78 H78        21.7353  -25.3239  -44.5992 H         1 UNK         0.0983 
     79 H79        19.1409  -25.2057  -43.2855 H         1 UNK         0.3095 
     80 H80        17.9030  -22.8113  -43.6573 H         1 UNK         0.0454 
     81 H81        18.4458  -21.3418  -45.5542 H         1 UNK         0.0851 
     82 H82        18.2412  -22.6538  -46.7014 H         1 UNK         0.0851 
     83 H83        16.8535  -22.0371  -45.8053 H         1 UNK         0.0851 
     84 H84        16.7800  -24.7223  -43.9082 H         1 UNK         0.2976 
     85 H85        22.5529  -23.3150  -43.6912 H         1 UNK         0.3116 
     86 H86        22.9258  -22.8028  -40.9480 H         1 UNK         0.0646 
     87 H87        24.6014  -21.1259  -41.7424 H         1 UNK         0.0847 
     88 H88        23.1367  -21.0669  -42.7071 H         1 UNK         0.0847 
     89 H89        24.5847  -21.8474  -43.3450 H         1 UNK         0.0847 
     90 H90        24.8538  -24.8048  -43.1161 H         1 UNK         0.3040 
     91 H91        27.1011  -25.1265  -41.2761 H         1 UNK         0.1015 
     92 H92        27.4162  -25.2309  -43.7483 H         1 UNK         0.0786 
     93 H93        26.3417  -26.6287  -43.8425 H         1 UNK         0.0786 
     94 H94        27.8781  -26.7495  -42.9983 H         1 UNK         0.0786 
     95 H95        23.9912  -26.5661  -41.6176 H         1 UNK         0.3172 
     96 H96        22.8620  -28.2296  -40.7828 H         1 UNK         0.0595 
     97 H97        23.8390  -27.5232  -38.5634 H         1 UNK         0.0839 
     98 H98        25.1177  -28.7204  -38.7608 H         1 UNK         0.0839 
     99 H99        23.4459  -29.2309  -38.6106 H         1 UNK         0.0839 
    100 H100       22.8492  -30.6933  -40.2546 H         1 UNK         0.2998 
    101 H101       24.9096  -32.3146  -41.4207 H         1 UNK         0.0822 
    102 H102       23.5403  -31.6233  -43.4980 H         1 UNK         0.0787 
    103 H103       23.5266  -33.3496  -43.1780 H         1 UNK         0.0787 
    104 H104       22.1330  -32.3779  -42.7482 H         1 UNK         0.0787 
    105 H105       24.3486  -34.6169  -41.0491 H         1 UNK         0.3055 
    106 H106       23.0607  -34.9858  -38.4593 H         1 UNK         0.1106 
    107 H107       24.5069  -36.9623  -40.3013 H         1 UNK         0.0828 
    108 H108       25.2487  -36.0436  -38.9906 H         1 UNK         0.0828 
    109 H109       24.0364  -37.2593  -38.6334 H         1 UNK         0.0828 
    110 H110       21.0472  -34.1593  -39.9293 H         1 UNK         0.2931 
    111 H111       19.4924  -36.2205  -41.2124 H         1 UNK         0.0412 
    112 H112       17.3490  -37.5514  -38.7025 H         1 UNK         0.3472 
    113 H113       17.6388  -37.3828  -40.4146 H         1 UNK         0.3472 
    114 H114       18.6660  -33.4831  -40.1184 H         1 UNK         0.0970 
    115 H115       17.6111  -34.5240  -41.0427 H         1 UNK         0.0970 
    116 H116       17.8091  -31.7666  -41.9554 H         1 UNK         0.0612 
    117 H117       19.4560  -31.3873  -41.5012 H         1 UNK         0.0612 
@<TRIPOS>BOND
     1    1    2 1    
     2    1   62 1    
     3    1   63 1    
     4    1   64 1    
     5    2    3 2    
     6    2    4 am   BACKBONE|DICT|INTERRES
     7    4    5 1    
     8    4   65 1    
     9    5    6 1    
    10    5   25 1    
    11    5   66 1    
    12    6    7 1    
    13    6   67 1    
    14    6   68 1    
    15    7    8 1    
    16    8    9 1    
    17    8   69 1    
    18    8   70 1    
    19    9   10 ar   
    20    9   14 ar   
    21   10   11 ar   
    22   10   71 1    
    23   11   12 ar   
    24   11   61 1    
    25   12   13 ar   
    26   12   72 1    
    27   13   14 ar   
    28   13   15 1    
    29   14   73 1    
    30   15   16 1    
    31   15   74 1    
    32   15   75 1    
    33   16   17 1    
    34   17   18 1    
    35   17   76 1    
    36   17   77 1    
    37   18   19 1    
    38   18   27 1    
    39   18   78 1    
    40   19   20 am   BACKBONE|DICT|INTERRES
    41   19   79 1    
    42   20   21 2    
    43   20   22 1    
    44   22   23 1    
    45   22   24 1    
    46   22   80 1    
    47   23   81 1    
    48   23   82 1    
    49   23   83 1    
    50   24   25 am   BACKBONE|DICT|INTERRES
    51   24   84 1    
    52   25   26 2    
    53   27   28 2    
    54   27   29 am   BACKBONE|DICT|INTERRES
    55   29   30 1    
    56   29   85 1    
    57   30   31 1    
    58   30   32 1    
    59   30   86 1    
    60   31   87 1    
    61   31   88 1    
    62   31   89 1    
    63   32   33 2    
    64   32   34 am   BACKBONE|DICT|INTERRES
    65   34   35 1    
    66   34   90 1    
    67   35   36 1    
    68   35   37 1    
    69   35   91 1    
    70   36   92 1    
    71   36   93 1    
    72   36   94 1    
    73   37   38 2    
    74   37   39 am   BACKBONE|DICT|INTERRES
    75   39   40 1    
    76   39   95 1    
    77   40   41 1    
    78   40   42 1    
    79   40   96 1    
    80   41   97 1    
    81   41   98 1    
    82   41   99 1    
    83   42   43 2    
    84   42   44 am   BACKBONE|DICT|INTERRES
    85   44   45 1    
    86   44  100 1    
    87   45   46 1    
    88   45   47 1    
    89   45  101 1    
    90   46  102 1    
    91   46  103 1    
    92   46  104 1    
    93   47   48 2    
    94   47   49 am   BACKBONE|DICT|INTERRES
    95   49   50 1    
    96   49  105 1    
    97   50   51 1    
    98   50   52 1    
    99   50  106 1    
   100   51  107 1    
   101   51  108 1    
   102   51  109 1    
   103   52   53 2    
   104   52   54 am   BACKBONE|DICT|INTERRES
   105   54   55 1    
   106   54  110 1    
   107   55   56 1    
   108   55   59 1    
   109   55  111 1    
   110   56   57 am   BACKBONE|DICT|INTERRES
   111   56   58 2    
   112   57  112 1    
   113   57  113 1    
   114   59   60 1    
   115   59  114 1    
   116   59  115 1    
   117   60   61 1    
   118   61  116 1    
   119   61  117 1    
@<TRIPOS>SUBSTRUCTURE
     1 UNK         1 GROUP             0       ****    0 ROOT    
