@<TRIPOS>MOLECULE
3R8
117   119    1
SMALL
USER_CHARGES


@<TRIPOS>ATOM
      1 CA         17.9675  -26.7514  -48.4687 C.3       0 UNK        -0.2013 
      2 C          18.1559  -27.0940  -46.9991 C.2       0 UNK         0.4866 
      3 O          19.1589  -27.7090  -46.6359 O.2       0 UNK        -0.5176 
      4 N          17.2104  -26.6859  -46.1433 N.am      1 UNK        -0.4884 
      5 CA         17.1762  -26.9641  -44.6994 C.3       1 UNK         0.0853 
      6 C6         15.7223  -26.9375  -44.1443 C.3       10 UNK        -0.0849 
      7 S7         14.5913  -28.0767  -45.0296 S.3       10 UNK        -0.2776 
      8 C8         14.5768  -29.5589  -43.9618 C.3       10 UNK         0.0316 
      9 C9         15.9860  -30.0758  -43.7224 C.ar      10 UNK        -0.0863 
     10 C10        16.6853  -30.7232  -44.7428 C.ar      10 UNK        -0.1009 
     11 C11        18.0296  -31.0696  -44.5756 C.ar      10 UNK        -0.0712 
     12 C12        18.6727  -30.7547  -43.3705 C.ar      10 UNK        -0.0894 
     13 C13        17.9741  -30.1300  -42.3305 C.ar      10 UNK        -0.0745 
     14 C14        16.6206  -29.8259  -42.5056 C.ar      10 UNK        -0.0972 
     15 C15        18.6906  -29.7484  -41.0388 C.3       10 UNK         0.0209 
     16 S16        18.2718  -28.0534  -40.5065 S.3       10 UNK        -0.2568 
     17 C17        19.7639  -27.5368  -39.6009 C.3       10 UNK        -0.0983 
     18 CA         20.9194  -27.0902  -40.5321 C.3       3 UNK         0.0876 
     19 N          20.4701  -26.2093  -41.6220 N.am      3 UNK        -0.4424 
     20 C          21.1987  -25.8563  -42.6882 C.2       2 UNK         0.4918 
     21 O          22.3992  -26.1117  -42.8048 O.2       2 UNK        -0.4875 
     22 CA         20.4557  -25.1052  -43.8063 C.3       2 UNK         0.0481 
     23 CB         21.3989  -24.6694  -44.9428 C.3       2 UNK        -0.1831 
     24 N          19.3884  -25.9318  -44.3726 N.am      2 UNK        -0.4498 
     25 C          18.1371  -26.0422  -43.9074 C.2       1 UNK         0.5027 
     26 O          17.7418  -25.4382  -42.9084 O.2       1 UNK        -0.4969 
     27 C          22.0950  -26.5338  -39.7010 C.2       3 UNK         0.5005 
     28 O          22.7616  -27.3062  -39.0131 O.2       3 UNK        -0.5279 
     29 N          22.3483  -25.2197  -39.7862 N.am      4 UNK        -0.4463 
     30 CA         23.5193  -24.5581  -39.2046 C.3       4 UNK         0.0283 
     31 CB         23.3341  -23.0346  -39.2897 C.3       4 UNK        -0.1875 
     32 C          24.8458  -24.9749  -39.8703 C.2       4 UNK         0.4949 
     33 O          25.8876  -24.9037  -39.2180 O.2       4 UNK        -0.5039 
     34 N          24.7858  -25.3957  -41.1414 N.am      5 UNK        -0.4663 
     35 CA         25.9240  -25.8915  -41.9146 C.3       5 UNK         0.0242 
     36 CB         26.0200  -25.1102  -43.2366 C.3       5 UNK        -0.1982 
     37 C          25.7822  -27.3959  -42.1801 C.2       5 UNK         0.5017 
     38 O          26.7121  -28.1524  -41.8994 O.2       5 UNK        -0.5012 
     39 N          24.6216  -27.8056  -42.7058 N.am      6 UNK        -0.4439 
     40 CA         24.2969  -29.1788  -43.0813 C.3       6 UNK         0.0297 
     41 CB         23.5872  -29.1543  -44.4484 C.3       6 UNK        -0.2006 
     42 C          23.4360  -29.8196  -41.9842 C.2       6 UNK         0.4892 
     43 O          22.2606  -30.1089  -42.2155 O.2       6 UNK        -0.5089 
     44 N          24.0295  -30.0046  -40.7971 N.am      7 UNK        -0.4243 
     45 CA         23.4012  -30.5775  -39.6015 C.3       7 UNK         0.0196 
     46 CB         24.4113  -30.5590  -38.4420 C.3       7 UNK        -0.2007 
     47 C          22.8590  -31.9946  -39.8567 C.2       7 UNK         0.5020 
     48 O          23.6441  -32.9385  -39.9529 O.2       7 UNK        -0.5147 
     49 N          21.5308  -32.0877  -40.0232 N.am      8 UNK        -0.4734 
     50 CA         20.7523  -33.2651  -40.4430 C.3       8 UNK         0.0238 
     51 CB         20.8381  -34.3860  -39.3849 C.3       8 UNK        -0.1912 
     52 C          21.0814  -33.7750  -41.8658 C.2       8 UNK         0.5038 
     53 O          20.6814  -34.8905  -42.2027 O.2       8 UNK        -0.5046 
     54 N          21.7750  -32.9440  -42.6596 N.am      9 UNK        -0.4200 
     55 CA         22.2902  -33.1688  -44.0192 C.3       9 UNK         0.0839 
     56 C          22.8429  -34.5969  -44.3136 C.2       9 UNK         0.5513 
     57 N          22.4996  -35.2127  -45.4374 N.am      9 UNK        -0.7519 
     58 O          23.6496  -35.1230  -43.5501 O.2       9 UNK        -0.4960 
     59 C59        21.4003  -32.5222  -45.1177 C.3       10 UNK        -0.0876 
     60 S60        19.7138  -33.2067  -45.2606 S.3       10 UNK        -0.2414 
     61 C61        18.7776  -31.7168  -45.7369 C.3       10 UNK         0.0169 
     62 H62        17.9442  -27.6632  -49.0650 H         1 UNK         0.0903 
     63 H63        17.0400  -26.2071  -48.6453 H         1 UNK         0.0903 
     64 H64        18.7952  -26.1356  -48.8194 H         1 UNK         0.0903 
     65 H65        16.4158  -26.1720  -46.4973 H         1 UNK         0.3096 
     66 H66        17.5644  -27.9727  -44.5498 H         1 UNK         0.1121 
     67 H67        15.3096  -25.9301  -44.2230 H         1 UNK         0.0849 
     68 H68        15.7090  -27.1794  -43.0802 H         1 UNK         0.0849 
     69 H69        14.0826  -29.3200  -43.0187 H         1 UNK         0.0865 
     70 H70        13.9757  -30.3370  -44.4346 H         1 UNK         0.0865 
     71 H71        16.1915  -30.9114  -45.6866 H         1 UNK         0.1346 
     72 H72        19.7214  -30.9839  -43.2463 H         1 UNK         0.1412 
     73 H73        16.0762  -29.3286  -41.7145 H         1 UNK         0.1426 
     74 H74        19.7689  -29.8228  -41.1787 H         1 UNK         0.0716 
     75 H75        18.4218  -30.4525  -40.2506 H         1 UNK         0.0716 
     76 H76        19.4710  -26.7184  -38.9402 H         1 UNK         0.0695 
     77 H77        20.0835  -28.3540  -38.9511 H         1 UNK         0.0695 
     78 H78        21.3060  -27.9858  -41.0182 H         1 UNK         0.0983 
     79 H79        19.4828  -25.9800  -41.6254 H         1 UNK         0.3095 
     80 H80        20.0232  -24.2039  -43.3675 H         1 UNK         0.0454 
     81 H81        21.8665  -25.5255  -45.4312 H         1 UNK         0.0851 
     82 H82        20.8656  -24.1002  -45.7041 H         1 UNK         0.0851 
     83 H83        22.1995  -24.0321  -44.5650 H         1 UNK         0.0851 
     84 H84        19.6258  -26.4999  -45.1815 H         1 UNK         0.2976 
     85 H85        21.7363  -24.6539  -40.3561 H         1 UNK         0.3116 
     86 H86        23.5771  -24.8383  -38.1506 H         1 UNK         0.0646 
     87 H87        24.1792  -22.5140  -38.8368 H         1 UNK         0.0847 
     88 H88        22.4373  -22.7121  -38.7603 H         1 UNK         0.0847 
     89 H89        23.2580  -22.6926  -40.3227 H         1 UNK         0.0847 
     90 H90        23.8778  -25.4505  -41.5895 H         1 UNK         0.3040 
     91 H91        26.8571  -25.7422  -41.3665 H         1 UNK         0.1015 
     92 H92        26.1985  -24.0504  -43.0540 H         1 UNK         0.0786 
     93 H93        25.1087  -25.1962  -43.8303 H         1 UNK         0.0786 
     94 H94        26.8456  -25.4767  -43.8482 H         1 UNK         0.0786 
     95 H95        23.8747  -27.1263  -42.8422 H         1 UNK         0.3172 
     96 H96        25.2061  -29.7744  -43.1857 H         1 UNK         0.0595 
     97 H97        24.2099  -28.6831  -45.2089 H         1 UNK         0.0839 
     98 H98        22.6425  -28.6095  -44.4075 H         1 UNK         0.0839 
     99 H99        23.3700  -30.1648  -44.7926 H         1 UNK         0.0839 
    100 H100       24.9979  -29.7300  -40.7075 H         1 UNK         0.2998 
    101 H101       22.5656  -29.9322  -39.3247 H         1 UNK         0.0822 
    102 H102       24.7180  -29.5401  -38.2033 H         1 UNK         0.0787 
    103 H103       23.9745  -30.9851  -37.5378 H         1 UNK         0.0787 
    104 H104       25.3076  -31.1352  -38.6751 H         1 UNK         0.0787 
    105 H105       20.9993  -31.2325  -39.9465 H         1 UNK         0.3055 
    106 H106       19.7119  -32.9387  -40.4881 H         1 UNK         0.1106 
    107 H107       20.1400  -35.1930  -39.6105 H         1 UNK         0.0828 
    108 H108       21.8350  -34.8254  -39.3398 H         1 UNK         0.0828 
    109 H109       20.5889  -34.0147  -38.3910 H         1 UNK         0.0828 
    110 H110       22.0065  -32.0343  -42.2749 H         1 UNK         0.2931 
    111 H111       23.2018  -32.5699  -44.0251 H         1 UNK         0.0412 
    112 H112       22.8793  -36.1251  -45.6367 H         1 UNK         0.3472 
    113 H113       21.8184  -34.8023  -46.0573 H         1 UNK         0.3472 
    114 H114       21.3247  -31.4542  -44.9102 H         1 UNK         0.0970 
    115 H115       21.8869  -32.5841  -46.0925 H         1 UNK         0.0970 
    116 H116       18.0741  -32.0138  -46.5161 H         1 UNK         0.0612 
    117 H117       19.4357  -30.9783  -46.1967 H         1 UNK         0.0612 
@<TRIPOS>BOND
     1    1    2 1    
     2    1   62 1    
     3    1   63 1    
     4    1   64 1    
     5    2    3 2    
     6    2    4 am   BACKBONE|DICT|INTERRES
     7    4    5 1    
     8    4   65 1    
     9    5    6 1    
    10    5   25 1    
    11    5   66 1    
    12    6    7 1    
    13    6   67 1    
    14    6   68 1    
    15    7    8 1    
    16    8    9 1    
    17    8   69 1    
    18    8   70 1    
    19    9   10 ar   
    20    9   14 ar   
    21   10   11 ar   
    22   10   71 1    
    23   11   12 ar   
    24   11   61 1    
    25   12   13 ar   
    26   12   72 1    
    27   13   14 ar   
    28   13   15 1    
    29   14   73 1    
    30   15   16 1    
    31   15   74 1    
    32   15   75 1    
    33   16   17 1    
    34   17   18 1    
    35   17   76 1    
    36   17   77 1    
    37   18   19 1    
    38   18   27 1    
    39   18   78 1    
    40   19   20 am   BACKBONE|DICT|INTERRES
    41   19   79 1    
    42   20   21 2    
    43   20   22 1    
    44   22   23 1    
    45   22   24 1    
    46   22   80 1    
    47   23   81 1    
    48   23   82 1    
    49   23   83 1    
    50   24   25 am   BACKBONE|DICT|INTERRES
    51   24   84 1    
    52   25   26 2    
    53   27   28 2    
    54   27   29 am   BACKBONE|DICT|INTERRES
    55   29   30 1    
    56   29   85 1    
    57   30   31 1    
    58   30   32 1    
    59   30   86 1    
    60   31   87 1    
    61   31   88 1    
    62   31   89 1    
    63   32   33 2    
    64   32   34 am   BACKBONE|DICT|INTERRES
    65   34   35 1    
    66   34   90 1    
    67   35   36 1    
    68   35   37 1    
    69   35   91 1    
    70   36   92 1    
    71   36   93 1    
    72   36   94 1    
    73   37   38 2    
    74   37   39 am   BACKBONE|DICT|INTERRES
    75   39   40 1    
    76   39   95 1    
    77   40   41 1    
    78   40   42 1    
    79   40   96 1    
    80   41   97 1    
    81   41   98 1    
    82   41   99 1    
    83   42   43 2    
    84   42   44 am   BACKBONE|DICT|INTERRES
    85   44   45 1    
    86   44  100 1    
    87   45   46 1    
    88   45   47 1    
    89   45  101 1    
    90   46  102 1    
    91   46  103 1    
    92   46  104 1    
    93   47   48 2    
    94   47   49 am   BACKBONE|DICT|INTERRES
    95   49   50 1    
    96   49  105 1    
    97   50   51 1    
    98   50   52 1    
    99   50  106 1    
   100   51  107 1    
   101   51  108 1    
   102   51  109 1    
   103   52   53 2    
   104   52   54 am   BACKBONE|DICT|INTERRES
   105   54   55 1    
   106   54  110 1    
   107   55   56 1    
   108   55   59 1    
   109   55  111 1    
   110   56   57 am   BACKBONE|DICT|INTERRES
   111   56   58 2    
   112   57  112 1    
   113   57  113 1    
   114   59   60 1    
   115   59  114 1    
   116   59  115 1    
   117   60   61 1    
   118   61  116 1    
   119   61  117 1    
@<TRIPOS>SUBSTRUCTURE
     1 UNK         1 GROUP             0       ****    0 ROOT    
