@<TRIPOS>MOLECULE
3R8
117   119    1
SMALL
USER_CHARGES


@<TRIPOS>ATOM
      1 CA         19.3702  -24.9753  -39.5644 C.3       0 UNK        -0.2013 
      2 C          19.0008  -24.7531  -41.0234 C.2       0 UNK         0.4866 
      3 O          19.1185  -23.6330  -41.5222 O.2       0 UNK        -0.5176 
      4 N          18.5476  -25.8106  -41.7083 N.am      1 UNK        -0.4884 
      5 CA         18.2311  -25.8137  -43.1417 C.3       1 UNK         0.0853 
      6 C6         17.4743  -27.0973  -43.5573 C.3       10 UNK        -0.0849 
      7 S7         15.9434  -27.4239  -42.6169 S.3       10 UNK        -0.2776 
      8 C8         14.9097  -28.2791  -43.8594 C.3       10 UNK         0.0316 
      9 C9         15.6787  -29.3730  -44.5910 C.ar      10 UNK        -0.0863 
     10 C10        15.9570  -30.5881  -43.9603 C.ar      10 UNK        -0.1009 
     11 C11        16.7302  -31.5574  -44.6060 C.ar      10 UNK        -0.0712 
     12 C12        17.1999  -31.3191  -45.9013 C.ar      10 UNK        -0.0894 
     13 C13        16.9687  -30.0868  -46.5244 C.ar      10 UNK        -0.0745 
     14 C14        16.1730  -29.1378  -45.8774 C.ar      10 UNK        -0.0972 
     15 C15        17.6056  -29.7242  -47.8661 C.3       10 UNK         0.0209 
     16 S16        19.3319  -30.2908  -48.1174 S.3       10 UNK        -0.2568 
     17 C17        20.1594  -30.1416  -46.4936 C.3       10 UNK        -0.0983 
     18 CA         21.2087  -29.0086  -46.4066 C.3       3 UNK         0.0876 
     19 N          20.5779  -27.6837  -46.3808 N.am      3 UNK        -0.4424 
     20 C          21.2373  -26.5219  -46.4949 C.2       2 UNK         0.4918 
     21 O          22.4411  -26.4380  -46.7375 O.2       2 UNK        -0.4875 
     22 CA         20.4227  -25.2297  -46.2788 C.3       2 UNK         0.0481 
     23 CB         19.8421  -24.7374  -47.6140 C.3       2 UNK        -0.1831 
     24 N          19.3413  -25.3454  -45.2892 N.am      2 UNK        -0.4498 
     25 C          19.5084  -25.6868  -44.0020 C.2       1 UNK         0.5027 
     26 O          20.6045  -25.9737  -43.5165 O.2       1 UNK        -0.4969 
     27 C          22.0873  -29.2508  -45.1599 C.2       3 UNK         0.5005 
     28 O          23.1718  -29.8227  -45.2790 O.2       3 UNK        -0.5279 
     29 N          21.5724  -28.8565  -43.9877 N.am      4 UNK        -0.4463 
     30 CA         22.1751  -29.1033  -42.6799 C.3       4 UNK         0.0283 
     31 CB         21.0876  -28.9964  -41.5981 C.3       4 UNK        -0.1875 
     32 C          23.3318  -28.1432  -42.3773 C.2       4 UNK         0.4949 
     33 O          24.3794  -28.5885  -41.9089 O.2       4 UNK        -0.5039 
     34 N          23.1135  -26.8456  -42.6349 N.am      5 UNK        -0.4663 
     35 CA         23.9968  -25.7231  -42.3096 C.3       5 UNK         0.0242 
     36 CB         25.2438  -25.7314  -43.2237 C.3       5 UNK        -0.1982 
     37 C          24.3060  -25.6883  -40.7991 C.2       5 UNK         0.5017 
     38 O          23.3907  -25.4585  -40.0074 O.2       5 UNK        -0.5012 
     39 N          25.5683  -25.9346  -40.4275 N.am      6 UNK        -0.4439 
     40 CA         26.0315  -26.0271  -39.0410 C.3       6 UNK         0.0297 
     41 CB         27.5189  -25.6368  -38.9937 C.3       6 UNK        -0.2006 
     42 C          25.8214  -27.4188  -38.4092 C.2       6 UNK         0.4892 
     43 O          26.0101  -27.5468  -37.1982 O.2       6 UNK        -0.5089 
     44 N          25.4744  -28.4319  -39.2157 N.am      7 UNK        -0.4243 
     45 CA         25.2722  -29.8186  -38.7939 C.3       7 UNK         0.0196 
     46 CB         26.0664  -30.7434  -39.7410 C.3       7 UNK        -0.2007 
     47 C          23.7666  -30.1407  -38.7292 C.2       7 UNK         0.5020 
     48 O          22.9764  -29.2929  -38.3104 O.2       7 UNK        -0.5147 
     49 N          23.3903  -31.3632  -39.1180 N.am      8 UNK        -0.4734 
     50 CA         22.0245  -31.8812  -39.1404 C.3       8 UNK         0.0238 
     51 CB         21.6685  -32.4595  -37.7580 C.3       8 UNK        -0.1912 
     52 C          21.9223  -32.9525  -40.2341 C.2       8 UNK         0.5038 
     53 O          22.9531  -33.4536  -40.6930 O.2       8 UNK        -0.5046 
     54 N          20.6860  -33.2966  -40.6142 N.am      9 UNK        -0.4200 
     55 CA         20.3753  -34.3332  -41.6160 C.3       9 UNK         0.0839 
     56 C          20.6059  -35.7961  -41.1334 C.2       9 UNK         0.5513 
     57 N          20.8268  -36.0508  -39.8491 N.am      9 UNK        -0.7519 
     58 O          20.5870  -36.7182  -41.9446 O.2       9 UNK        -0.4960 
     59 C59        18.9441  -34.1667  -42.1935 C.3       10 UNK        -0.0876 
     60 S60        18.6935  -32.5394  -42.9735 S.3       10 UNK        -0.2414 
     61 C61        17.1358  -32.8226  -43.8708 C.3       10 UNK         0.0169 
     62 H62        19.1465  -25.9905  -39.2369 H         1 UNK         0.0903 
     63 H63        20.4365  -24.8008  -39.4197 H         1 UNK         0.0903 
     64 H64        18.8202  -24.2840  -38.9264 H         1 UNK         0.0903 
     65 H65        18.4480  -26.7004  -41.2420 H         1 UNK         0.3096 
     66 H66        17.5987  -24.9469  -43.3470 H         1 UNK         0.1121 
     67 H67        18.1133  -27.9784  -43.4632 H         1 UNK         0.0849 
     68 H68        17.2092  -27.0194  -44.6113 H         1 UNK         0.0849 
     69 H69        14.0390  -28.7110  -43.3639 H         1 UNK         0.0865 
     70 H70        14.5223  -27.5443  -44.5669 H         1 UNK         0.0865 
     71 H71        15.6123  -30.7591  -42.9494 H         1 UNK         0.1346 
     72 H72        17.8178  -32.0605  -46.3892 H         1 UNK         0.1412 
     73 H73        15.9792  -28.1876  -46.3567 H         1 UNK         0.1426 
     74 H74        16.9872  -30.1327  -48.6662 H         1 UNK         0.0716 
     75 H75        17.5988  -28.6414  -48.0010 H         1 UNK         0.0716 
     76 H76        20.6298  -31.1121  -46.3192 H         1 UNK         0.0695 
     77 H77        19.4395  -30.0224  -45.6857 H         1 UNK         0.0695 
     78 H78        21.8600  -29.0621  -47.2819 H         1 UNK         0.0983 
     79 H79        19.5817  -27.6611  -46.2291 H         1 UNK         0.3095 
     80 H80        21.1152  -24.4696  -45.9111 H         1 UNK         0.0454 
     81 H81        19.1113  -25.4371  -48.0214 H         1 UNK         0.0851 
     82 H82        20.6284  -24.6177  -48.3608 H         1 UNK         0.0851 
     83 H83        19.3557  -23.7681  -47.5036 H         1 UNK         0.0851 
     84 H84        18.4115  -25.1274  -45.6185 H         1 UNK         0.2976 
     85 H85        20.7127  -28.3292  -43.9951 H         1 UNK         0.3116 
     86 H86        22.5719  -30.1210  -42.6614 H         1 UNK         0.0646 
     87 H87        20.3382  -29.7806  -41.7091 H         1 UNK         0.0847 
     88 H88        20.5767  -28.0340  -41.6292 H         1 UNK         0.0847 
     89 H89        21.5185  -29.0917  -40.6022 H         1 UNK         0.0847 
     90 H90        22.1947  -26.5797  -42.9892 H         1 UNK         0.3040 
     91 H91        23.4328  -24.8139  -42.5251 H         1 UNK         0.1015 
     92 H92        25.8431  -26.6349  -43.1069 H         1 UNK         0.0786 
     93 H93        25.8866  -24.8731  -43.0234 H         1 UNK         0.0786 
     94 H94        24.9518  -25.6707  -44.2725 H         1 UNK         0.0786 
     95 H95        26.2451  -26.1377  -41.1493 H         1 UNK         0.3172 
     96 H96        25.4765  -25.3089  -38.4335 H         1 UNK         0.0595 
     97 H97        28.1365  -26.3242  -39.5732 H         1 UNK         0.0839 
     98 H98        27.8942  -25.6483  -37.9693 H         1 UNK         0.0839 
     99 H99        27.6789  -24.6308  -39.3821 H         1 UNK         0.0839 
    100 H100       25.2492  -28.2384  -40.1876 H         1 UNK         0.2998 
    101 H101       25.6641  -29.9650  -37.7854 H         1 UNK         0.0822 
    102 H102       27.1111  -30.4374  -39.8009 H         1 UNK         0.0787 
    103 H103       26.0627  -31.7759  -39.3897 H         1 UNK         0.0787 
    104 H104       25.6621  -30.7319  -40.7543 H         1 UNK         0.0787 
    105 H105       24.0751  -31.9935  -39.5183 H         1 UNK         0.3055 
    106 H106       21.3307  -31.0753  -39.3856 H         1 UNK         0.1106 
    107 H107       22.3337  -33.2784  -37.4809 H         1 UNK         0.0828 
    108 H108       20.6483  -32.8444  -37.7394 H         1 UNK         0.0828 
    109 H109       21.7366  -31.6979  -36.9809 H         1 UNK         0.0828 
    110 H110       19.8907  -32.8439  -40.1888 H         1 UNK         0.2931 
    111 H111       21.0709  -34.1893  -42.4456 H         1 UNK         0.0412 
    112 H112       20.9776  -37.0029  -39.5538 H         1 UNK         0.3472 
    113 H113       20.8465  -35.3041  -39.1739 H         1 UNK         0.3472 
    114 H114       18.1943  -34.3024  -41.4119 H         1 UNK         0.0970 
    115 H115       18.7466  -34.9338  -42.9451 H         1 UNK         0.0970 
    116 H116       16.3561  -33.1208  -43.1682 H         1 UNK         0.0612 
    117 H117       17.2603  -33.6470  -44.5746 H         1 UNK         0.0612 
@<TRIPOS>BOND
     1    1    2 1    
     2    1   62 1    
     3    1   63 1    
     4    1   64 1    
     5    2    3 2    
     6    2    4 am   BACKBONE|DICT|INTERRES
     7    4    5 1    
     8    4   65 1    
     9    5    6 1    
    10    5   25 1    
    11    5   66 1    
    12    6    7 1    
    13    6   67 1    
    14    6   68 1    
    15    7    8 1    
    16    8    9 1    
    17    8   69 1    
    18    8   70 1    
    19    9   10 ar   
    20    9   14 ar   
    21   10   11 ar   
    22   10   71 1    
    23   11   12 ar   
    24   11   61 1    
    25   12   13 ar   
    26   12   72 1    
    27   13   14 ar   
    28   13   15 1    
    29   14   73 1    
    30   15   16 1    
    31   15   74 1    
    32   15   75 1    
    33   16   17 1    
    34   17   18 1    
    35   17   76 1    
    36   17   77 1    
    37   18   19 1    
    38   18   27 1    
    39   18   78 1    
    40   19   20 am   BACKBONE|DICT|INTERRES
    41   19   79 1    
    42   20   21 2    
    43   20   22 1    
    44   22   23 1    
    45   22   24 1    
    46   22   80 1    
    47   23   81 1    
    48   23   82 1    
    49   23   83 1    
    50   24   25 am   BACKBONE|DICT|INTERRES
    51   24   84 1    
    52   25   26 2    
    53   27   28 2    
    54   27   29 am   BACKBONE|DICT|INTERRES
    55   29   30 1    
    56   29   85 1    
    57   30   31 1    
    58   30   32 1    
    59   30   86 1    
    60   31   87 1    
    61   31   88 1    
    62   31   89 1    
    63   32   33 2    
    64   32   34 am   BACKBONE|DICT|INTERRES
    65   34   35 1    
    66   34   90 1    
    67   35   36 1    
    68   35   37 1    
    69   35   91 1    
    70   36   92 1    
    71   36   93 1    
    72   36   94 1    
    73   37   38 2    
    74   37   39 am   BACKBONE|DICT|INTERRES
    75   39   40 1    
    76   39   95 1    
    77   40   41 1    
    78   40   42 1    
    79   40   96 1    
    80   41   97 1    
    81   41   98 1    
    82   41   99 1    
    83   42   43 2    
    84   42   44 am   BACKBONE|DICT|INTERRES
    85   44   45 1    
    86   44  100 1    
    87   45   46 1    
    88   45   47 1    
    89   45  101 1    
    90   46  102 1    
    91   46  103 1    
    92   46  104 1    
    93   47   48 2    
    94   47   49 am   BACKBONE|DICT|INTERRES
    95   49   50 1    
    96   49  105 1    
    97   50   51 1    
    98   50   52 1    
    99   50  106 1    
   100   51  107 1    
   101   51  108 1    
   102   51  109 1    
   103   52   53 2    
   104   52   54 am   BACKBONE|DICT|INTERRES
   105   54   55 1    
   106   54  110 1    
   107   55   56 1    
   108   55   59 1    
   109   55  111 1    
   110   56   57 am   BACKBONE|DICT|INTERRES
   111   56   58 2    
   112   57  112 1    
   113   57  113 1    
   114   59   60 1    
   115   59  114 1    
   116   59  115 1    
   117   60   61 1    
   118   61  116 1    
   119   61  117 1    
@<TRIPOS>SUBSTRUCTURE
     1 UNK         1 GROUP             0       ****    0 ROOT    
