@<TRIPOS>MOLECULE
3R8
117   119    1
SMALL
USER_CHARGES


@<TRIPOS>ATOM
      1 CA         15.8292  -22.8272  -45.0550 C.3       0 UNK        -0.2013 
      2 C          17.1723  -23.2259  -45.6476 C.2       0 UNK         0.4866 
      3 O          17.8643  -22.3804  -46.2150 O.2       0 UNK        -0.5176 
      4 N          17.5368  -24.5088  -45.5243 N.am      1 UNK        -0.4884 
      5 CA         18.8007  -25.0898  -45.9952 C.3       1 UNK         0.0853 
      6 C6         18.8230  -26.6360  -45.9060 C.3       10 UNK        -0.0849 
      7 S7         17.4828  -27.3876  -46.8870 S.3       10 UNK        -0.2776 
      8 C8         18.0060  -29.1355  -46.9334 C.3       10 UNK         0.0316 
      9 C9         18.0295  -29.8196  -45.5674 C.ar      10 UNK        -0.0863 
     10 C10        19.0490  -30.7320  -45.2732 C.ar      10 UNK        -0.1009 
     11 C11        19.0739  -31.4089  -44.0463 C.ar      10 UNK        -0.0712 
     12 C12        18.0772  -31.1428  -43.1048 C.ar      10 UNK        -0.0894 
     13 C13        17.0610  -30.2264  -43.3768 C.ar      10 UNK        -0.0745 
     14 C14        17.0310  -29.5813  -44.6152 C.ar      10 UNK        -0.0972 
     15 C15        15.9999  -29.9318  -42.3287 C.3       10 UNK         0.0209 
     16 S16        16.3104  -28.3474  -41.4892 S.3       10 UNK        -0.2568 
     17 C17        17.8654  -28.6713  -40.5811 C.3       10 UNK        -0.0983 
     18 CA         19.1274  -28.1232  -41.2995 C.3       3 UNK         0.0876 
     19 N          18.9419  -26.7408  -41.7631 N.am      3 UNK        -0.4424 
     20 C          19.8121  -26.0549  -42.5115 C.2       2 UNK         0.4918 
     21 O          20.9181  -26.4855  -42.8394 O.2       2 UNK        -0.4875 
     22 CA         19.3817  -24.6430  -42.9344 C.3       2 UNK         0.0481 
     23 CB         19.5781  -23.6632  -41.7659 C.3       2 UNK        -0.1831 
     24 N          20.1780  -24.1677  -44.0706 N.am      2 UNK        -0.4498 
     25 C          20.0728  -24.4476  -45.3821 C.2       1 UNK         0.5027 
     26 O          20.9853  -24.1470  -46.1508 O.2       1 UNK        -0.4969 
     27 C          20.3770  -28.2869  -40.4049 C.2       3 UNK         0.5005 
     28 O          21.0977  -29.2808  -40.5250 O.2       3 UNK        -0.5279 
     29 N          20.6239  -27.2813  -39.5510 N.am      4 UNK        -0.4463 
     30 CA         21.7996  -27.1844  -38.6842 C.3       4 UNK         0.0283 
     31 CB         21.5307  -26.1656  -37.5657 C.3       4 UNK        -0.1875 
     32 C          23.0784  -26.8120  -39.4523 C.2       4 UNK         0.4949 
     33 O          24.1501  -27.2991  -39.0974 O.2       4 UNK        -0.5039 
     34 N          22.9531  -25.9891  -40.5049 N.am      5 UNK        -0.4663 
     35 CA         24.0580  -25.6225  -41.4017 C.3       5 UNK         0.0242 
     36 CB         23.6570  -24.4155  -42.2646 C.3       5 UNK        -0.1982 
     37 C          24.4992  -26.8054  -42.2802 C.2       5 UNK         0.5017 
     38 O          25.6941  -26.9759  -42.5203 O.2       5 UNK        -0.5012 
     39 N          23.5264  -27.6354  -42.6805 N.am      6 UNK        -0.4439 
     40 CA         23.7166  -28.9400  -43.3173 C.3       6 UNK         0.0297 
     41 CB         22.3927  -29.3599  -43.9788 C.3       6 UNK        -0.2006 
     42 C          24.2150  -30.0343  -42.3479 C.2       6 UNK         0.4892 
     43 O          24.4662  -31.1530  -42.7967 O.2       6 UNK        -0.5089 
     44 N          24.3325  -29.7135  -41.0481 N.am      7 UNK        -0.4243 
     45 CA         24.8114  -30.5590  -39.9473 C.3       7 UNK         0.0196 
     46 CB         26.3239  -30.8265  -40.0983 C.3       7 UNK        -0.2007 
     47 C          23.9911  -31.8495  -39.7670 C.2       7 UNK         0.5020 
     48 O          24.5545  -32.8884  -39.4209 O.2       7 UNK        -0.5147 
     49 N          22.6789  -31.7633  -40.0353 N.am      8 UNK        -0.4734 
     50 CA         21.7104  -32.8668  -40.0748 C.3       8 UNK         0.0238 
     51 CB         21.5351  -33.5082  -38.6815 C.3       8 UNK        -0.1912 
     52 C          21.9803  -33.9138  -41.1799 C.2       8 UNK         0.5038 
     53 O          21.3846  -34.9916  -41.1336 O.2       8 UNK        -0.5046 
     54 N          22.8067  -33.5619  -42.1790 N.am      9 UNK        -0.4200 
     55 CA         23.1318  -34.3538  -43.3767 C.3       9 UNK         0.0839 
     56 C          23.9067  -35.6718  -43.0623 C.2       9 UNK         0.5513 
     57 N          24.1216  -36.5309  -44.0507 N.am      9 UNK        -0.7519 
     58 O          24.3670  -35.9120  -41.9478 O.2       9 UNK        -0.4960 
     59 C59        21.8933  -34.5596  -44.3037 C.3       10 UNK        -0.0876 
     60 S60        21.2359  -33.0059  -45.0084 S.3       10 UNK        -0.2414 
     61 C61        20.1504  -32.4206  -43.6629 C.3       10 UNK         0.0169 
     62 H62        15.9688  -22.0597  -44.2941 H         1 UNK         0.0903 
     63 H63        15.1812  -22.4230  -45.8322 H         1 UNK         0.0903 
     64 H64        15.3185  -23.6724  -44.5939 H         1 UNK         0.0903 
     65 H65        16.9021  -25.1609  -45.0865 H         1 UNK         0.3096 
     66 H66        18.8482  -24.8443  -47.0589 H         1 UNK         0.1121 
     67 H67        18.7179  -26.9770  -44.8771 H         1 UNK         0.0849 
     68 H68        19.7771  -27.0272  -46.2656 H         1 UNK         0.0849 
     69 H69        17.3220  -29.6856  -47.5808 H         1 UNK         0.0865 
     70 H70        18.9871  -29.1906  -47.4079 H         1 UNK         0.0865 
     71 H71        19.8166  -30.9156  -46.0111 H         1 UNK         0.1346 
     72 H72        18.0969  -31.6484  -42.1488 H         1 UNK         0.1412 
     73 H73        16.2335  -28.8829  -44.8288 H         1 UNK         0.1426 
     74 H74        15.0197  -29.8921  -42.8062 H         1 UNK         0.0716 
     75 H75        15.9464  -30.7320  -41.5888 H         1 UNK         0.0716 
     76 H76        17.7585  -28.2115  -39.5966 H         1 UNK         0.0695 
     77 H77        17.9639  -29.7432  -40.4005 H         1 UNK         0.0695 
     78 H78        19.3006  -28.7286  -42.1915 H         1 UNK         0.0983 
     79 H79        18.0440  -26.3308  -41.5474 H         1 UNK         0.3095 
     80 H80        18.3214  -24.6641  -43.1731 H         1 UNK         0.0454 
     81 H81        19.2651  -22.6557  -42.0411 H         1 UNK         0.0851 
     82 H82        20.6193  -23.6113  -41.4455 H         1 UNK         0.0851 
     83 H83        18.9840  -23.9539  -40.8985 H         1 UNK         0.0851 
     84 H84        21.0327  -23.7075  -43.7985 H         1 UNK         0.2976 
     85 H85        19.9652  -26.5169  -39.5145 H         1 UNK         0.3116 
     86 H86        21.9639  -28.1605  -38.2219 H         1 UNK         0.0646 
     87 H87        20.6692  -26.4547  -36.9636 H         1 UNK         0.0847 
     88 H88        22.3849  -26.0946  -36.8907 H         1 UNK         0.0847 
     89 H89        21.3454  -25.1660  -37.9609 H         1 UNK         0.0847 
     90 H90        22.0328  -25.6635  -40.7579 H         1 UNK         0.3040 
     91 H91        24.9125  -25.3315  -40.7861 H         1 UNK         0.1015 
     92 H92        22.8405  -24.6553  -42.9446 H         1 UNK         0.0786 
     93 H93        24.4970  -24.0828  -42.8760 H         1 UNK         0.0786 
     94 H94        23.3504  -23.5694  -41.6495 H         1 UNK         0.0786 
     95 H95        22.5638  -27.3513  -42.5135 H         1 UNK         0.3172 
     96 H96        24.4706  -28.8318  -44.0993 H         1 UNK         0.0595 
     97 H97        21.6036  -29.5137  -43.2424 H         1 UNK         0.0839 
     98 H98        22.5102  -30.2930  -44.5303 H         1 UNK         0.0839 
     99 H99        22.0437  -28.6086  -44.6875 H         1 UNK         0.0839 
    100 H100       24.0808  -28.7719  -40.7768 H         1 UNK         0.2998 
    101 H101       24.6676  -29.9828  -39.0323 H         1 UNK         0.0822 
    102 H102       26.7213  -31.3408  -39.2224 H         1 UNK         0.0787 
    103 H103       26.5386  -31.4492  -40.9675 H         1 UNK         0.0787 
    104 H104       26.8811  -29.8958  -40.2060 H         1 UNK         0.0787 
    105 H105       22.3034  -30.8524  -40.2931 H         1 UNK         0.3055 
    106 H106       20.7569  -32.4063  -40.3387 H         1 UNK         0.1106 
    107 H107       21.3351  -32.7549  -37.9196 H         1 UNK         0.0828 
    108 H108       20.6953  -34.2040  -38.6739 H         1 UNK         0.0828 
    109 H109       22.4195  -34.0686  -38.3777 H         1 UNK         0.0828 
    110 H110       23.2848  -32.6692  -42.1245 H         1 UNK         0.2931 
    111 H111       23.8506  -33.7418  -43.9227 H         1 UNK         0.0412 
    112 H112       24.6387  -37.3749  -43.8577 H         1 UNK         0.3472 
    113 H113       23.7965  -36.3490  -44.9871 H         1 UNK         0.3472 
    114 H114       22.1523  -35.1809  -45.1612 H         1 UNK         0.0970 
    115 H115       21.0993  -35.1001  -43.7866 H         1 UNK         0.0970 
    116 H116       20.7723  -31.9503  -42.9024 H         1 UNK         0.0612 
    117 H117       19.6708  -33.2841  -43.1996 H         1 UNK         0.0612 
@<TRIPOS>BOND
     1    1    2 1    
     2    1   62 1    
     3    1   63 1    
     4    1   64 1    
     5    2    3 2    
     6    2    4 am   BACKBONE|DICT|INTERRES
     7    4    5 1    
     8    4   65 1    
     9    5    6 1    
    10    5   25 1    
    11    5   66 1    
    12    6    7 1    
    13    6   67 1    
    14    6   68 1    
    15    7    8 1    
    16    8    9 1    
    17    8   69 1    
    18    8   70 1    
    19    9   10 ar   
    20    9   14 ar   
    21   10   11 ar   
    22   10   71 1    
    23   11   12 ar   
    24   11   61 1    
    25   12   13 ar   
    26   12   72 1    
    27   13   14 ar   
    28   13   15 1    
    29   14   73 1    
    30   15   16 1    
    31   15   74 1    
    32   15   75 1    
    33   16   17 1    
    34   17   18 1    
    35   17   76 1    
    36   17   77 1    
    37   18   19 1    
    38   18   27 1    
    39   18   78 1    
    40   19   20 am   BACKBONE|DICT|INTERRES
    41   19   79 1    
    42   20   21 2    
    43   20   22 1    
    44   22   23 1    
    45   22   24 1    
    46   22   80 1    
    47   23   81 1    
    48   23   82 1    
    49   23   83 1    
    50   24   25 am   BACKBONE|DICT|INTERRES
    51   24   84 1    
    52   25   26 2    
    53   27   28 2    
    54   27   29 am   BACKBONE|DICT|INTERRES
    55   29   30 1    
    56   29   85 1    
    57   30   31 1    
    58   30   32 1    
    59   30   86 1    
    60   31   87 1    
    61   31   88 1    
    62   31   89 1    
    63   32   33 2    
    64   32   34 am   BACKBONE|DICT|INTERRES
    65   34   35 1    
    66   34   90 1    
    67   35   36 1    
    68   35   37 1    
    69   35   91 1    
    70   36   92 1    
    71   36   93 1    
    72   36   94 1    
    73   37   38 2    
    74   37   39 am   BACKBONE|DICT|INTERRES
    75   39   40 1    
    76   39   95 1    
    77   40   41 1    
    78   40   42 1    
    79   40   96 1    
    80   41   97 1    
    81   41   98 1    
    82   41   99 1    
    83   42   43 2    
    84   42   44 am   BACKBONE|DICT|INTERRES
    85   44   45 1    
    86   44  100 1    
    87   45   46 1    
    88   45   47 1    
    89   45  101 1    
    90   46  102 1    
    91   46  103 1    
    92   46  104 1    
    93   47   48 2    
    94   47   49 am   BACKBONE|DICT|INTERRES
    95   49   50 1    
    96   49  105 1    
    97   50   51 1    
    98   50   52 1    
    99   50  106 1    
   100   51  107 1    
   101   51  108 1    
   102   51  109 1    
   103   52   53 2    
   104   52   54 am   BACKBONE|DICT|INTERRES
   105   54   55 1    
   106   54  110 1    
   107   55   56 1    
   108   55   59 1    
   109   55  111 1    
   110   56   57 am   BACKBONE|DICT|INTERRES
   111   56   58 2    
   112   57  112 1    
   113   57  113 1    
   114   59   60 1    
   115   59  114 1    
   116   59  115 1    
   117   60   61 1    
   118   61  116 1    
   119   61  117 1    
@<TRIPOS>SUBSTRUCTURE
     1 UNK         1 GROUP             0       ****    0 ROOT    
