@<TRIPOS>MOLECULE
3R8
117   119    1
SMALL
USER_CHARGES


@<TRIPOS>ATOM
      1 CA         21.5461  -25.5450  -39.9001 C.3       0 UNK        -0.2013 
      2 C          20.2204  -25.3014  -40.6028 C.2       0 UNK         0.4866 
      3 O          19.3771  -24.5683  -40.0851 O.2       0 UNK        -0.5176 
      4 N          20.0381  -25.9166  -41.7737 N.am      1 UNK        -0.4884 
      5 CA         18.8503  -25.8011  -42.6225 C.3       1 UNK         0.0853 
      6 C6         18.2550  -27.1975  -42.9414 C.3       10 UNK        -0.0849 
      7 S7         17.7130  -28.0965  -41.4472 S.3       10 UNK        -0.2776 
      8 C8         16.7585  -29.4745  -42.1689 C.3       10 UNK         0.0316 
      9 C9         17.5252  -30.1987  -43.2681 C.ar      10 UNK        -0.0863 
     10 C10        18.7197  -30.8625  -42.9738 C.ar      10 UNK        -0.1009 
     11 C11        19.4566  -31.4825  -43.9867 C.ar      10 UNK        -0.0712 
     12 C12        18.9768  -31.4605  -45.2987 C.ar      10 UNK        -0.0894 
     13 C13        17.7905  -30.7854  -45.6083 C.ar      10 UNK        -0.0745 
     14 C14        17.0627  -30.1676  -44.5874 C.ar      10 UNK        -0.0972 
     15 C15        17.3264  -30.6731  -47.0550 C.3       10 UNK         0.0209 
     16 S16        17.6403  -29.0123  -47.7490 S.3       10 UNK        -0.2568 
     17 C17        19.4493  -28.8757  -47.5485 C.3       10 UNK        -0.0983 
     18 CA         20.0127  -27.4396  -47.6895 C.3       3 UNK         0.0876 
     19 N          19.2705  -26.4574  -46.8953 N.am      3 UNK        -0.4424 
     20 C          19.3362  -25.1299  -47.0681 C.2       2 UNK         0.4918 
     21 O          20.0370  -24.5819  -47.9194 O.2       2 UNK        -0.4875 
     22 CA         18.4665  -24.2614  -46.1373 C.3       2 UNK         0.0481 
     23 CB         17.1032  -23.9805  -46.7893 C.3       2 UNK        -0.1831 
     24 N          18.2595  -24.8529  -44.8103 N.am      2 UNK        -0.4498 
     25 C          19.2385  -25.0558  -43.9164 C.2       1 UNK         0.5027 
     26 O          20.4033  -24.6942  -44.1059 O.2       1 UNK        -0.4969 
     27 C          21.5102  -27.4608  -47.3235 C.2       3 UNK         0.5005 
     28 O          22.3547  -27.5052  -48.2199 O.2       3 UNK        -0.5279 
     29 N          21.8062  -27.4824  -46.0161 N.am      4 UNK        -0.4463 
     30 CA         23.1315  -27.7176  -45.4513 C.3       4 UNK         0.0283 
     31 CB         23.5087  -29.2066  -45.5957 C.3       4 UNK        -0.1875 
     32 C          23.1491  -27.3095  -43.9734 C.2       4 UNK         0.4949 
     33 O          22.0958  -27.2380  -43.3344 O.2       4 UNK        -0.5039 
     34 N          24.3625  -27.0736  -43.4633 N.am      5 UNK        -0.4663 
     35 CA         24.6534  -26.7502  -42.0661 C.3       5 UNK         0.0242 
     36 CB         26.0062  -26.0129  -42.0205 C.3       5 UNK        -0.1982 
     37 C          24.6591  -28.0007  -41.1594 C.2       5 UNK         0.5017 
     38 O          24.3877  -29.1105  -41.6233 O.2       5 UNK        -0.5012 
     39 N          25.0012  -27.7849  -39.8793 N.am      6 UNK        -0.4439 
     40 CA         25.1409  -28.7861  -38.8111 C.3       6 UNK         0.0297 
     41 CB         26.2381  -29.8209  -39.1459 C.3       6 UNK        -0.2006 
     42 C          23.8043  -29.4324  -38.3986 C.2       6 UNK         0.4892 
     43 O          23.7613  -30.6323  -38.1193 O.2       6 UNK        -0.5089 
     44 N          22.7479  -28.6059  -38.3418 N.am      7 UNK        -0.4243 
     45 CA         21.3771  -28.9358  -37.9322 C.3       7 UNK         0.0196 
     46 CB         21.3122  -29.1237  -36.3989 C.3       7 UNK        -0.2007 
     47 C          20.8082  -30.1188  -38.7376 C.2       7 UNK         0.5020 
     48 O          20.6559  -29.9978  -39.9529 O.2       7 UNK        -0.5147 
     49 N          20.5406  -31.2487  -38.0701 N.am      8 UNK        -0.4734 
     50 CA         20.0670  -32.5045  -38.6589 C.3       8 UNK         0.0238 
     51 CB         19.3997  -33.3479  -37.5559 C.3       8 UNK        -0.1912 
     52 C          21.1787  -33.2732  -39.4068 C.2       8 UNK         0.5038 
     53 O          21.3964  -34.4571  -39.1406 O.2       8 UNK        -0.5046 
     54 N          21.8403  -32.5846  -40.3434 N.am      9 UNK        -0.4200 
     55 CA         22.8323  -33.1118  -41.2931 C.3       9 UNK         0.0839 
     56 C          24.1669  -33.5882  -40.6444 C.2       9 UNK         0.5513 
     57 N          24.5570  -33.0789  -39.4828 N.am      9 UNK        -0.7519 
     58 O          24.8753  -34.4189  -41.2085 O.2       9 UNK        -0.4960 
     59 C59        22.2333  -34.1630  -42.2820 C.3       10 UNK        -0.0876 
     60 S60        20.5715  -33.7827  -42.9531 S.3       10 UNK        -0.2414 
     61 C61        20.7950  -32.1245  -43.6625 C.3       10 UNK         0.0169 
     62 H62        21.3958  -25.6185  -38.8233 H         1 UNK         0.0903 
     63 H63        22.0030  -26.4718  -40.2443 H         1 UNK         0.0903 
     64 H64        22.2326  -24.7216  -40.0953 H         1 UNK         0.0903 
     65 H65        20.8032  -26.4367  -42.2008 H         1 UNK         0.3096 
     66 H66        18.0843  -25.2003  -42.1274 H         1 UNK         0.1121 
     67 H67        17.3926  -27.1174  -43.6051 H         1 UNK         0.0849 
     68 H68        18.9922  -27.8123  -43.4626 H         1 UNK         0.0849 
     69 H69        16.5062  -30.1839  -41.3795 H         1 UNK         0.0865 
     70 H70        15.8110  -29.0873  -42.5469 H         1 UNK         0.0865 
     71 H71        19.0938  -30.8662  -41.9588 H         1 UNK         0.1346 
     72 H72        19.5512  -31.9284  -46.0866 H         1 UNK         0.1412 
     73 H73        16.1529  -29.6354  -44.8304 H         1 UNK         0.1426 
     74 H74        16.2581  -30.8861  -47.1122 H         1 UNK         0.0716 
     75 H75        17.8213  -31.4198  -47.6780 H         1 UNK         0.0716 
     76 H76        19.9210  -29.5416  -48.2739 H         1 UNK         0.0695 
     77 H77        19.7137  -29.2629  -46.5657 H         1 UNK         0.0695 
     78 H78        19.9316  -27.1484  -48.7393 H         1 UNK         0.0983 
     79 H79        18.6339  -26.8282  -46.2069 H         1 UNK         0.3095 
     80 H80        18.9799  -23.3070  -46.0024 H         1 UNK         0.0454 
     81 H81        17.2283  -23.5141  -47.7675 H         1 UNK         0.0851 
     82 H82        16.5049  -23.2998  -46.1836 H         1 UNK         0.0851 
     83 H83        16.5278  -24.8953  -46.9372 H         1 UNK         0.0851 
     84 H84        17.3175  -25.1409  -44.5861 H         1 UNK         0.2976 
     85 H85        21.0757  -27.3687  -45.3250 H         1 UNK         0.3116 
     86 H86        23.8556  -27.1004  -45.9876 H         1 UNK         0.0646 
     87 H87        24.4830  -29.4133  -45.1511 H         1 UNK         0.0847 
     88 H88        22.7829  -29.8517  -45.0985 H         1 UNK         0.0847 
     89 H89        23.5647  -29.5092  -46.6412 H         1 UNK         0.0847 
     90 H90        25.1651  -27.2065  -44.0614 H         1 UNK         0.3040 
     91 H91        23.8782  -26.0736  -41.7028 H         1 UNK         0.1015 
     92 H92        26.2232  -25.6253  -41.0247 H         1 UNK         0.0786 
     93 H93        26.0133  -25.1573  -42.6966 H         1 UNK         0.0786 
     94 H94        26.8318  -26.6677  -42.3033 H         1 UNK         0.0786 
     95 H95        25.2188  -26.8363  -39.6059 H         1 UNK         0.3172 
     96 H96        25.4818  -28.2364  -37.9324 H         1 UNK         0.0595 
     97 H97        25.9490  -30.4679  -39.9746 H         1 UNK         0.0839 
     98 H98        26.4390  -30.4667  -38.2903 H         1 UNK         0.0839 
     99 H99        27.1768  -29.3347  -39.4106 H         1 UNK         0.0839 
    100 H100       22.9026  -27.6471  -38.6130 H         1 UNK         0.2998 
    101 H101       20.7558  -28.0758  -38.1865 H         1 UNK         0.0822 
    102 H102       20.2928  -29.3263  -36.0669 H         1 UNK         0.0787 
    103 H103       21.6379  -28.2201  -35.8833 H         1 UNK         0.0787 
    104 H104       21.9470  -29.9411  -36.0546 H         1 UNK         0.0787 
    105 H105       20.7562  -31.2712  -37.0839 H         1 UNK         0.3055 
    106 H106       19.3016  -32.2675  -39.4019 H         1 UNK         0.1106 
    107 H107       18.5813  -32.8063  -37.0813 H         1 UNK         0.0828 
    108 H108       18.9796  -34.2672  -37.9665 H         1 UNK         0.0828 
    109 H109       20.1109  -33.6324  -36.7795 H         1 UNK         0.0828 
    110 H110       21.6014  -31.6030  -40.4471 H         1 UNK         0.2931 
    111 H111       23.1347  -32.2498  -41.8872 H         1 UNK         0.0412 
    112 H112       24.0324  -32.3367  -39.0293 H         1 UNK         0.3472 
    113 H113       25.4217  -33.3960  -39.0759 H         1 UNK         0.3472 
    114 H114       22.9118  -34.3108  -43.1239 H         1 UNK         0.0970 
    115 H115       22.1606  -35.1332  -41.7872 H         1 UNK         0.0970 
    116 H116       21.3219  -31.4756  -42.9635 H         1 UNK         0.0612 
    117 H117       21.4208  -32.1938  -44.5535 H         1 UNK         0.0612 
@<TRIPOS>BOND
     1    1    2 1    
     2    1   62 1    
     3    1   63 1    
     4    1   64 1    
     5    2    3 2    
     6    2    4 am   BACKBONE|DICT|INTERRES
     7    4    5 1    
     8    4   65 1    
     9    5    6 1    
    10    5   25 1    
    11    5   66 1    
    12    6    7 1    
    13    6   67 1    
    14    6   68 1    
    15    7    8 1    
    16    8    9 1    
    17    8   69 1    
    18    8   70 1    
    19    9   10 ar   
    20    9   14 ar   
    21   10   11 ar   
    22   10   71 1    
    23   11   12 ar   
    24   11   61 1    
    25   12   13 ar   
    26   12   72 1    
    27   13   14 ar   
    28   13   15 1    
    29   14   73 1    
    30   15   16 1    
    31   15   74 1    
    32   15   75 1    
    33   16   17 1    
    34   17   18 1    
    35   17   76 1    
    36   17   77 1    
    37   18   19 1    
    38   18   27 1    
    39   18   78 1    
    40   19   20 am   BACKBONE|DICT|INTERRES
    41   19   79 1    
    42   20   21 2    
    43   20   22 1    
    44   22   23 1    
    45   22   24 1    
    46   22   80 1    
    47   23   81 1    
    48   23   82 1    
    49   23   83 1    
    50   24   25 am   BACKBONE|DICT|INTERRES
    51   24   84 1    
    52   25   26 2    
    53   27   28 2    
    54   27   29 am   BACKBONE|DICT|INTERRES
    55   29   30 1    
    56   29   85 1    
    57   30   31 1    
    58   30   32 1    
    59   30   86 1    
    60   31   87 1    
    61   31   88 1    
    62   31   89 1    
    63   32   33 2    
    64   32   34 am   BACKBONE|DICT|INTERRES
    65   34   35 1    
    66   34   90 1    
    67   35   36 1    
    68   35   37 1    
    69   35   91 1    
    70   36   92 1    
    71   36   93 1    
    72   36   94 1    
    73   37   38 2    
    74   37   39 am   BACKBONE|DICT|INTERRES
    75   39   40 1    
    76   39   95 1    
    77   40   41 1    
    78   40   42 1    
    79   40   96 1    
    80   41   97 1    
    81   41   98 1    
    82   41   99 1    
    83   42   43 2    
    84   42   44 am   BACKBONE|DICT|INTERRES
    85   44   45 1    
    86   44  100 1    
    87   45   46 1    
    88   45   47 1    
    89   45  101 1    
    90   46  102 1    
    91   46  103 1    
    92   46  104 1    
    93   47   48 2    
    94   47   49 am   BACKBONE|DICT|INTERRES
    95   49   50 1    
    96   49  105 1    
    97   50   51 1    
    98   50   52 1    
    99   50  106 1    
   100   51  107 1    
   101   51  108 1    
   102   51  109 1    
   103   52   53 2    
   104   52   54 am   BACKBONE|DICT|INTERRES
   105   54   55 1    
   106   54  110 1    
   107   55   56 1    
   108   55   59 1    
   109   55  111 1    
   110   56   57 am   BACKBONE|DICT|INTERRES
   111   56   58 2    
   112   57  112 1    
   113   57  113 1    
   114   59   60 1    
   115   59  114 1    
   116   59  115 1    
   117   60   61 1    
   118   61  116 1    
   119   61  117 1    
@<TRIPOS>SUBSTRUCTURE
     1 UNK         1 GROUP             0       ****    0 ROOT    
