@<TRIPOS>MOLECULE
3R8
117   119    1
SMALL
USER_CHARGES


@<TRIPOS>ATOM
      1 CA         15.9883  -26.3441  -47.3419 C.3       0 UNK        -0.2013 
      2 C          17.4422  -26.7234  -47.5813 C.2       0 UNK         0.4866 
      3 O          17.8911  -26.7309  -48.7281 O.2       0 UNK        -0.5176 
      4 N          18.1718  -27.0349  -46.5058 N.am      1 UNK        -0.4884 
      5 CA         19.5996  -27.3743  -46.5054 C.3       1 UNK         0.0853 
      6 C6         19.8747  -28.8722  -46.1673 C.3       10 UNK        -0.0849 
      7 S7         18.8312  -30.0427  -47.1118 S.3       10 UNK        -0.2776 
      8 C8         18.3410  -31.2933  -45.8666 C.3       10 UNK         0.0316 
      9 C9         17.8007  -30.7394  -44.5470 C.ar      10 UNK        -0.0863 
     10 C10        18.1119  -31.4033  -43.3574 C.ar      10 UNK        -0.1009 
     11 C11        17.6698  -30.9129  -42.1252 C.ar      10 UNK        -0.0712 
     12 C12        16.9009  -29.7479  -42.0849 C.ar      10 UNK        -0.0894 
     13 C13        16.5802  -29.0726  -43.2649 C.ar      10 UNK        -0.0745 
     14 C14        17.0078  -29.5874  -44.4933 C.ar      10 UNK        -0.0972 
     15 C15        15.7901  -27.7757  -43.2146 C.3       10 UNK         0.0209 
     16 S16        16.8982  -26.3322  -43.2774 S.3       10 UNK        -0.2568 
     17 C17        17.5141  -26.2133  -41.5582 C.3       10 UNK        -0.0983 
     18 CA         18.9289  -26.8164  -41.3502 C.3       3 UNK         0.0876 
     19 N          19.8982  -26.3189  -42.3267 N.am      3 UNK        -0.4424 
     20 C          21.1542  -26.7576  -42.4769 C.2       2 UNK         0.4918 
     21 O          21.6691  -27.6281  -41.7722 O.2       2 UNK        -0.4875 
     22 CA         21.9145  -26.1805  -43.6825 C.3       2 UNK         0.0481 
     23 CB         23.4311  -26.4031  -43.6050 C.3       2 UNK        -0.1831 
     24 N          21.3873  -26.8288  -44.8832 N.am      2 UNK        -0.4498 
     25 C          20.2891  -26.4034  -45.5237 C.2       1 UNK         0.5027 
     26 O          19.7845  -25.2970  -45.3065 O.2       1 UNK        -0.4969 
     27 C          19.4450  -26.5696  -39.9181 C.2       3 UNK         0.5005 
     28 O          19.5757  -25.4118  -39.5143 O.2       3 UNK        -0.5279 
     29 N          19.7777  -27.6600  -39.2113 N.am      4 UNK        -0.4463 
     30 CA         20.4441  -27.7054  -37.9031 C.3       4 UNK         0.0283 
     31 CB         19.5471  -27.1028  -36.8006 C.3       4 UNK        -0.1875 
     32 C          21.8694  -27.1082  -37.9099 C.2       4 UNK         0.4949 
     33 O          22.3406  -26.6534  -36.8665 O.2       4 UNK        -0.5039 
     34 N          22.5409  -27.1335  -39.0698 N.am      5 UNK        -0.4663 
     35 CA         23.8804  -26.5836  -39.2864 C.3       5 UNK         0.0242 
     36 CB         23.7679  -25.1759  -39.9018 C.3       5 UNK        -0.1982 
     37 C          24.7543  -27.5622  -40.0915 C.2       5 UNK         0.5017 
     38 O          25.4823  -27.1554  -40.9984 O.2       5 UNK        -0.5012 
     39 N          24.6845  -28.8422  -39.7025 N.am      6 UNK        -0.4439 
     40 CA         25.5395  -29.9756  -40.0787 C.3       6 UNK         0.0297 
     41 CB         27.0103  -29.7205  -39.6943 C.3       6 UNK        -0.2006 
     42 C          25.4363  -30.4731  -41.5308 C.2       6 UNK         0.4892 
     43 O          25.3031  -31.6829  -41.7196 O.2       6 UNK        -0.5089 
     44 N          25.5325  -29.5851  -42.5300 N.am      7 UNK        -0.4243 
     45 CA         25.5539  -29.9689  -43.9478 C.3       7 UNK         0.0196 
     46 CB         26.0057  -28.7950  -44.8308 C.3       7 UNK        -0.2007 
     47 C          24.1960  -30.5412  -44.3886 C.2       7 UNK         0.5020 
     48 O          23.1881  -29.8327  -44.3505 O.2       7 UNK        -0.5147 
     49 N          24.1946  -31.8386  -44.7239 N.am      8 UNK        -0.4734 
     50 CA         23.0544  -32.7212  -45.0208 C.3       8 UNK         0.0238 
     51 CB         22.2160  -32.1981  -46.2026 C.3       8 UNK        -0.1912 
     52 C          22.1615  -33.0444  -43.8058 C.2       8 UNK         0.5038 
     53 O          21.6495  -34.1617  -43.7283 O.2       8 UNK        -0.5046 
     54 N          21.9899  -32.0864  -42.8881 N.am      9 UNK        -0.4200 
     55 CA         21.2178  -32.2280  -41.6468 C.3       9 UNK         0.0839 
     56 C          21.9044  -33.0903  -40.5479 C.2       9 UNK         0.5513 
     57 N          23.2231  -33.2336  -40.5370 N.am      9 UNK        -0.7519 
     58 O          21.2255  -33.6701  -39.7049 O.2       9 UNK        -0.4960 
     59 C59        20.7676  -30.8337  -41.1346 C.3       10 UNK        -0.0876 
     60 S60        19.3888  -30.8429  -39.9338 S.3       10 UNK        -0.2414 
     61 C61        18.0207  -31.6413  -40.8371 C.3       10 UNK         0.0169 
     62 H62        15.7878  -25.3517  -47.7448 H         1 UNK         0.0903 
     63 H63        15.3291  -27.0545  -47.8399 H         1 UNK         0.0903 
     64 H64        15.7376  -26.3347  -46.2814 H         1 UNK         0.0903 
     65 H65        17.7695  -26.9210  -45.5843 H         1 UNK         0.3096 
     66 H66        20.0292  -27.1642  -47.4872 H         1 UNK         0.1121 
     67 H67        20.9153  -29.1151  -46.3871 H         1 UNK         0.0849 
     68 H68        19.7460  -29.0539  -45.0994 H         1 UNK         0.0849 
     69 H69        17.5818  -31.9413  -46.3063 H         1 UNK         0.0865 
     70 H70        19.2077  -31.9277  -45.6753 H         1 UNK         0.0865 
     71 H71        18.7057  -32.3054  -43.3935 H         1 UNK         0.1346 
     72 H72        16.5667  -29.3598  -41.1324 H         1 UNK         0.1412 
     73 H73        16.7463  -29.0748  -45.4077 H         1 UNK         0.1426 
     74 H74        15.1647  -27.7310  -42.3216 H         1 UNK         0.0716 
     75 H75        15.1074  -27.7324  -44.0645 H         1 UNK         0.0716 
     76 H76        16.7981  -26.6875  -40.8849 H         1 UNK         0.0695 
     77 H77        17.5131  -25.1536  -41.2953 H         1 UNK         0.0695 
     78 H78        18.8582  -27.8933  -41.5104 H         1 UNK         0.0983 
     79 H79        19.5486  -25.6304  -42.9800 H         1 UNK         0.3095 
     80 H80        21.7435  -25.1027  -43.7224 H         1 UNK         0.0454 
     81 H81        23.6761  -27.4404  -43.3821 H         1 UNK         0.0851 
     82 H82        23.8799  -25.7932  -42.8235 H         1 UNK         0.0851 
     83 H83        23.9183  -26.1255  -44.5392 H         1 UNK         0.0851 
     84 H84        21.7481  -27.7552  -45.0721 H         1 UNK         0.2976 
     85 H85        19.6387  -28.5669  -39.6414 H         1 UNK         0.3116 
     86 H86        20.5711  -28.7642  -37.6731 H         1 UNK         0.0646 
     87 H87        18.5519  -27.5470  -36.8111 H         1 UNK         0.0847 
     88 H88        19.9688  -27.2825  -35.8110 H         1 UNK         0.0847 
     89 H89        19.4354  -26.0241  -36.9125 H         1 UNK         0.0847 
     90 H90        22.0869  -27.5045  -39.9019 H         1 UNK         0.3040 
     91 H91        24.3949  -26.4770  -38.3287 H         1 UNK         0.1015 
     92 H92        23.1427  -25.1732  -40.7925 H         1 UNK         0.0786 
     93 H93        24.7451  -24.7753  -40.1743 H         1 UNK         0.0786 
     94 H94        23.3223  -24.4787  -39.1921 H         1 UNK         0.0786 
     95 H95        24.0067  -29.0482  -38.9816 H         1 UNK         0.3172 
     96 H96        25.1914  -30.8011  -39.4552 H         1 UNK         0.0595 
     97 H97        27.4450  -28.8970  -40.2619 H         1 UNK         0.0839 
     98 H98        27.6217  -30.6031  -39.8876 H         1 UNK         0.0839 
     99 H99        27.1090  -29.4859  -38.6345 H         1 UNK         0.0839 
    100 H100       25.6000  -28.6000  -42.2908 H         1 UNK         0.2998 
    101 H101       26.3117  -30.7487  -44.0538 H         1 UNK         0.0822 
    102 H102       26.1748  -29.1310  -45.8548 H         1 UNK         0.0787 
    103 H103       25.2655  -28.0010  -44.8793 H         1 UNK         0.0787 
    104 H104       26.9411  -28.3633  -44.4736 H         1 UNK         0.0787 
    105 H105       25.0818  -32.3205  -44.6636 H         1 UNK         0.3055 
    106 H106       23.4951  -33.6701  -45.3320 H         1 UNK         0.1106 
    107 H107       22.8381  -31.9896  -47.0727 H         1 UNK         0.0828 
    108 H108       21.4706  -32.9345  -46.5054 H         1 UNK         0.0828 
    109 H109       21.6796  -31.2862  -45.9457 H         1 UNK         0.0828 
    110 H110       22.4278  -31.1890  -43.0625 H         1 UNK         0.2931 
    111 H111       20.3241  -32.7843  -41.9223 H         1 UNK         0.0412 
    112 H112       23.6417  -33.8137  -39.8278 H         1 UNK         0.3472 
    113 H113       23.8214  -32.7403  -41.1928 H         1 UNK         0.3472 
    114 H114       21.6129  -30.3063  -40.6884 H         1 UNK         0.0970 
    115 H115       20.4548  -30.2118  -41.9755 H         1 UNK         0.0970 
    116 H116       17.1452  -31.6601  -40.1865 H         1 UNK         0.0612 
    117 H117       18.2629  -32.6863  -41.0322 H         1 UNK         0.0612 
@<TRIPOS>BOND
     1    1    2 1    
     2    1   62 1    
     3    1   63 1    
     4    1   64 1    
     5    2    3 2    
     6    2    4 am   BACKBONE|DICT|INTERRES
     7    4    5 1    
     8    4   65 1    
     9    5    6 1    
    10    5   25 1    
    11    5   66 1    
    12    6    7 1    
    13    6   67 1    
    14    6   68 1    
    15    7    8 1    
    16    8    9 1    
    17    8   69 1    
    18    8   70 1    
    19    9   10 ar   
    20    9   14 ar   
    21   10   11 ar   
    22   10   71 1    
    23   11   12 ar   
    24   11   61 1    
    25   12   13 ar   
    26   12   72 1    
    27   13   14 ar   
    28   13   15 1    
    29   14   73 1    
    30   15   16 1    
    31   15   74 1    
    32   15   75 1    
    33   16   17 1    
    34   17   18 1    
    35   17   76 1    
    36   17   77 1    
    37   18   19 1    
    38   18   27 1    
    39   18   78 1    
    40   19   20 am   BACKBONE|DICT|INTERRES
    41   19   79 1    
    42   20   21 2    
    43   20   22 1    
    44   22   23 1    
    45   22   24 1    
    46   22   80 1    
    47   23   81 1    
    48   23   82 1    
    49   23   83 1    
    50   24   25 am   BACKBONE|DICT|INTERRES
    51   24   84 1    
    52   25   26 2    
    53   27   28 2    
    54   27   29 am   BACKBONE|DICT|INTERRES
    55   29   30 1    
    56   29   85 1    
    57   30   31 1    
    58   30   32 1    
    59   30   86 1    
    60   31   87 1    
    61   31   88 1    
    62   31   89 1    
    63   32   33 2    
    64   32   34 am   BACKBONE|DICT|INTERRES
    65   34   35 1    
    66   34   90 1    
    67   35   36 1    
    68   35   37 1    
    69   35   91 1    
    70   36   92 1    
    71   36   93 1    
    72   36   94 1    
    73   37   38 2    
    74   37   39 am   BACKBONE|DICT|INTERRES
    75   39   40 1    
    76   39   95 1    
    77   40   41 1    
    78   40   42 1    
    79   40   96 1    
    80   41   97 1    
    81   41   98 1    
    82   41   99 1    
    83   42   43 2    
    84   42   44 am   BACKBONE|DICT|INTERRES
    85   44   45 1    
    86   44  100 1    
    87   45   46 1    
    88   45   47 1    
    89   45  101 1    
    90   46  102 1    
    91   46  103 1    
    92   46  104 1    
    93   47   48 2    
    94   47   49 am   BACKBONE|DICT|INTERRES
    95   49   50 1    
    96   49  105 1    
    97   50   51 1    
    98   50   52 1    
    99   50  106 1    
   100   51  107 1    
   101   51  108 1    
   102   51  109 1    
   103   52   53 2    
   104   52   54 am   BACKBONE|DICT|INTERRES
   105   54   55 1    
   106   54  110 1    
   107   55   56 1    
   108   55   59 1    
   109   55  111 1    
   110   56   57 am   BACKBONE|DICT|INTERRES
   111   56   58 2    
   112   57  112 1    
   113   57  113 1    
   114   59   60 1    
   115   59  114 1    
   116   59  115 1    
   117   60   61 1    
   118   61  116 1    
   119   61  117 1    
@<TRIPOS>SUBSTRUCTURE
     1 UNK         1 GROUP             0       ****    0 ROOT    
