@<TRIPOS>MOLECULE
3R8
117   119    1
SMALL
USER_CHARGES


@<TRIPOS>ATOM
      1 CA         14.5650  -21.3116  -44.4943 C.3       0 UNK        -0.2013 
      2 C          14.6581  -22.7849  -44.8629 C.2       0 UNK         0.4866 
      3 O          14.1802  -23.1813  -45.9265 O.2       0 UNK        -0.5176 
      4 N          15.2622  -23.6007  -43.9896 N.am      1 UNK        -0.4884 
      5 CA         15.5041  -25.0293  -44.2156 C.3       1 UNK         0.0853 
      6 C6         15.8025  -25.7601  -42.8816 C.3       10 UNK        -0.0849 
      7 S7         15.4035  -27.5383  -42.9597 S.3       10 UNK        -0.2776 
      8 C8         16.0156  -28.1137  -41.3444 C.3       10 UNK         0.0316 
      9 C9         17.5056  -28.4241  -41.3765 C.ar      10 UNK        -0.0863 
     10 C10        17.9461  -29.6933  -41.7669 C.ar      10 UNK        -0.1009 
     11 C11        19.3094  -30.0005  -41.7676 C.ar      10 UNK        -0.0712 
     12 C12        20.2326  -29.0322  -41.3665 C.ar      10 UNK        -0.0894 
     13 C13        19.8102  -27.7471  -41.0177 C.ar      10 UNK        -0.0745 
     14 C14        18.4429  -27.4535  -41.0069 C.ar      10 UNK        -0.0972 
     15 C15        20.8350  -26.6697  -40.6894 C.3       10 UNK         0.0209 
     16 S16        22.0175  -26.4165  -42.0557 S.3       10 UNK        -0.2568 
     17 C17        20.9144  -25.8845  -43.4124 C.3       10 UNK        -0.0983 
     18 CA         20.5996  -27.0103  -44.4331 C.3       3 UNK         0.0876 
     19 N          19.4841  -26.6286  -45.2952 N.am      3 UNK        -0.4424 
     20 C          18.8192  -27.4438  -46.1213 C.2       2 UNK         0.4918 
     21 O          19.0723  -28.6418  -46.2556 O.2       2 UNK        -0.4875 
     22 CA         17.6442  -26.8066  -46.8907 C.3       2 UNK         0.0481 
     23 CB         17.0209  -27.7664  -47.9210 C.3       2 UNK        -0.1831 
     24 N          16.5985  -26.3524  -45.9702 N.am      2 UNK        -0.4498 
     25 C          16.6477  -25.2367  -45.2305 C.2       1 UNK         0.5027 
     26 O          17.5758  -24.4234  -45.2877 O.2       1 UNK        -0.4969 
     27 C          21.8376  -27.3905  -45.2700 C.2       3 UNK         0.5005 
     28 O          22.2464  -26.6150  -46.1382 O.2       3 UNK        -0.5279 
     29 N          22.4272  -28.5508  -44.9613 N.am      4 UNK        -0.4463 
     30 CA         23.6923  -29.0388  -45.5122 C.3       4 UNK         0.0283 
     31 CB         23.4408  -30.2844  -46.3821 C.3       4 UNK        -0.1875 
     32 C          24.7024  -29.2749  -44.3749 C.2       4 UNK         0.4949 
     33 O          25.4596  -30.2451  -44.4128 O.2       4 UNK        -0.5039 
     34 N          24.6973  -28.3482  -43.4052 N.am      5 UNK        -0.4663 
     35 CA         25.5868  -28.2132  -42.2468 C.3       5 UNK         0.0242 
     36 CB         27.0687  -28.1840  -42.6839 C.3       5 UNK        -0.1982 
     37 C          25.3445  -29.2341  -41.1190 C.2       5 UNK         0.5017 
     38 O          24.5817  -30.1967  -41.2640 O.2       5 UNK        -0.5012 
     39 N          25.9931  -28.9486  -39.9778 N.am      6 UNK        -0.4439 
     40 CA         26.0713  -29.7237  -38.7293 C.3       6 UNK         0.0297 
     41 CB         26.7863  -31.0668  -38.9877 C.3       6 UNK        -0.2006 
     42 C          24.7390  -29.9374  -37.9822 C.2       6 UNK         0.4892 
     43 O          24.7383  -30.6262  -36.9614 O.2       6 UNK        -0.5089 
     44 N          23.6339  -29.3890  -38.5131 N.am      7 UNK        -0.4243 
     45 CA         22.2379  -29.6908  -38.1629 C.3       7 UNK         0.0196 
     46 CB         21.8966  -29.1879  -36.7445 C.3       7 UNK        -0.2007 
     47 C          21.8811  -31.1789  -38.3776 C.2       7 UNK         0.5020 
     48 O          20.9698  -31.6906  -37.7257 O.2       7 UNK        -0.5147 
     49 N          22.6213  -31.8470  -39.2735 N.am      8 UNK        -0.4734 
     50 CA         22.5556  -33.2892  -39.5112 C.3       8 UNK         0.0238 
     51 CB         23.7567  -33.9703  -38.8333 C.3       8 UNK        -0.1912 
     52 C          22.5080  -33.6378  -41.0033 C.2       8 UNK         0.5038 
     53 O          21.9896  -34.7047  -41.3338 O.2       8 UNK        -0.5046 
     54 N          23.0143  -32.7499  -41.8754 N.am      9 UNK        -0.4200 
     55 CA         22.9887  -32.8953  -43.3416 C.3       9 UNK         0.0839 
     56 C          23.8399  -34.0789  -43.8981 C.2       9 UNK         0.5513 
     57 N          24.7997  -34.6094  -43.1492 N.am      9 UNK        -0.7519 
     58 O          23.6544  -34.5061  -45.0348 O.2       9 UNK        -0.4960 
     59 C59        21.5409  -32.8478  -43.9206 C.3       10 UNK        -0.0876 
     60 S60        20.7881  -31.1976  -43.7441 S.3       10 UNK        -0.2414 
     61 C61        19.8026  -31.3630  -42.2243 C.3       10 UNK         0.0169 
     62 H62        15.0125  -21.1047  -43.5224 H         1 UNK         0.0903 
     63 H63        15.0791  -20.7057  -45.2400 H         1 UNK         0.0903 
     64 H64        13.5220  -20.9982  -44.4606 H         1 UNK         0.0903 
     65 H65        15.6689  -23.2126  -43.1503 H         1 UNK         0.3096 
     66 H66        14.5884  -25.4439  -44.6449 H         1 UNK         0.1121 
     67 H67        16.8412  -25.6205  -42.5767 H         1 UNK         0.0849 
     68 H68        15.1944  -25.3376  -42.0797 H         1 UNK         0.0849 
     69 H69        15.4634  -29.0116  -41.0626 H         1 UNK         0.0865 
     70 H70        15.7927  -27.3732  -40.5745 H         1 UNK         0.0865 
     71 H71        17.2259  -30.4398  -42.0733 H         1 UNK         0.1346 
     72 H72        21.2889  -29.2652  -41.3800 H         1 UNK         0.1412 
     73 H73        18.1079  -26.4664  -40.7196 H         1 UNK         0.1426 
     74 H74        21.3844  -26.9528  -39.7915 H         1 UNK         0.0716 
     75 H75        20.3468  -25.7203  -40.4639 H         1 UNK         0.0716 
     76 H76        21.3681  -25.0259  -43.9112 H         1 UNK         0.0695 
     77 H77        19.9875  -25.5111  -42.9736 H         1 UNK         0.0695 
     78 H78        20.2676  -27.8927  -43.8835 H         1 UNK         0.0983 
     79 H79        19.1816  -25.6619  -45.2496 H         1 UNK         0.3095 
     80 H80        18.0364  -25.9455  -47.4360 H         1 UNK         0.0454 
     81 H81        16.5959  -28.6515  -47.4458 H         1 UNK         0.0851 
     82 H82        17.7691  -28.1088  -48.6371 H         1 UNK         0.0851 
     83 H83        16.2299  -27.2785  -48.4905 H         1 UNK         0.0851 
     84 H84        15.8367  -26.9972  -45.8116 H         1 UNK         0.2976 
     85 H85        22.0070  -29.1387  -44.2515 H         1 UNK         0.3116 
     86 H86        24.1415  -28.2777  -46.1533 H         1 UNK         0.0646 
     87 H87        23.0188  -31.1064  -45.8075 H         1 UNK         0.0847 
     88 H88        24.3673  -30.6427  -46.8322 H         1 UNK         0.0847 
     89 H89        22.7517  -30.0618  -47.1967 H         1 UNK         0.0847 
     90 H90        23.9884  -27.6304  -43.4739 H         1 UNK         0.3040 
     91 H91        25.3486  -27.2339  -41.8274 H         1 UNK         0.1015 
     92 H92        27.4147  -29.1639  -43.0145 H         1 UNK         0.0786 
     93 H93        27.7215  -27.8738  -41.8676 H         1 UNK         0.0786 
     94 H94        27.2276  -27.4804  -43.5013 H         1 UNK         0.0786 
     95 H95        26.5475  -28.1028  -39.9694 H         1 UNK         0.3172 
     96 H96        26.6987  -29.1409  -38.0532 H         1 UNK         0.0595 
     97 H97        26.9454  -31.6171  -38.0594 H         1 UNK         0.0839 
     98 H98        27.7659  -30.9129  -39.4399 H         1 UNK         0.0839 
     99 H99        26.2106  -31.7114  -39.6519 H         1 UNK         0.0839 
    100 H100       23.7625  -28.8418  -39.3523 H         1 UNK         0.2998 
    101 H101       21.6167  -29.1338  -38.8627 H         1 UNK         0.0822 
    102 H102       20.8277  -29.2758  -36.5461 H         1 UNK         0.0787 
    103 H103       22.4165  -29.7589  -35.9748 H         1 UNK         0.0787 
    104 H104       22.1621  -28.1380  -36.6215 H         1 UNK         0.0787 
    105 H105       23.3392  -31.3319  -39.7675 H         1 UNK         0.3055 
    106 H106       21.6407  -33.6954  -39.0735 H         1 UNK         0.1106 
    107 H107       23.7212  -35.0521  -38.9691 H         1 UNK         0.0828 
    108 H108       24.7049  -33.6202  -39.2415 H         1 UNK         0.0828 
    109 H109       23.7651  -33.7788  -37.7600 H         1 UNK         0.0828 
    110 H110       23.4650  -31.9056  -41.5434 H         1 UNK         0.2931 
    111 H111       23.5117  -32.0141  -43.7092 H         1 UNK         0.0412 
    112 H112       24.9768  -34.2580  -42.2223 H         1 UNK         0.3472 
    113 H113       25.3531  -35.3666  -43.5184 H         1 UNK         0.3472 
    114 H114       21.5438  -33.0645  -44.9899 H         1 UNK         0.0970 
    115 H115       20.9002  -33.6066  -43.4701 H         1 UNK         0.0970 
    116 H116       20.4023  -31.8002  -41.4282 H         1 UNK         0.0612 
    117 H117       18.9710  -32.0453  -42.4059 H         1 UNK         0.0612 
@<TRIPOS>BOND
     1    1    2 1    
     2    1   62 1    
     3    1   63 1    
     4    1   64 1    
     5    2    3 2    
     6    2    4 am   BACKBONE|DICT|INTERRES
     7    4    5 1    
     8    4   65 1    
     9    5    6 1    
    10    5   25 1    
    11    5   66 1    
    12    6    7 1    
    13    6   67 1    
    14    6   68 1    
    15    7    8 1    
    16    8    9 1    
    17    8   69 1    
    18    8   70 1    
    19    9   10 ar   
    20    9   14 ar   
    21   10   11 ar   
    22   10   71 1    
    23   11   12 ar   
    24   11   61 1    
    25   12   13 ar   
    26   12   72 1    
    27   13   14 ar   
    28   13   15 1    
    29   14   73 1    
    30   15   16 1    
    31   15   74 1    
    32   15   75 1    
    33   16   17 1    
    34   17   18 1    
    35   17   76 1    
    36   17   77 1    
    37   18   19 1    
    38   18   27 1    
    39   18   78 1    
    40   19   20 am   BACKBONE|DICT|INTERRES
    41   19   79 1    
    42   20   21 2    
    43   20   22 1    
    44   22   23 1    
    45   22   24 1    
    46   22   80 1    
    47   23   81 1    
    48   23   82 1    
    49   23   83 1    
    50   24   25 am   BACKBONE|DICT|INTERRES
    51   24   84 1    
    52   25   26 2    
    53   27   28 2    
    54   27   29 am   BACKBONE|DICT|INTERRES
    55   29   30 1    
    56   29   85 1    
    57   30   31 1    
    58   30   32 1    
    59   30   86 1    
    60   31   87 1    
    61   31   88 1    
    62   31   89 1    
    63   32   33 2    
    64   32   34 am   BACKBONE|DICT|INTERRES
    65   34   35 1    
    66   34   90 1    
    67   35   36 1    
    68   35   37 1    
    69   35   91 1    
    70   36   92 1    
    71   36   93 1    
    72   36   94 1    
    73   37   38 2    
    74   37   39 am   BACKBONE|DICT|INTERRES
    75   39   40 1    
    76   39   95 1    
    77   40   41 1    
    78   40   42 1    
    79   40   96 1    
    80   41   97 1    
    81   41   98 1    
    82   41   99 1    
    83   42   43 2    
    84   42   44 am   BACKBONE|DICT|INTERRES
    85   44   45 1    
    86   44  100 1    
    87   45   46 1    
    88   45   47 1    
    89   45  101 1    
    90   46  102 1    
    91   46  103 1    
    92   46  104 1    
    93   47   48 2    
    94   47   49 am   BACKBONE|DICT|INTERRES
    95   49   50 1    
    96   49  105 1    
    97   50   51 1    
    98   50   52 1    
    99   50  106 1    
   100   51  107 1    
   101   51  108 1    
   102   51  109 1    
   103   52   53 2    
   104   52   54 am   BACKBONE|DICT|INTERRES
   105   54   55 1    
   106   54  110 1    
   107   55   56 1    
   108   55   59 1    
   109   55  111 1    
   110   56   57 am   BACKBONE|DICT|INTERRES
   111   56   58 2    
   112   57  112 1    
   113   57  113 1    
   114   59   60 1    
   115   59  114 1    
   116   59  115 1    
   117   60   61 1    
   118   61  116 1    
   119   61  117 1    
@<TRIPOS>SUBSTRUCTURE
     1 UNK         1 GROUP             0       ****    0 ROOT    
