@<TRIPOS>MOLECULE
3R8
117   119    1
SMALL
USER_CHARGES


@<TRIPOS>ATOM
      1 CA         17.1399  -27.9339  -51.1063 C.3       0 UNK        -0.2013 
      2 C          17.7857  -28.7700  -50.0116 C.2       0 UNK         0.4866 
      3 O          17.9357  -29.9813  -50.1733 O.2       0 UNK        -0.5176 
      4 N          18.1721  -28.1347  -48.9021 N.am      1 UNK        -0.4884 
      5 CA         18.8008  -28.7641  -47.7421 C.3       1 UNK         0.0853 
      6 C6         17.7847  -29.4857  -46.8068 C.3       10 UNK        -0.0849 
      7 S7         16.3335  -28.4780  -46.3314 S.3       10 UNK        -0.2776 
      8 C8         15.6738  -29.4018  -44.9022 C.3       10 UNK         0.0316 
      9 C9         16.2025  -28.8996  -43.5615 C.ar      10 UNK        -0.0863 
     10 C10        16.7722  -29.7900  -42.6442 C.ar      10 UNK        -0.1009 
     11 C11        17.1989  -29.3430  -41.3879 C.ar      10 UNK        -0.0712 
     12 C12        17.0257  -28.0009  -41.0433 C.ar      10 UNK        -0.0894 
     13 C13        16.4810  -27.0923  -41.9569 C.ar      10 UNK        -0.0745 
     14 C14        16.0649  -27.5522  -43.2098 C.ar      10 UNK        -0.0972 
     15 C15        16.3060  -25.6209  -41.5935 C.3       10 UNK         0.0209 
     16 S16        17.7558  -24.8981  -40.7539 S.3       10 UNK        -0.2568 
     17 C17        19.0395  -24.9600  -42.0534 C.3       10 UNK        -0.0983 
     18 CA         20.0197  -26.1607  -41.9317 C.3       3 UNK         0.0876 
     19 N          20.7312  -26.3607  -43.1939 N.am      3 UNK        -0.4424 
     20 C          20.5851  -27.4089  -44.0071 C.2       2 UNK         0.4918 
     21 O          19.8611  -28.3799  -43.7748 O.2       2 UNK        -0.4875 
     22 CA         21.4031  -27.3765  -45.3093 C.3       2 UNK         0.0481 
     23 CB         22.8027  -27.9732  -45.0909 C.3       2 UNK        -0.1831 
     24 N          20.7064  -28.1409  -46.3440 N.am      2 UNK        -0.4498 
     25 C          19.6206  -27.7014  -46.9939 C.2       1 UNK         0.5027 
     26 O          19.2477  -26.5240  -46.9976 O.2       1 UNK        -0.4969 
     27 C          21.0447  -26.0053  -40.7883 C.2       3 UNK         0.5005 
     28 O          22.2544  -26.0617  -41.0253 O.2       3 UNK        -0.5279 
     29 N          20.5413  -25.8384  -39.5561 N.am      4 UNK        -0.4463 
     30 CA         21.2840  -25.6334  -38.3028 C.3       4 UNK         0.0283 
     31 CB         21.9805  -24.2563  -38.3119 C.3       4 UNK        -0.1875 
     32 C          22.2550  -26.7810  -37.9572 C.2       4 UNK         0.4949 
     33 O          23.2754  -26.5458  -37.3092 O.2       4 UNK        -0.5039 
     34 N          21.9232  -27.9970  -38.4172 N.am      5 UNK        -0.4663 
     35 CA         22.7077  -29.2340  -38.3260 C.3       5 UNK         0.0242 
     36 CB         22.8743  -29.6812  -36.8583 C.3       5 UNK        -0.1982 
     37 C          24.0499  -29.1940  -39.0851 C.2       5 UNK         0.5017 
     38 O          24.8906  -30.0641  -38.8490 O.2       5 UNK        -0.5012 
     39 N          24.2321  -28.2335  -40.0071 N.am      6 UNK        -0.4439 
     40 CA         25.4034  -28.1413  -40.8824 C.3       6 UNK         0.0297 
     41 CB         25.3636  -26.8262  -41.6750 C.3       6 UNK        -0.2006 
     42 C          25.4496  -29.3541  -41.8217 C.2       6 UNK         0.4892 
     43 O          24.4849  -29.5826  -42.5529 O.2       6 UNK        -0.5089 
     44 N          26.5255  -30.1468  -41.7127 N.am      7 UNK        -0.4243 
     45 CA         26.7199  -31.4560  -42.3545 C.3       7 UNK         0.0196 
     46 CB         26.8782  -31.2931  -43.8816 C.3       7 UNK        -0.2007 
     47 C          25.6353  -32.4924  -41.9786 C.2       7 UNK         0.5020 
     48 O          25.3586  -33.3937  -42.7702 O.2       7 UNK        -0.5147 
     49 N          25.0386  -32.3368  -40.7843 N.am      8 UNK        -0.4734 
     50 CA         23.8735  -33.0664  -40.2645 C.3       8 UNK         0.0238 
     51 CB         24.1839  -34.5675  -40.0774 C.3       8 UNK        -0.1912 
     52 C          22.5863  -32.8065  -41.0772 C.2       8 UNK         0.5038 
     53 O          21.7412  -33.6979  -41.1754 O.2       8 UNK        -0.5046 
     54 N          22.4645  -31.5858  -41.6200 N.am      9 UNK        -0.4200 
     55 CA         21.4028  -31.0972  -42.5128 C.3       9 UNK         0.0839 
     56 C          21.4895  -31.6727  -43.9545 C.2       9 UNK         0.5513 
     57 N          20.7361  -31.0914  -44.8784 N.am      9 UNK        -0.7519 
     58 O          22.2061  -32.6240  -44.2532 O.2       9 UNK        -0.4960 
     59 C59        19.9618  -31.2315  -41.9403 C.3       10 UNK        -0.0876 
     60 S60        19.6574  -30.2408  -40.4433 S.3       10 UNK        -0.2414 
     61 C61        17.8350  -30.3007  -40.3876 C.3       10 UNK         0.0169 
     62 H62        17.0810  -26.8811  -50.8331 H         1 UNK         0.0903 
     63 H63        17.7143  -28.0133  -52.0284 H         1 UNK         0.0903 
     64 H64        16.1294  -28.2897  -51.3027 H         1 UNK         0.0903 
     65 H65        18.0546  -27.1334  -48.8053 H         1 UNK         0.3096 
     66 H66        19.5108  -29.5073  -48.1129 H         1 UNK         0.1121 
     67 H67        18.2791  -29.8384  -45.8999 H         1 UNK         0.0849 
     68 H68        17.4132  -30.3819  -47.3059 H         1 UNK         0.0849 
     69 H69        14.5880  -29.2983  -44.8985 H         1 UNK         0.0865 
     70 H70        15.8736  -30.4667  -45.0321 H         1 UNK         0.0865 
     71 H71        16.8770  -30.8342  -42.9039 H         1 UNK         0.1346 
     72 H72        17.3370  -27.6600  -40.0658 H         1 UNK         0.1412 
     73 H73        15.6203  -26.8627  -43.9146 H         1 UNK         0.1426 
     74 H74        15.4411  -25.5285  -40.9356 H         1 UNK         0.0716 
     75 H75        16.0834  -25.0253  -42.4803 H         1 UNK         0.0716 
     76 H76        19.5852  -24.0145  -42.0490 H         1 UNK         0.0695 
     77 H77        18.5302  -24.9982  -43.0182 H         1 UNK         0.0695 
     78 H78        19.4497  -27.0617  -41.7030 H         1 UNK         0.0983 
     79 H79        21.4247  -25.6593  -43.4114 H         1 UNK         0.3095 
     80 H80        21.5116  -26.3411  -45.6397 H         1 UNK         0.0454 
     81 H81        22.7592  -29.0046  -44.7413 H         1 UNK         0.0851 
     82 H82        23.3566  -27.4062  -44.3429 H         1 UNK         0.0851 
     83 H83        23.3907  -27.9558  -46.0083 H         1 UNK         0.0851 
     84 H84        20.9469  -29.1193  -46.3998 H         1 UNK         0.2976 
     85 H85        19.5328  -25.7821  -39.4779 H         1 UNK         0.3116 
     86 H86        20.5390  -25.6206  -37.5061 H         1 UNK         0.0646 
     87 H87        22.7862  -24.2168  -39.0457 H         1 UNK         0.0847 
     88 H88        22.4166  -24.0294  -37.3383 H         1 UNK         0.0847 
     89 H89        21.2769  -23.4568  -38.5430 H         1 UNK         0.0847 
     90 H90        21.0622  -28.0713  -38.9418 H         1 UNK         0.3040 
     91 H91        22.1185  -30.0011  -38.8290 H         1 UNK         0.1015 
     92 H92        23.5258  -29.0090  -36.2998 H         1 UNK         0.0786 
     93 H93        23.3127  -30.6781  -36.7990 H         1 UNK         0.0786 
     94 H94        21.9140  -29.7223  -36.3450 H         1 UNK         0.0786 
     95 H95        23.4885  -27.5641  -40.1773 H         1 UNK         0.3172 
     96 H96        26.2956  -28.1328  -40.2531 H         1 UNK         0.0595 
     97 H97        26.2490  -26.7220  -42.3030 H         1 UNK         0.0839 
     98 H98        25.3301  -25.9626  -41.0107 H         1 UNK         0.0839 
     99 H99        24.4930  -26.7760  -42.3287 H         1 UNK         0.0839 
    100 H100       27.2455  -29.8769  -41.0559 H         1 UNK         0.2998 
    101 H101       27.6592  -31.8511  -41.9654 H         1 UNK         0.0822 
    102 H102       27.1717  -32.2340  -44.3480 H         1 UNK         0.0787 
    103 H103       25.9474  -30.9750  -44.3524 H         1 UNK         0.0787 
    104 H104       27.6461  -30.5592  -44.1256 H         1 UNK         0.0787 
    105 H105       25.3380  -31.5577  -40.2051 H         1 UNK         0.3055 
    106 H106       23.6802  -32.6525  -39.2733 H         1 UNK         0.1106 
    107 H107       23.3786  -35.0675  -39.5382 H         1 UNK         0.0828 
    108 H108       24.2991  -35.0814  -41.0319 H         1 UNK         0.0828 
    109 H109       25.0976  -34.7161  -39.5022 H         1 UNK         0.0828 
    110 H110       23.2677  -30.9704  -41.5747 H         1 UNK         0.2931 
    111 H111       21.6202  -30.0336  -42.6135 H         1 UNK         0.0412 
    112 H112       20.1650  -30.2949  -44.6236 H         1 UNK         0.3472 
    113 H113       20.7339  -31.4692  -45.8122 H         1 UNK         0.3472 
    114 H114       19.7079  -32.2722  -41.7381 H         1 UNK         0.0970 
    115 H115       19.2437  -30.8976  -42.6873 H         1 UNK         0.0970 
    116 H116       17.4954  -31.3225  -40.5636 H         1 UNK         0.0612 
    117 H117       17.5092  -30.0432  -39.3788 H         1 UNK         0.0612 
@<TRIPOS>BOND
     1    1    2 1    
     2    1   62 1    
     3    1   63 1    
     4    1   64 1    
     5    2    3 2    
     6    2    4 am   BACKBONE|DICT|INTERRES
     7    4    5 1    
     8    4   65 1    
     9    5    6 1    
    10    5   25 1    
    11    5   66 1    
    12    6    7 1    
    13    6   67 1    
    14    6   68 1    
    15    7    8 1    
    16    8    9 1    
    17    8   69 1    
    18    8   70 1    
    19    9   10 ar   
    20    9   14 ar   
    21   10   11 ar   
    22   10   71 1    
    23   11   12 ar   
    24   11   61 1    
    25   12   13 ar   
    26   12   72 1    
    27   13   14 ar   
    28   13   15 1    
    29   14   73 1    
    30   15   16 1    
    31   15   74 1    
    32   15   75 1    
    33   16   17 1    
    34   17   18 1    
    35   17   76 1    
    36   17   77 1    
    37   18   19 1    
    38   18   27 1    
    39   18   78 1    
    40   19   20 am   BACKBONE|DICT|INTERRES
    41   19   79 1    
    42   20   21 2    
    43   20   22 1    
    44   22   23 1    
    45   22   24 1    
    46   22   80 1    
    47   23   81 1    
    48   23   82 1    
    49   23   83 1    
    50   24   25 am   BACKBONE|DICT|INTERRES
    51   24   84 1    
    52   25   26 2    
    53   27   28 2    
    54   27   29 am   BACKBONE|DICT|INTERRES
    55   29   30 1    
    56   29   85 1    
    57   30   31 1    
    58   30   32 1    
    59   30   86 1    
    60   31   87 1    
    61   31   88 1    
    62   31   89 1    
    63   32   33 2    
    64   32   34 am   BACKBONE|DICT|INTERRES
    65   34   35 1    
    66   34   90 1    
    67   35   36 1    
    68   35   37 1    
    69   35   91 1    
    70   36   92 1    
    71   36   93 1    
    72   36   94 1    
    73   37   38 2    
    74   37   39 am   BACKBONE|DICT|INTERRES
    75   39   40 1    
    76   39   95 1    
    77   40   41 1    
    78   40   42 1    
    79   40   96 1    
    80   41   97 1    
    81   41   98 1    
    82   41   99 1    
    83   42   43 2    
    84   42   44 am   BACKBONE|DICT|INTERRES
    85   44   45 1    
    86   44  100 1    
    87   45   46 1    
    88   45   47 1    
    89   45  101 1    
    90   46  102 1    
    91   46  103 1    
    92   46  104 1    
    93   47   48 2    
    94   47   49 am   BACKBONE|DICT|INTERRES
    95   49   50 1    
    96   49  105 1    
    97   50   51 1    
    98   50   52 1    
    99   50  106 1    
   100   51  107 1    
   101   51  108 1    
   102   51  109 1    
   103   52   53 2    
   104   52   54 am   BACKBONE|DICT|INTERRES
   105   54   55 1    
   106   54  110 1    
   107   55   56 1    
   108   55   59 1    
   109   55  111 1    
   110   56   57 am   BACKBONE|DICT|INTERRES
   111   56   58 2    
   112   57  112 1    
   113   57  113 1    
   114   59   60 1    
   115   59  114 1    
   116   59  115 1    
   117   60   61 1    
   118   61  116 1    
   119   61  117 1    
@<TRIPOS>SUBSTRUCTURE
     1 UNK         1 GROUP             0       ****    0 ROOT    
