@<TRIPOS>MOLECULE
3R8
117   119    1
SMALL
USER_CHARGES


@<TRIPOS>ATOM
      1 CA         19.8482  -27.9686  -41.4975 C.3       0 UNK        -0.2013 
      2 C          19.3684  -26.9705  -42.5403 C.2       0 UNK         0.4866 
      3 O          19.7874  -27.0607  -43.6920 O.2       0 UNK        -0.5176 
      4 N          18.5093  -26.0273  -42.1252 N.am      1 UNK        -0.4884 
      5 CA         17.8317  -24.9766  -42.9042 C.3       1 UNK         0.0853 
      6 C6         16.3575  -25.3487  -43.2519 C.3       10 UNK        -0.0849 
      7 S7         16.1140  -26.6471  -44.5187 S.3       10 UNK        -0.2776 
      8 C8         15.9085  -28.1710  -43.5320 C.3       10 UNK         0.0316 
      9 C9         16.9040  -29.2795  -43.8778 C.ar      10 UNK        -0.0863 
     10 C10        17.2461  -30.2128  -42.8950 C.ar      10 UNK        -0.1009 
     11 C11        18.1321  -31.2572  -43.1748 C.ar      10 UNK        -0.0712 
     12 C12        18.6965  -31.3554  -44.4506 C.ar      10 UNK        -0.0894 
     13 C13        18.3731  -30.4293  -45.4473 C.ar      10 UNK        -0.0745 
     14 C14        17.4591  -29.4104  -45.1578 C.ar      10 UNK        -0.0972 
     15 C15        18.9851  -30.5716  -46.8406 C.3       10 UNK         0.0209 
     16 S16        19.4295  -28.9878  -47.6372 S.3       10 UNK        -0.2568 
     17 C17        20.8180  -28.4317  -46.5958 C.3       10 UNK        -0.0983 
     18 CA         21.1662  -26.9379  -46.8245 C.3       3 UNK         0.0876 
     19 N          20.0400  -26.0399  -46.5365 N.am      3 UNK        -0.4424 
     20 C          19.9431  -24.7854  -47.0020 C.2       2 UNK         0.4918 
     21 O          20.7496  -24.2908  -47.7905 O.2       2 UNK        -0.4875 
     22 CA         18.7646  -23.9208  -46.5164 C.3       2 UNK         0.0481 
     23 CB         17.6919  -23.8195  -47.6125 C.3       2 UNK        -0.1831 
     24 N          18.1379  -24.4026  -45.2852 N.am      2 UNK        -0.4498 
     25 C          18.6705  -24.3655  -44.0571 C.2       1 UNK         0.5027 
     26 O          19.7757  -23.8776  -43.8103 O.2       1 UNK        -0.4969 
     27 C          22.4230  -26.5414  -46.0199 C.2       3 UNK         0.5005 
     28 O          23.5326  -26.8702  -46.4428 O.2       3 UNK        -0.5279 
     29 N          22.2262  -25.8446  -44.8869 N.am      4 UNK        -0.4463 
     30 CA         23.2351  -25.3682  -43.9332 C.3       4 UNK         0.0283 
     31 CB         24.1532  -24.3097  -44.5794 C.3       4 UNK        -0.1875 
     32 C          24.0149  -26.5198  -43.2704 C.2       4 UNK         0.4949 
     33 O          25.1997  -26.3758  -42.9673 O.2       4 UNK        -0.5039 
     34 N          23.3259  -27.6485  -43.0541 N.am      5 UNK        -0.4663 
     35 CA         23.8955  -28.8938  -42.5326 C.3       5 UNK         0.0242 
     36 CB         22.9919  -30.0600  -42.9592 C.3       5 UNK        -0.1982 
     37 C          24.1197  -28.9059  -41.0092 C.2       5 UNK         0.5017 
     38 O          24.6544  -29.8900  -40.4995 O.2       5 UNK        -0.5012 
     39 N          23.6843  -27.8501  -40.3024 N.am      6 UNK        -0.4439 
     40 CA         23.8440  -27.6203  -38.8567 C.3       6 UNK         0.0297 
     41 CB         25.3184  -27.2981  -38.5333 C.3       6 UNK        -0.2006 
     42 C          23.2827  -28.7537  -37.9696 C.2       6 UNK         0.4892 
     43 O          23.8287  -29.0233  -36.8987 O.2       6 UNK        -0.5089 
     44 N          22.2132  -29.4050  -38.4521 N.am      7 UNK        -0.4243 
     45 CA         21.5326  -30.5701  -37.8728 C.3       7 UNK         0.0196 
     46 CB         20.9182  -30.2318  -36.4972 C.3       7 UNK        -0.2007 
     47 C          22.3806  -31.8609  -37.8401 C.2       7 UNK         0.5020 
     48 O          21.9902  -32.8128  -37.1635 O.2       7 UNK        -0.5147 
     49 N          23.4938  -31.9095  -38.5898 N.am      8 UNK        -0.4734 
     50 CA         24.2993  -33.1236  -38.7858 C.3       8 UNK         0.0238 
     51 CB         25.7406  -32.7268  -39.1453 C.3       8 UNK        -0.1912 
     52 C          23.7088  -34.0544  -39.8633 C.2       8 UNK         0.5038 
     53 O          24.1232  -35.2106  -39.9575 O.2       8 UNK        -0.5046 
     54 N          22.7665  -33.5289  -40.6549 N.am      9 UNK        -0.4200 
     55 CA         21.9551  -34.2330  -41.6539 C.3       9 UNK         0.0839 
     56 C          21.0799  -35.3746  -41.0616 C.2       9 UNK         0.5513 
     57 N          20.7473  -36.3739  -41.8677 N.am      9 UNK        -0.7519 
     58 O          20.6736  -35.3506  -39.9016 O.2       9 UNK        -0.4960 
     59 C59        21.1087  -33.2239  -42.4779 C.3       10 UNK        -0.0876 
     60 S60        20.1348  -32.0671  -41.4409 S.3       10 UNK        -0.2414 
     61 C61        18.4551  -32.2867  -42.1004 C.3       10 UNK         0.0169 
     62 H62        19.2487  -27.9297  -40.5883 H         1 UNK         0.0903 
     63 H63        19.7836  -28.9799  -41.8978 H         1 UNK         0.0903 
     64 H64        20.8850  -27.7679  -41.2360 H         1 UNK         0.0903 
     65 H65        18.2701  -26.0205  -41.1436 H         1 UNK         0.3096 
     66 H66        17.7559  -24.1465  -42.1994 H         1 UNK         0.1121 
     67 H67        15.8286  -25.6364  -42.3423 H         1 UNK         0.0849 
     68 H68        15.8327  -24.4564  -43.5988 H         1 UNK         0.0849 
     69 H69        15.9867  -27.9311  -42.4709 H         1 UNK         0.0865 
     70 H70        14.8980  -28.5511  -43.6866 H         1 UNK         0.0865 
     71 H71        16.8112  -30.1329  -41.9079 H         1 UNK         0.1346 
     72 H72        19.3831  -32.1608  -44.6695 H         1 UNK         0.1412 
     73 H73        17.1868  -28.7144  -45.9377 H         1 UNK         0.1426 
     74 H74        18.2676  -31.0895  -47.4781 H         1 UNK         0.0716 
     75 H75        19.8763  -31.2003  -46.8050 H         1 UNK         0.0716 
     76 H76        20.5757  -28.6201  -45.5495 H         1 UNK         0.0695 
     77 H77        21.6777  -29.0638  -46.8266 H         1 UNK         0.0695 
     78 H78        21.4257  -26.8210  -47.8793 H         1 UNK         0.0983 
     79 H79        19.3682  -26.3762  -45.8579 H         1 UNK         0.3095 
     80 H80        19.1526  -22.9183  -46.3254 H         1 UNK         0.0454 
     81 H81        16.8861  -23.1463  -47.3196 H         1 UNK         0.0851 
     82 H82        18.1151  -23.4302  -48.5395 H         1 UNK         0.0851 
     83 H83        17.2528  -24.7922  -47.8383 H         1 UNK         0.0851 
     84 H84        17.2490  -24.8780  -45.3845 H         1 UNK         0.2976 
     85 H85        21.2622  -25.6850  -44.6121 H         1 UNK         0.3116 
     86 H86        22.6808  -24.8768  -43.1322 H         1 UNK         0.0646 
     87 H87        24.8073  -23.8531  -43.8357 H         1 UNK         0.0847 
     88 H88        23.5730  -23.5074  -45.0352 H         1 UNK         0.0847 
     89 H89        24.7919  -24.7422  -45.3501 H         1 UNK         0.0847 
     90 H90        22.3591  -27.6755  -43.3501 H         1 UNK         0.3040 
     91 H91        24.8756  -29.0418  -42.9919 H         1 UNK         0.1015 
     92 H92        22.8952  -30.1125  -44.0439 H         1 UNK         0.0786 
     93 H93        21.9907  -29.9705  -42.5384 H         1 UNK         0.0786 
     94 H94        23.4069  -31.0123  -42.6269 H         1 UNK         0.0786 
     95 H95        23.2566  -27.0983  -40.8237 H         1 UNK         0.3172 
     96 H96        23.2532  -26.7340  -38.6208 H         1 UNK         0.0595 
     97 H97        25.6921  -26.4827  -39.1526 H         1 UNK         0.0839 
     98 H98        25.9635  -28.1630  -38.6933 H         1 UNK         0.0839 
     99 H99        25.4362  -26.9921  -37.4930 H         1 UNK         0.0839 
    100 H100       21.8604  -29.1015  -39.3479 H         1 UNK         0.2998 
    101 H101       20.7037  -30.7885  -38.5480 H         1 UNK         0.0822 
    102 H102       21.6839  -30.0832  -35.7354 H         1 UNK         0.0787 
    103 H103       20.3107  -29.3281  -36.5447 H         1 UNK         0.0787 
    104 H104       20.2698  -31.0369  -36.1493 H         1 UNK         0.0787 
    105 H105       23.7831  -31.0876  -39.1128 H         1 UNK         0.3055 
    106 H106       24.3268  -33.6863  -37.8499 H         1 UNK         0.1106 
    107 H107       26.1653  -32.0514  -38.4025 H         1 UNK         0.0828 
    108 H108       26.3852  -33.6056  -39.1912 H         1 UNK         0.0828 
    109 H109       25.7955  -32.2356  -40.1171 H         1 UNK         0.0828 
    110 H110       22.4803  -32.5808  -40.4657 H         1 UNK         0.2931 
    111 H111       22.6630  -34.7034  -42.3392 H         1 UNK         0.0412 
    112 H112       20.1702  -37.1195  -41.5101 H         1 UNK         0.3472 
    113 H113       21.0706  -36.4066  -42.8223 H         1 UNK         0.3472 
    114 H114       20.4587  -33.7550  -43.1747 H         1 UNK         0.0970 
    115 H115       21.7671  -32.6311  -43.1117 H         1 UNK         0.0970 
    116 H116       17.7532  -32.1965  -41.2701 H         1 UNK         0.0612 
    117 H117       18.3215  -33.2955  -42.4927 H         1 UNK         0.0612 
@<TRIPOS>BOND
     1    1    2 1    
     2    1   62 1    
     3    1   63 1    
     4    1   64 1    
     5    2    3 2    
     6    2    4 am   BACKBONE|DICT|INTERRES
     7    4    5 1    
     8    4   65 1    
     9    5    6 1    
    10    5   25 1    
    11    5   66 1    
    12    6    7 1    
    13    6   67 1    
    14    6   68 1    
    15    7    8 1    
    16    8    9 1    
    17    8   69 1    
    18    8   70 1    
    19    9   10 ar   
    20    9   14 ar   
    21   10   11 ar   
    22   10   71 1    
    23   11   12 ar   
    24   11   61 1    
    25   12   13 ar   
    26   12   72 1    
    27   13   14 ar   
    28   13   15 1    
    29   14   73 1    
    30   15   16 1    
    31   15   74 1    
    32   15   75 1    
    33   16   17 1    
    34   17   18 1    
    35   17   76 1    
    36   17   77 1    
    37   18   19 1    
    38   18   27 1    
    39   18   78 1    
    40   19   20 am   BACKBONE|DICT|INTERRES
    41   19   79 1    
    42   20   21 2    
    43   20   22 1    
    44   22   23 1    
    45   22   24 1    
    46   22   80 1    
    47   23   81 1    
    48   23   82 1    
    49   23   83 1    
    50   24   25 am   BACKBONE|DICT|INTERRES
    51   24   84 1    
    52   25   26 2    
    53   27   28 2    
    54   27   29 am   BACKBONE|DICT|INTERRES
    55   29   30 1    
    56   29   85 1    
    57   30   31 1    
    58   30   32 1    
    59   30   86 1    
    60   31   87 1    
    61   31   88 1    
    62   31   89 1    
    63   32   33 2    
    64   32   34 am   BACKBONE|DICT|INTERRES
    65   34   35 1    
    66   34   90 1    
    67   35   36 1    
    68   35   37 1    
    69   35   91 1    
    70   36   92 1    
    71   36   93 1    
    72   36   94 1    
    73   37   38 2    
    74   37   39 am   BACKBONE|DICT|INTERRES
    75   39   40 1    
    76   39   95 1    
    77   40   41 1    
    78   40   42 1    
    79   40   96 1    
    80   41   97 1    
    81   41   98 1    
    82   41   99 1    
    83   42   43 2    
    84   42   44 am   BACKBONE|DICT|INTERRES
    85   44   45 1    
    86   44  100 1    
    87   45   46 1    
    88   45   47 1    
    89   45  101 1    
    90   46  102 1    
    91   46  103 1    
    92   46  104 1    
    93   47   48 2    
    94   47   49 am   BACKBONE|DICT|INTERRES
    95   49   50 1    
    96   49  105 1    
    97   50   51 1    
    98   50   52 1    
    99   50  106 1    
   100   51  107 1    
   101   51  108 1    
   102   51  109 1    
   103   52   53 2    
   104   52   54 am   BACKBONE|DICT|INTERRES
   105   54   55 1    
   106   54  110 1    
   107   55   56 1    
   108   55   59 1    
   109   55  111 1    
   110   56   57 am   BACKBONE|DICT|INTERRES
   111   56   58 2    
   112   57  112 1    
   113   57  113 1    
   114   59   60 1    
   115   59  114 1    
   116   59  115 1    
   117   60   61 1    
   118   61  116 1    
   119   61  117 1    
@<TRIPOS>SUBSTRUCTURE
     1 UNK         1 GROUP             0       ****    0 ROOT    
