@<TRIPOS>MOLECULE
3R8
117   119    1
SMALL
USER_CHARGES


@<TRIPOS>ATOM
      1 CA         14.9020  -22.3080  -43.3970 C.3       0 UNK        -0.2013 
      2 C          15.7310  -22.8335  -44.5592 C.2       0 UNK         0.4866 
      3 O          16.0883  -22.0668  -45.4537 O.2       0 UNK        -0.5176 
      4 N          16.0420  -24.1362  -44.5536 N.am      1 UNK        -0.4884 
      5 CA         16.8406  -24.8156  -45.5829 C.3       1 UNK         0.0853 
      6 C6         16.5836  -26.3462  -45.5989 C.3       10 UNK        -0.0849 
      7 S7         16.7881  -27.1570  -43.9740 S.3       10 UNK        -0.2776 
      8 C8         16.3963  -28.8894  -44.3869 C.3       10 UNK         0.0316 
      9 C9         17.6420  -29.7614  -44.3361 C.ar      10 UNK        -0.0863 
     10 C10        17.9074  -30.5450  -43.2091 C.ar      10 UNK        -0.1009 
     11 C11        19.0742  -31.3106  -43.1334 C.ar      10 UNK        -0.0712 
     12 C12        19.9690  -31.3067  -44.2066 C.ar      10 UNK        -0.0894 
     13 C13        19.7087  -30.5395  -45.3457 C.ar      10 UNK        -0.0745 
     14 C14        18.5370  -29.7775  -45.4085 C.ar      10 UNK        -0.0972 
     15 C15        20.6913  -30.5366  -46.5092 C.3       10 UNK         0.0209 
     16 S16        22.1511  -29.4910  -46.1893 S.3       10 UNK        -0.2568 
     17 C17        21.4057  -27.8299  -46.0295 C.3       10 UNK        -0.0983 
     18 CA         21.7876  -27.0216  -44.7608 C.3       3 UNK         0.0876 
     19 N          21.0249  -25.7728  -44.7302 N.am      3 UNK        -0.4424 
     20 C          21.2253  -24.7204  -43.9306 C.2       2 UNK         0.4918 
     21 O          22.1562  -24.6426  -43.1292 O.2       2 UNK        -0.4875 
     22 CA         20.1976  -23.5720  -44.0104 C.3       2 UNK         0.0481 
     23 CB         20.7018  -22.4524  -44.9406 C.3       2 UNK        -0.1831 
     24 N          18.8210  -23.9758  -44.3574 N.am      2 UNK        -0.4498 
     25 C          18.3490  -24.4943  -45.5046 C.2       1 UNK         0.5027 
     26 O          19.0610  -24.7543  -46.4753 O.2       1 UNK        -0.4969 
     27 C          21.6834  -27.8054  -43.4281 C.2       3 UNK         0.5005 
     28 O          22.6397  -28.4961  -43.0699 O.2       3 UNK        -0.5279 
     29 N          20.5900  -27.6130  -42.6696 N.am      4 UNK        -0.4463 
     30 CA         20.3616  -28.1084  -41.3030 C.3       4 UNK         0.0283 
     31 CB         18.8746  -27.9167  -40.9490 C.3       4 UNK        -0.1875 
     32 C          21.2784  -27.4462  -40.2469 C.2       4 UNK         0.4949 
     33 O          20.7934  -26.8821  -39.2646 O.2       4 UNK        -0.5039 
     34 N          22.5881  -27.5242  -40.4788 N.am      5 UNK        -0.4663 
     35 CA         23.6859  -26.9823  -39.6809 C.3       5 UNK         0.0242 
     36 CB         23.6352  -25.4422  -39.6100 C.3       5 UNK        -0.1982 
     37 C          25.0116  -27.4472  -40.2932 C.2       5 UNK         0.5017 
     38 O          25.8958  -27.8930  -39.5621 O.2       5 UNK        -0.5012 
     39 N          25.1098  -27.3583  -41.6288 N.am      6 UNK        -0.4439 
     40 CA         26.2148  -27.8923  -42.4271 C.3       6 UNK         0.0297 
     41 CB         26.1414  -27.3202  -43.8525 C.3       6 UNK        -0.2006 
     42 C          26.2081  -29.4300  -42.4588 C.2       6 UNK         0.4892 
     43 O          27.2684  -30.0422  -42.3241 O.2       6 UNK        -0.5089 
     44 N          25.0145  -30.0150  -42.6124 N.am      7 UNK        -0.4243 
     45 CA         24.7515  -31.4450  -42.5057 C.3       7 UNK         0.0196 
     46 CB         23.9237  -31.8849  -43.7221 C.3       7 UNK        -0.2007 
     47 C          23.9767  -31.7100  -41.2090 C.2       7 UNK         0.5020 
     48 O          23.1495  -30.8887  -40.8055 O.2       7 UNK        -0.5147 
     49 N          24.2414  -32.8657  -40.5932 N.am      8 UNK        -0.4734 
     50 CA         23.5755  -33.3308  -39.3798 C.3       8 UNK         0.0238 
     51 CB         24.6388  -33.7657  -38.3545 C.3       8 UNK        -0.1912 
     52 C          22.6450  -34.4902  -39.7529 C.2       8 UNK         0.5038 
     53 O          23.1243  -35.6043  -39.9759 O.2       8 UNK        -0.5046 
     54 N          21.3422  -34.2025  -39.8393 N.am      9 UNK        -0.4200 
     55 CA         20.2828  -35.2020  -40.0369 C.3       9 UNK         0.0839 
     56 C          20.0827  -36.0835  -38.7735 C.2       9 UNK         0.5513 
     57 N          19.7357  -37.3506  -38.9510 N.am      9 UNK        -0.7519 
     58 O          20.1975  -35.6196  -37.6405 O.2       9 UNK        -0.4960 
     59 C59        18.9482  -34.5343  -40.4556 C.3       10 UNK        -0.0876 
     60 S60        18.9935  -33.8852  -42.1597 S.3       10 UNK        -0.2414 
     61 C61        19.3729  -32.1286  -41.8874 C.3       10 UNK         0.0169 
     62 H62        14.6588  -23.0931  -42.6812 H         1 UNK         0.0903 
     63 H63        15.4477  -21.5256  -42.8702 H         1 UNK         0.0903 
     64 H64        13.9681  -21.8836  -43.7645 H         1 UNK         0.0903 
     65 H65        15.7225  -24.7294  -43.7992 H         1 UNK         0.3096 
     66 H66        16.5158  -24.4301  -46.5525 H         1 UNK         0.1121 
     67 H67        15.5612  -26.5282  -45.9344 H         1 UNK         0.0849 
     68 H68        17.2239  -26.8425  -46.3311 H         1 UNK         0.0849 
     69 H69        15.6499  -29.2563  -43.6806 H         1 UNK         0.0865 
     70 H70        15.9339  -28.9574  -45.3727 H         1 UNK         0.0865 
     71 H71        17.2147  -30.5425  -42.3785 H         1 UNK         0.1346 
     72 H72        20.8670  -31.9048  -44.1543 H         1 UNK         0.1412 
     73 H73        18.3281  -29.1803  -46.2853 H         1 UNK         0.1426 
     74 H74        20.2033  -30.1994  -47.4250 H         1 UNK         0.0716 
     75 H75        21.0264  -31.5567  -46.7017 H         1 UNK         0.0716 
     76 H76        21.7017  -27.2630  -46.9136 H         1 UNK         0.0695 
     77 H77        20.3224  -27.9090  -46.0983 H         1 UNK         0.0695 
     78 H78        22.8391  -26.7445  -44.8594 H         1 UNK         0.0983 
     79 H79        20.2741  -25.6844  -45.4089 H         1 UNK         0.3095 
     80 H80        20.1305  -23.1537  -43.0049 H         1 UNK         0.0454 
     81 H81        21.6726  -22.0806  -44.6101 H         1 UNK         0.0851 
     82 H82        20.8217  -22.7963  -45.9683 H         1 UNK         0.0851 
     83 H83        20.0165  -21.6049  -44.9484 H         1 UNK         0.0851 
     84 H84        18.1407  -23.8412  -43.6221 H         1 UNK         0.2976 
     85 H85        19.8681  -27.0165  -43.0456 H         1 UNK         0.3116 
     86 H86        20.5781  -29.1788  -41.2954 H         1 UNK         0.0646 
     87 H87        18.6448  -28.3503  -39.9750 H         1 UNK         0.0847 
     88 H88        18.2216  -28.3961  -41.6726 H         1 UNK         0.0847 
     89 H89        18.6020  -26.8613  -40.9103 H         1 UNK         0.0847 
     90 H90        22.8560  -28.0621  -41.3014 H         1 UNK         0.3040 
     91 H91        23.6135  -27.3930  -38.6717 H         1 UNK         0.1015 
     92 H92        22.7611  -25.0928  -39.0612 H         1 UNK         0.0786 
     93 H93        23.6059  -24.9923  -40.6033 H         1 UNK         0.0786 
     94 H94        24.5121  -25.0460  -39.0961 H         1 UNK         0.0786 
     95 H95        24.3332  -26.9631  -42.1399 H         1 UNK         0.3172 
     96 H96        27.1532  -27.5654  -41.9740 H         1 UNK         0.0595 
     97 H97        26.9759  -27.6780  -44.4572 H         1 UNK         0.0839 
     98 H98        26.1898  -26.2311  -43.8476 H         1 UNK         0.0839 
     99 H99        25.2226  -27.6147  -44.3615 H         1 UNK         0.0839 
    100 H100       24.1834  -29.4325  -42.6996 H         1 UNK         0.2998 
    101 H101       25.6856  -32.0106  -42.4888 H         1 UNK         0.0822 
    102 H102       23.0075  -31.3004  -43.8030 H         1 UNK         0.0787 
    103 H103       24.4820  -31.7524  -44.6489 H         1 UNK         0.0787 
    104 H104       23.6433  -32.9368  -43.6545 H         1 UNK         0.0787 
    105 H105       24.8887  -33.5150  -41.0193 H         1 UNK         0.3055 
    106 H106       22.9839  -32.5326  -38.9248 H         1 UNK         0.1106 
    107 H107       25.2877  -34.5513  -38.7440 H         1 UNK         0.0828 
    108 H108       25.2706  -32.9267  -38.0624 H         1 UNK         0.0828 
    109 H109       24.1702  -34.1496  -37.4473 H         1 UNK         0.0828 
    110 H110       21.0347  -33.2634  -39.6388 H         1 UNK         0.2931 
    111 H111       20.5998  -35.8607  -40.8487 H         1 UNK         0.0412 
    112 H112       19.5857  -37.9365  -38.1440 H         1 UNK         0.3472 
    113 H113       19.6303  -37.7374  -39.8766 H         1 UNK         0.3472 
    114 H114       18.1351  -35.2626  -40.4280 H         1 UNK         0.0970 
    115 H115       18.6625  -33.7493  -39.7532 H         1 UNK         0.0970 
    116 H116       18.7934  -31.7505  -41.0438 H         1 UNK         0.0612 
    117 H117       20.4247  -32.0195  -41.6180 H         1 UNK         0.0612 
@<TRIPOS>BOND
     1    1    2 1    
     2    1   62 1    
     3    1   63 1    
     4    1   64 1    
     5    2    3 2    
     6    2    4 am   BACKBONE|DICT|INTERRES
     7    4    5 1    
     8    4   65 1    
     9    5    6 1    
    10    5   25 1    
    11    5   66 1    
    12    6    7 1    
    13    6   67 1    
    14    6   68 1    
    15    7    8 1    
    16    8    9 1    
    17    8   69 1    
    18    8   70 1    
    19    9   10 ar   
    20    9   14 ar   
    21   10   11 ar   
    22   10   71 1    
    23   11   12 ar   
    24   11   61 1    
    25   12   13 ar   
    26   12   72 1    
    27   13   14 ar   
    28   13   15 1    
    29   14   73 1    
    30   15   16 1    
    31   15   74 1    
    32   15   75 1    
    33   16   17 1    
    34   17   18 1    
    35   17   76 1    
    36   17   77 1    
    37   18   19 1    
    38   18   27 1    
    39   18   78 1    
    40   19   20 am   BACKBONE|DICT|INTERRES
    41   19   79 1    
    42   20   21 2    
    43   20   22 1    
    44   22   23 1    
    45   22   24 1    
    46   22   80 1    
    47   23   81 1    
    48   23   82 1    
    49   23   83 1    
    50   24   25 am   BACKBONE|DICT|INTERRES
    51   24   84 1    
    52   25   26 2    
    53   27   28 2    
    54   27   29 am   BACKBONE|DICT|INTERRES
    55   29   30 1    
    56   29   85 1    
    57   30   31 1    
    58   30   32 1    
    59   30   86 1    
    60   31   87 1    
    61   31   88 1    
    62   31   89 1    
    63   32   33 2    
    64   32   34 am   BACKBONE|DICT|INTERRES
    65   34   35 1    
    66   34   90 1    
    67   35   36 1    
    68   35   37 1    
    69   35   91 1    
    70   36   92 1    
    71   36   93 1    
    72   36   94 1    
    73   37   38 2    
    74   37   39 am   BACKBONE|DICT|INTERRES
    75   39   40 1    
    76   39   95 1    
    77   40   41 1    
    78   40   42 1    
    79   40   96 1    
    80   41   97 1    
    81   41   98 1    
    82   41   99 1    
    83   42   43 2    
    84   42   44 am   BACKBONE|DICT|INTERRES
    85   44   45 1    
    86   44  100 1    
    87   45   46 1    
    88   45   47 1    
    89   45  101 1    
    90   46  102 1    
    91   46  103 1    
    92   46  104 1    
    93   47   48 2    
    94   47   49 am   BACKBONE|DICT|INTERRES
    95   49   50 1    
    96   49  105 1    
    97   50   51 1    
    98   50   52 1    
    99   50  106 1    
   100   51  107 1    
   101   51  108 1    
   102   51  109 1    
   103   52   53 2    
   104   52   54 am   BACKBONE|DICT|INTERRES
   105   54   55 1    
   106   54  110 1    
   107   55   56 1    
   108   55   59 1    
   109   55  111 1    
   110   56   57 am   BACKBONE|DICT|INTERRES
   111   56   58 2    
   112   57  112 1    
   113   57  113 1    
   114   59   60 1    
   115   59  114 1    
   116   59  115 1    
   117   60   61 1    
   118   61  116 1    
   119   61  117 1    
@<TRIPOS>SUBSTRUCTURE
     1 UNK         1 GROUP             0       ****    0 ROOT    
