@<TRIPOS>MOLECULE
3R8
117   119    1
SMALL
USER_CHARGES


@<TRIPOS>ATOM
      1 CA         14.3963  -27.0521  -46.4775 C.3       0 UNK        -0.2013 
      2 C          15.5961  -27.1813  -45.5518 C.2       0 UNK         0.4866 
      3 O          16.7029  -27.4584  -46.0160 O.2       0 UNK        -0.5176 
      4 N          15.3938  -26.9710  -44.2450 N.am      1 UNK        -0.4884 
      5 CA         16.4158  -27.0719  -43.1937 C.3       1 UNK         0.0853 
      6 C6         15.7888  -27.4338  -41.8206 C.3       10 UNK        -0.0849 
      7 S7         15.0957  -29.1259  -41.8385 S.3       10 UNK        -0.2776 
      8 C8         16.3478  -30.0868  -40.9161 C.3       10 UNK         0.0316 
      9 C9         17.7655  -29.8284  -41.4107 C.ar      10 UNK        -0.0863 
     10 C10        18.1564  -30.2345  -42.6893 C.ar      10 UNK        -0.1009 
     11 C11        19.4300  -29.9241  -43.1755 C.ar      10 UNK        -0.0712 
     12 C12        20.3324  -29.2361  -42.3557 C.ar      10 UNK        -0.0894 
     13 C13        19.9573  -28.8414  -41.0664 C.ar      10 UNK        -0.0745 
     14 C14        18.6757  -29.1453  -40.5999 C.ar      10 UNK        -0.0972 
     15 C15        20.9170  -28.0704  -40.1721 C.3       10 UNK         0.0209 
     16 S16        20.4348  -26.3186  -40.0449 S.3       10 UNK        -0.2568 
     17 C17        21.9250  -25.4770  -40.6708 C.3       10 UNK        -0.0983 
     18 CA         21.9919  -25.4663  -42.2181 C.3       3 UNK         0.0876 
     19 N          20.8035  -24.8508  -42.8216 N.am      3 UNK        -0.4424 
     20 C          20.3353  -25.1149  -44.0453 C.2       2 UNK         0.4918 
     21 O          20.9120  -25.8478  -44.8526 O.2       2 UNK        -0.4875 
     22 CA         18.9867  -24.4858  -44.4163 C.3       2 UNK         0.0481 
     23 CB         18.9843  -23.9591  -45.8615 C.3       2 UNK        -0.1831 
     24 N          17.9561  -25.5082  -44.2762 N.am      2 UNK        -0.4498 
     25 C          17.3103  -25.8135  -43.1443 C.2       1 UNK         0.5027 
     26 O          17.3967  -25.1460  -42.1119 O.2       1 UNK        -0.4969 
     27 C          23.3164  -24.8757  -42.7542 C.2       3 UNK         0.5005 
     28 O          24.1852  -24.4810  -41.9735 O.2       3 UNK        -0.5279 
     29 N          23.4621  -24.8545  -44.0858 N.am      4 UNK        -0.4463 
     30 CA         24.7520  -24.7443  -44.7724 C.3       4 UNK         0.0283 
     31 CB         24.5248  -24.2999  -46.2260 C.3       4 UNK        -0.1875 
     32 C          25.5032  -26.0886  -44.7210 C.2       4 UNK         0.4949 
     33 O          26.7310  -26.1032  -44.6338 O.2       4 UNK        -0.5039 
     34 N          24.7363  -27.1871  -44.7448 N.am      5 UNK        -0.4663 
     35 CA         25.1794  -28.5492  -44.4576 C.3       5 UNK         0.0242 
     36 CB         24.2821  -29.5155  -45.2518 C.3       5 UNK        -0.1982 
     37 C          25.1108  -28.8387  -42.9444 C.2       5 UNK         0.5017 
     38 O          24.6387  -28.0008  -42.1711 O.2       5 UNK        -0.5012 
     39 N          25.5811  -30.0323  -42.5571 N.am      6 UNK        -0.4439 
     40 CA         25.5874  -30.5550  -41.1854 C.3       6 UNK         0.0297 
     41 CB         26.2980  -31.9199  -41.1909 C.3       6 UNK        -0.2006 
     42 C          24.1839  -30.6901  -40.5617 C.2       6 UNK         0.4892 
     43 O          23.1830  -30.6808  -41.2804 O.2       6 UNK        -0.5089 
     44 N          24.1473  -30.8457  -39.2300 N.am      7 UNK        -0.4243 
     45 CA         22.9406  -31.0206  -38.4142 C.3       7 UNK         0.0196 
     46 CB         23.3445  -31.2034  -36.9416 C.3       7 UNK        -0.2007 
     47 C          22.0650  -32.1922  -38.8951 C.2       7 UNK         0.5020 
     48 O          22.5079  -33.3403  -38.8397 O.2       7 UNK        -0.5147 
     49 N          20.8638  -31.8614  -39.3921 N.am      8 UNK        -0.4734 
     50 CA         19.8713  -32.7446  -40.0269 C.3       8 UNK         0.0238 
     51 CB         19.3785  -33.8288  -39.0448 C.3       8 UNK        -0.1912 
     52 C          20.3089  -33.3402  -41.3838 C.2       8 UNK         0.5038 
     53 O          19.5827  -34.1804  -41.9177 O.2       8 UNK        -0.5046 
     54 N          21.4516  -32.8771  -41.9119 N.am      9 UNK        -0.4200 
     55 CA         22.1132  -33.2341  -43.1741 C.3       9 UNK         0.0839 
     56 C          22.0540  -34.7371  -43.5821 C.2       9 UNK         0.5513 
     57 N          21.7486  -35.0638  -44.8311 N.am      9 UNK        -0.7519 
     58 O          22.3615  -35.6146  -42.7781 O.2       9 UNK        -0.4960 
     59 C59        21.8509  -32.1887  -44.2933 C.3       10 UNK        -0.0876 
     60 S60        20.1152  -32.0509  -44.8418 S.3       10 UNK        -0.2414 
     61 C61        19.7902  -30.2738  -44.6125 C.3       10 UNK         0.0169 
     62 H62        14.2323  -27.9883  -47.0103 H         1 UNK         0.0903 
     63 H63        13.4846  -26.8080  -45.9325 H         1 UNK         0.0903 
     64 H64        14.5730  -26.2676  -47.2129 H         1 UNK         0.0903 
     65 H65        14.4669  -26.7309  -43.9227 H         1 UNK         0.3096 
     66 H66        17.0935  -27.8828  -43.4636 H         1 UNK         0.1121 
     67 H67        14.9961  -26.7293  -41.5630 H         1 UNK         0.0849 
     68 H68        16.5221  -27.3595  -41.0159 H         1 UNK         0.0849 
     69 H69        16.2599  -29.8506  -39.8545 H         1 UNK         0.0865 
     70 H70        16.1214  -31.1497  -41.0106 H         1 UNK         0.0865 
     71 H71        17.4515  -30.7523  -43.3257 H         1 UNK         0.1346 
     72 H72        21.3201  -28.9952  -42.7244 H         1 UNK         0.1412 
     73 H73        18.3792  -28.8193  -39.6119 H         1 UNK         0.1426 
     74 H74        21.9424  -28.1707  -40.5327 H         1 UNK         0.0716 
     75 H75        20.8990  -28.4960  -39.1694 H         1 UNK         0.0716 
     76 H76        21.9274  -24.4568  -40.2829 H         1 UNK         0.0695 
     77 H77        22.8030  -25.9669  -40.2445 H         1 UNK         0.0695 
     78 H78        22.0081  -26.5136  -42.5288 H         1 UNK         0.0983 
     79 H79        20.2580  -24.2591  -42.2112 H         1 UNK         0.3095 
     80 H80        18.7786  -23.6477  -43.7478 H         1 UNK         0.0454 
     81 H81        19.1581  -24.7550  -46.5871 H         1 UNK         0.0851 
     82 H82        18.0333  -23.4869  -46.1077 H         1 UNK         0.0851 
     83 H83        19.7649  -23.2109  -46.0046 H         1 UNK         0.0851 
     84 H84        17.8117  -26.1252  -45.0709 H         1 UNK         0.2976 
     85 H85        22.6653  -25.1594  -44.6391 H         1 UNK         0.3116 
     86 H86        25.3636  -23.9905  -44.2719 H         1 UNK         0.0646 
     87 H87        25.4739  -24.2000  -46.7543 H         1 UNK         0.0847 
     88 H88        24.0264  -23.3314  -46.2707 H         1 UNK         0.0847 
     89 H89        23.9168  -25.0160  -46.7803 H         1 UNK         0.0847 
     90 H90        23.7374  -27.0560  -44.7901 H         1 UNK         0.3040 
     91 H91        26.2152  -28.6731  -44.7820 H         1 UNK         0.1015 
     92 H92        24.3590  -29.3312  -46.3237 H         1 UNK         0.0786 
     93 H93        23.2339  -29.4071  -44.9727 H         1 UNK         0.0786 
     94 H94        24.5625  -30.5564  -45.0876 H         1 UNK         0.0786 
     95 H95        25.9291  -30.6582  -43.2680 H         1 UNK         0.3172 
     96 H96        26.1627  -29.8592  -40.5714 H         1 UNK         0.0595 
     97 H97        27.3124  -31.8400  -41.5824 H         1 UNK         0.0839 
     98 H98        25.7600  -32.6508  -41.7965 H         1 UNK         0.0839 
     99 H99        26.3779  -32.3316  -40.1840 H         1 UNK         0.0839 
    100 H100       25.0243  -30.8708  -38.7305 H         1 UNK         0.2998 
    101 H101       22.3673  -30.0969  -38.4863 H         1 UNK         0.0822 
    102 H102       23.8916  -30.3377  -36.5678 H         1 UNK         0.0787 
    103 H103       22.4645  -31.3269  -36.3087 H         1 UNK         0.0787 
    104 H104       23.9722  -32.0846  -36.8013 H         1 UNK         0.0787 
    105 H105       20.6285  -30.8794  -39.4299 H         1 UNK         0.3055 
    106 H106       19.0157  -32.1099  -40.2588 H         1 UNK         0.1106 
    107 H107       18.5277  -34.3723  -39.4575 H         1 UNK         0.0828 
    108 H108       20.1540  -34.5635  -38.8275 H         1 UNK         0.0828 
    109 H109       19.0534  -33.3922  -38.1006 H         1 UNK         0.0828 
    110 H110       21.9398  -32.1532  -41.3943 H         1 UNK         0.2931 
    111 H111       23.1688  -33.1063  -42.9298 H         1 UNK         0.0412 
    112 H112       21.7370  -36.0355  -45.0994 H         1 UNK         0.3472 
    113 H113       21.4689  -34.3536  -45.4901 H         1 UNK         0.3472 
    114 H114       22.1782  -31.2163  -43.9255 H         1 UNK         0.0970 
    115 H115       22.4785  -32.3898  -45.1629 H         1 UNK         0.0970 
    116 H116       18.9594  -29.9899  -45.2604 H         1 UNK         0.0612 
    117 H117       20.6465  -29.6909  -44.9552 H         1 UNK         0.0612 
@<TRIPOS>BOND
     1    1    2 1    
     2    1   62 1    
     3    1   63 1    
     4    1   64 1    
     5    2    3 2    
     6    2    4 am   BACKBONE|DICT|INTERRES
     7    4    5 1    
     8    4   65 1    
     9    5    6 1    
    10    5   25 1    
    11    5   66 1    
    12    6    7 1    
    13    6   67 1    
    14    6   68 1    
    15    7    8 1    
    16    8    9 1    
    17    8   69 1    
    18    8   70 1    
    19    9   10 ar   
    20    9   14 ar   
    21   10   11 ar   
    22   10   71 1    
    23   11   12 ar   
    24   11   61 1    
    25   12   13 ar   
    26   12   72 1    
    27   13   14 ar   
    28   13   15 1    
    29   14   73 1    
    30   15   16 1    
    31   15   74 1    
    32   15   75 1    
    33   16   17 1    
    34   17   18 1    
    35   17   76 1    
    36   17   77 1    
    37   18   19 1    
    38   18   27 1    
    39   18   78 1    
    40   19   20 am   BACKBONE|DICT|INTERRES
    41   19   79 1    
    42   20   21 2    
    43   20   22 1    
    44   22   23 1    
    45   22   24 1    
    46   22   80 1    
    47   23   81 1    
    48   23   82 1    
    49   23   83 1    
    50   24   25 am   BACKBONE|DICT|INTERRES
    51   24   84 1    
    52   25   26 2    
    53   27   28 2    
    54   27   29 am   BACKBONE|DICT|INTERRES
    55   29   30 1    
    56   29   85 1    
    57   30   31 1    
    58   30   32 1    
    59   30   86 1    
    60   31   87 1    
    61   31   88 1    
    62   31   89 1    
    63   32   33 2    
    64   32   34 am   BACKBONE|DICT|INTERRES
    65   34   35 1    
    66   34   90 1    
    67   35   36 1    
    68   35   37 1    
    69   35   91 1    
    70   36   92 1    
    71   36   93 1    
    72   36   94 1    
    73   37   38 2    
    74   37   39 am   BACKBONE|DICT|INTERRES
    75   39   40 1    
    76   39   95 1    
    77   40   41 1    
    78   40   42 1    
    79   40   96 1    
    80   41   97 1    
    81   41   98 1    
    82   41   99 1    
    83   42   43 2    
    84   42   44 am   BACKBONE|DICT|INTERRES
    85   44   45 1    
    86   44  100 1    
    87   45   46 1    
    88   45   47 1    
    89   45  101 1    
    90   46  102 1    
    91   46  103 1    
    92   46  104 1    
    93   47   48 2    
    94   47   49 am   BACKBONE|DICT|INTERRES
    95   49   50 1    
    96   49  105 1    
    97   50   51 1    
    98   50   52 1    
    99   50  106 1    
   100   51  107 1    
   101   51  108 1    
   102   51  109 1    
   103   52   53 2    
   104   52   54 am   BACKBONE|DICT|INTERRES
   105   54   55 1    
   106   54  110 1    
   107   55   56 1    
   108   55   59 1    
   109   55  111 1    
   110   56   57 am   BACKBONE|DICT|INTERRES
   111   56   58 2    
   112   57  112 1    
   113   57  113 1    
   114   59   60 1    
   115   59  114 1    
   116   59  115 1    
   117   60   61 1    
   118   61  116 1    
   119   61  117 1    
@<TRIPOS>SUBSTRUCTURE
     1 UNK         1 GROUP             0       ****    0 ROOT    
