@<TRIPOS>MOLECULE
3R8
117   119    1
SMALL
USER_CHARGES


@<TRIPOS>ATOM
      1 CA         15.9723  -22.9031  -43.5596 C.3       0 UNK        -0.2013 
      2 C          16.8984  -24.1017  -43.6958 C.2       0 UNK         0.4866 
      3 O          17.4431  -24.3371  -44.7739 O.2       0 UNK        -0.5176 
      4 N          17.1047  -24.8505  -42.6053 N.am      1 UNK        -0.4884 
      5 CA         17.9026  -26.0860  -42.5236 C.3       1 UNK         0.0853 
      6 C6         17.4494  -26.9553  -41.3194 C.3       10 UNK        -0.0849 
      7 S7         15.7428  -27.5647  -41.5615 S.3       10 UNK        -0.2776 
      8 C8         15.9764  -29.3575  -41.8251 C.3       10 UNK         0.0316 
      9 C9         17.0904  -29.6798  -42.8144 C.ar      10 UNK        -0.0863 
     10 C10        18.2369  -30.3499  -42.3756 C.ar      10 UNK        -0.1009 
     11 C11        19.2775  -30.6288  -43.2637 C.ar      10 UNK        -0.0712 
     12 C12        19.1667  -30.2401  -44.6004 C.ar      10 UNK        -0.0894 
     13 C13        18.0338  -29.5601  -45.0498 C.ar      10 UNK        -0.0745 
     14 C14        16.9893  -29.2965  -44.1565 C.ar      10 UNK        -0.0972 
     15 C15        17.9478  -29.0949  -46.4940 C.3       10 UNK         0.0209 
     16 S16        18.5326  -27.3783  -46.6603 S.3       10 UNK        -0.2568 
     17 C17        20.2011  -27.5385  -47.4093 C.3       10 UNK        -0.0983 
     18 CA         21.4133  -27.1280  -46.5149 C.3       3 UNK         0.0876 
     19 N          21.0492  -26.1451  -45.4930 N.am      3 UNK        -0.4424 
     20 C          21.8942  -25.4266  -44.7428 C.2       2 UNK         0.4918 
     21 O          23.1140  -25.4141  -44.9077 O.2       2 UNK        -0.4875 
     22 CA         21.2770  -24.5537  -43.6334 C.3       2 UNK         0.0481 
     23 CB         21.3762  -23.0650  -44.0026 C.3       2 UNK        -0.1831 
     24 N          19.8736  -24.8836  -43.3766 N.am      2 UNK        -0.4498 
     25 C          19.4304  -25.8318  -42.5417 C.2       1 UNK         0.5027 
     26 O          20.1754  -26.4891  -41.8139 O.2       1 UNK        -0.4969 
     27 C          22.1388  -28.3453  -45.9016 C.2       3 UNK         0.5005 
     28 O          21.8948  -28.6869  -44.7434 O.2       3 UNK        -0.5279 
     29 N          23.0146  -28.9756  -46.7029 N.am      4 UNK        -0.4463 
     30 CA         23.8819  -30.1089  -46.3485 C.3       4 UNK         0.0283 
     31 CB         23.0514  -31.4067  -46.2182 C.3       4 UNK        -0.1875 
     32 C          24.7667  -29.7853  -45.1250 C.2       4 UNK         0.4949 
     33 O          25.4124  -28.7351  -45.1186 O.2       4 UNK        -0.5039 
     34 N          24.7838  -30.6644  -44.1144 N.am      5 UNK        -0.4663 
     35 CA         25.3452  -30.3772  -42.7949 C.3       5 UNK         0.0242 
     36 CB         25.7085  -31.6941  -42.0857 C.3       5 UNK        -0.1982 
     37 C          24.3132  -29.5576  -42.0043 C.2       5 UNK         0.5017 
     38 O          23.3466  -30.1344  -41.5009 O.2       5 UNK        -0.5012 
     39 N          24.5164  -28.2327  -41.9714 N.am      6 UNK        -0.4439 
     40 CA         23.6072  -27.2259  -41.4162 C.3       6 UNK         0.0297 
     41 CB         24.2853  -25.8466  -41.4665 C.3       6 UNK        -0.2006 
     42 C          23.1410  -27.5448  -39.9858 C.2       6 UNK         0.4892 
     43 O          23.9791  -27.7139  -39.0973 O.2       6 UNK        -0.5089 
     44 N          21.8147  -27.6268  -39.8141 N.am      7 UNK        -0.4243 
     45 CA         21.0828  -27.9669  -38.5879 C.3       7 UNK         0.0196 
     46 CB         21.2366  -26.8421  -37.5423 C.3       7 UNK        -0.2007 
     47 C          21.4044  -29.3619  -38.0050 C.2       7 UNK         0.5020 
     48 O          21.1350  -29.5942  -36.8250 O.2       7 UNK        -0.5147 
     49 N          21.9568  -30.2680  -38.8211 N.am      8 UNK        -0.4734 
     50 CA         22.3348  -31.6264  -38.4397 C.3       8 UNK         0.0238 
     51 CB         23.8670  -31.6897  -38.2584 C.3       8 UNK        -0.1912 
     52 C          21.7654  -32.6045  -39.4790 C.2       8 UNK         0.5038 
     53 O          20.5435  -32.6751  -39.6104 O.2       8 UNK        -0.5046 
     54 N          22.6482  -33.3415  -40.1667 N.am      9 UNK        -0.4200 
     55 CA         22.3935  -34.3271  -41.2341 C.3       9 UNK         0.0839 
     56 C          21.5071  -35.5589  -40.8717 C.2       9 UNK         0.5513 
     57 N          21.1769  -35.7923  -39.6076 N.am      9 UNK        -0.7519 
     58 O          21.1611  -36.3526  -41.7434 O.2       9 UNK        -0.4960 
     59 C59        22.0811  -33.6781  -42.6167 C.3       10 UNK        -0.0876 
     60 S60        20.3621  -33.1336  -42.9052 S.3       10 UNK        -0.2414 
     61 C61        20.5326  -31.3287  -42.7766 C.3       10 UNK         0.0169 
     62 H62        16.5102  -21.9847  -43.7930 H         1 UNK         0.0903 
     63 H63        15.1375  -22.9950  -44.2538 H         1 UNK         0.0903 
     64 H64        15.5668  -22.8128  -42.5520 H         1 UNK         0.0903 
     65 H65        16.6418  -24.5903  -41.7458 H         1 UNK         0.3096 
     66 H66        17.7109  -26.6612  -43.4321 H         1 UNK         0.1121 
     67 H67        17.4913  -26.3788  -40.3938 H         1 UNK         0.0849 
     68 H68        18.1125  -27.8068  -41.1626 H         1 UNK         0.0849 
     69 H69        16.1717  -29.8270  -40.8596 H         1 UNK         0.0865 
     70 H70        15.0412  -29.7873  -42.1864 H         1 UNK         0.0865 
     71 H71        18.3297  -30.6490  -41.3401 H         1 UNK         0.1346 
     72 H72        19.9764  -30.4466  -45.2859 H         1 UNK         0.1412 
     73 H73        16.1105  -28.7655  -44.4970 H         1 UNK         0.1426 
     74 H74        16.9112  -29.1433  -46.8309 H         1 UNK         0.0716 
     75 H75        18.5078  -29.7626  -47.1497 H         1 UNK         0.0716 
     76 H76        20.1900  -26.8817  -48.2803 H         1 UNK         0.0695 
     77 H77        20.3274  -28.5388  -47.8275 H         1 UNK         0.0695 
     78 H78        22.1434  -26.6347  -47.1608 H         1 UNK         0.0983 
     79 H79        20.0636  -26.1066  -45.2784 H         1 UNK         0.3095 
     80 H80        21.8551  -24.7167  -42.7227 H         1 UNK         0.0454 
     81 H81        22.4134  -22.7727  -44.1724 H         1 UNK         0.0851 
     82 H82        20.9897  -22.4320  -43.2038 H         1 UNK         0.0851 
     83 H83        20.8194  -22.8361  -44.9121 H         1 UNK         0.0851 
     84 H84        19.1756  -24.4237  -43.9555 H         1 UNK         0.2976 
     85 H85        23.1649  -28.5990  -47.6288 H         1 UNK         0.3116 
     86 H86        24.5683  -30.2432  -47.1858 H         1 UNK         0.0646 
     87 H87        22.3444  -31.3625  -45.3913 H         1 UNK         0.0847 
     88 H88        22.4776  -31.5939  -47.1258 H         1 UNK         0.0847 
     89 H89        23.6915  -32.2767  -46.0670 H         1 UNK         0.0847 
     90 H90        24.2017  -31.4848  -44.1865 H         1 UNK         0.3040 
     91 H91        26.2633  -29.7950  -42.9039 H         1 UNK         0.1015 
     92 H92        26.1415  -31.4964  -41.1045 H         1 UNK         0.0786 
     93 H93        26.4458  -32.2592  -42.6562 H         1 UNK         0.0786 
     94 H94        24.8418  -32.3353  -41.9342 H         1 UNK         0.0786 
     95 H95        25.3272  -27.8724  -42.4535 H         1 UNK         0.3172 
     96 H96        22.7371  -27.2007  -42.0751 H         1 UNK         0.0595 
     97 H97        24.5258  -25.5571  -42.4896 H         1 UNK         0.0839 
     98 H98        25.2081  -25.8305  -40.8852 H         1 UNK         0.0839 
     99 H99        23.6316  -25.0752  -41.0572 H         1 UNK         0.0839 
    100 H100       21.2258  -27.4100  -40.6178 H         1 UNK         0.2998 
    101 H101       20.0311  -28.0045  -38.8758 H         1 UNK         0.0822 
    102 H102       20.5791  -27.0056  -36.6876 H         1 UNK         0.0787 
    103 H103       20.9786  -25.8708  -37.9645 H         1 UNK         0.0787 
    104 H104       22.2566  -26.7828  -37.1613 H         1 UNK         0.0787 
    105 H105       22.1595  -30.0132  -39.7836 H         1 UNK         0.3055 
    106 H106       21.8701  -31.8980  -37.4893 H         1 UNK         0.1106 
    107 H107       24.1902  -31.0062  -37.4728 H         1 UNK         0.0828 
    108 H108       24.1955  -32.6870  -37.9628 H         1 UNK         0.0828 
    109 H109       24.3991  -31.4090  -39.1681 H         1 UNK         0.0828 
    110 H110       23.6224  -33.2118  -39.9394 H         1 UNK         0.2931 
    111 H111       23.3770  -34.7817  -41.3599 H         1 UNK         0.0412 
    112 H112       21.4461  -35.1468  -38.8832 H         1 UNK         0.3472 
    113 H113       20.6205  -36.6023  -39.3833 H         1 UNK         0.3472 
    114 H114       22.7540  -32.8395  -42.7916 H         1 UNK         0.0970 
    115 H115       22.3162  -34.3956  -43.4047 H         1 UNK         0.0970 
    116 H116       20.7361  -31.0490  -41.7434 H         1 UNK         0.0612 
    117 H117       21.3924  -30.9898  -43.3534 H         1 UNK         0.0612 
@<TRIPOS>BOND
     1    1    2 1    
     2    1   62 1    
     3    1   63 1    
     4    1   64 1    
     5    2    3 2    
     6    2    4 am   BACKBONE|DICT|INTERRES
     7    4    5 1    
     8    4   65 1    
     9    5    6 1    
    10    5   25 1    
    11    5   66 1    
    12    6    7 1    
    13    6   67 1    
    14    6   68 1    
    15    7    8 1    
    16    8    9 1    
    17    8   69 1    
    18    8   70 1    
    19    9   10 ar   
    20    9   14 ar   
    21   10   11 ar   
    22   10   71 1    
    23   11   12 ar   
    24   11   61 1    
    25   12   13 ar   
    26   12   72 1    
    27   13   14 ar   
    28   13   15 1    
    29   14   73 1    
    30   15   16 1    
    31   15   74 1    
    32   15   75 1    
    33   16   17 1    
    34   17   18 1    
    35   17   76 1    
    36   17   77 1    
    37   18   19 1    
    38   18   27 1    
    39   18   78 1    
    40   19   20 am   BACKBONE|DICT|INTERRES
    41   19   79 1    
    42   20   21 2    
    43   20   22 1    
    44   22   23 1    
    45   22   24 1    
    46   22   80 1    
    47   23   81 1    
    48   23   82 1    
    49   23   83 1    
    50   24   25 am   BACKBONE|DICT|INTERRES
    51   24   84 1    
    52   25   26 2    
    53   27   28 2    
    54   27   29 am   BACKBONE|DICT|INTERRES
    55   29   30 1    
    56   29   85 1    
    57   30   31 1    
    58   30   32 1    
    59   30   86 1    
    60   31   87 1    
    61   31   88 1    
    62   31   89 1    
    63   32   33 2    
    64   32   34 am   BACKBONE|DICT|INTERRES
    65   34   35 1    
    66   34   90 1    
    67   35   36 1    
    68   35   37 1    
    69   35   91 1    
    70   36   92 1    
    71   36   93 1    
    72   36   94 1    
    73   37   38 2    
    74   37   39 am   BACKBONE|DICT|INTERRES
    75   39   40 1    
    76   39   95 1    
    77   40   41 1    
    78   40   42 1    
    79   40   96 1    
    80   41   97 1    
    81   41   98 1    
    82   41   99 1    
    83   42   43 2    
    84   42   44 am   BACKBONE|DICT|INTERRES
    85   44   45 1    
    86   44  100 1    
    87   45   46 1    
    88   45   47 1    
    89   45  101 1    
    90   46  102 1    
    91   46  103 1    
    92   46  104 1    
    93   47   48 2    
    94   47   49 am   BACKBONE|DICT|INTERRES
    95   49   50 1    
    96   49  105 1    
    97   50   51 1    
    98   50   52 1    
    99   50  106 1    
   100   51  107 1    
   101   51  108 1    
   102   51  109 1    
   103   52   53 2    
   104   52   54 am   BACKBONE|DICT|INTERRES
   105   54   55 1    
   106   54  110 1    
   107   55   56 1    
   108   55   59 1    
   109   55  111 1    
   110   56   57 am   BACKBONE|DICT|INTERRES
   111   56   58 2    
   112   57  112 1    
   113   57  113 1    
   114   59   60 1    
   115   59  114 1    
   116   59  115 1    
   117   60   61 1    
   118   61  116 1    
   119   61  117 1    
@<TRIPOS>SUBSTRUCTURE
     1 UNK         1 GROUP             0       ****    0 ROOT    
