@<TRIPOS>MOLECULE
3R8
117   119    1
SMALL
USER_CHARGES


@<TRIPOS>ATOM
      1 CA         17.5854  -24.2220  -48.1797 C.3       0 UNK        -0.2013 
      2 C          18.1518  -25.6050  -47.8956 C.2       0 UNK         0.4866 
      3 O          18.9662  -26.1044  -48.6722 O.2       0 UNK        -0.5176 
      4 N          17.7264  -26.2283  -46.7887 N.am      1 UNK        -0.4884 
      5 CA         18.1528  -27.5704  -46.3669 C.3       1 UNK         0.0853 
      6 C6         17.2208  -28.1529  -45.2775 C.3       10 UNK        -0.0849 
      7 S7         15.5124  -28.4045  -45.8667 S.3       10 UNK        -0.2776 
      8 C8         14.6254  -28.7375  -44.3036 C.3       10 UNK         0.0316 
      9 C9         15.3394  -29.7628  -43.4299 C.ar      10 UNK        -0.0863 
     10 C10        15.5979  -31.0478  -43.9171 C.ar      10 UNK        -0.1009 
     11 C11        16.3320  -31.9610  -43.1555 C.ar      10 UNK        -0.0712 
     12 C12        16.7579  -31.6027  -41.8736 C.ar      10 UNK        -0.0894 
     13 C13        16.4973  -30.3257  -41.3706 C.ar      10 UNK        -0.0745 
     14 C14        15.7852  -29.4100  -42.1516 C.ar      10 UNK        -0.0972 
     15 C15        17.0151  -29.9315  -39.9948 C.3       10 UNK         0.0209 
     16 S16        18.8267  -29.7313  -39.9841 S.3       10 UNK        -0.2568 
     17 C17        19.0290  -28.2361  -41.0090 C.3       10 UNK        -0.0983 
     18 CA         20.5125  -27.9424  -41.3632 C.3       3 UNK         0.0876 
     19 N          20.5977  -27.1704  -42.6030 N.am      3 UNK        -0.4424 
     20 C          21.5876  -27.2360  -43.5010 C.2       2 UNK         0.4918 
     21 O          22.5493  -28.0005  -43.4140 O.2       2 UNK        -0.4875 
     22 CA         21.4293  -26.3035  -44.7180 C.3       2 UNK         0.0481 
     23 CB         22.5809  -26.4205  -45.7373 C.3       2 UNK        -0.1831 
     24 N          20.1240  -26.4759  -45.3711 N.am      2 UNK        -0.4498 
     25 C          19.6130  -27.6158  -45.8693 C.2       1 UNK         0.5027 
     26 O          20.2245  -28.6839  -45.9197 O.2       1 UNK        -0.4969 
     27 C          21.3146  -27.2441  -40.2366 C.2       3 UNK         0.5005 
     28 O          22.3265  -26.5940  -40.5153 O.2       3 UNK        -0.5279 
     29 N          20.8657  -27.3961  -38.9825 N.am      4 UNK        -0.4463 
     30 CA         21.3950  -26.7679  -37.7668 C.3       4 UNK         0.0283 
     31 CB         21.0133  -25.2696  -37.7386 C.3       4 UNK        -0.1875 
     32 C          22.9009  -27.0399  -37.5754 C.2       4 UNK         0.4949 
     33 O          23.2813  -28.1990  -37.4119 O.2       4 UNK        -0.5039 
     34 N          23.7243  -25.9836  -37.6008 N.am      5 UNK        -0.4663 
     35 CA         25.1790  -26.0539  -37.4508 C.3       5 UNK         0.0242 
     36 CB         25.7147  -24.6554  -37.1023 C.3       5 UNK        -0.1982 
     37 C          25.9060  -26.6140  -38.6865 C.2       5 UNK         0.5017 
     38 O          27.0076  -27.1427  -38.5315 O.2       5 UNK        -0.5012 
     39 N          25.3051  -26.4843  -39.8794 N.am      6 UNK        -0.4439 
     40 CA         25.8516  -27.0262  -41.1273 C.3       6 UNK         0.0297 
     41 CB         25.3012  -26.2449  -42.3316 C.3       6 UNK        -0.2006 
     42 C          25.5689  -28.5313  -41.2500 C.2       6 UNK         0.4892 
     43 O          26.4800  -29.2898  -41.5832 O.2       6 UNK        -0.5089 
     44 N          24.3247  -28.9232  -40.9346 N.am      7 UNK        -0.4243 
     45 CA         23.8170  -30.2990  -40.8339 C.3       7 UNK         0.0196 
     46 CB         24.4202  -30.9947  -39.5956 C.3       7 UNK        -0.2007 
     47 C          23.9859  -31.1375  -42.1191 C.2       7 UNK         0.5020 
     48 O          24.2165  -32.3452  -42.0358 O.2       7 UNK        -0.5147 
     49 N          23.8498  -30.5012  -43.2911 N.am      8 UNK        -0.4734 
     50 CA         24.0378  -31.1256  -44.6077 C.3       8 UNK         0.0238 
     51 CB         24.0278  -30.0373  -45.6908 C.3       8 UNK        -0.1912 
     52 C          22.9915  -32.2055  -44.9322 C.2       8 UNK         0.5038 
     53 O          23.3006  -33.1499  -45.6597 O.2       8 UNK        -0.5046 
     54 N          21.7870  -32.0498  -44.3710 N.am      9 UNK        -0.4200 
     55 CA         20.6908  -33.0257  -44.4236 C.3       9 UNK         0.0839 
     56 C          20.8732  -34.2405  -43.4607 C.2       9 UNK         0.5513 
     57 N          21.8910  -34.2781  -42.6068 N.am      9 UNK        -0.7519 
     58 O          20.0834  -35.1798  -43.4943 O.2       9 UNK        -0.4960 
     59 C59        19.3290  -32.3080  -44.2281 C.3       10 UNK        -0.0876 
     60 S60        17.9394  -33.1317  -45.0839 S.3       10 UNK        -0.2414 
     61 C61        16.7177  -33.3115  -43.7418 C.3       10 UNK         0.0169 
     62 H62        17.0712  -24.2179  -49.1404 H         1 UNK         0.0903 
     63 H63        16.8764  -23.9057  -47.4148 H         1 UNK         0.0903 
     64 H64        18.3899  -23.4882  -48.2208 H         1 UNK         0.0903 
     65 H65        17.0294  -25.7869  -46.2050 H         1 UNK         0.3096 
     66 H66        18.1048  -28.2259  -47.2398 H         1 UNK         0.1121 
     67 H67        17.5952  -29.1222  -44.9395 H         1 UNK         0.0849 
     68 H68        17.2035  -27.5079  -44.3966 H         1 UNK         0.0849 
     69 H69        14.4968  -27.7954  -43.7682 H         1 UNK         0.0865 
     70 H70        13.6219  -29.0984  -44.5330 H         1 UNK         0.0865 
     71 H71        15.2780  -31.3180  -44.9144 H         1 UNK         0.1346 
     72 H72        17.3296  -32.3022  -41.2789 H         1 UNK         0.1412 
     73 H73        15.5987  -28.4147  -41.7716 H         1 UNK         0.1426 
     74 H74        16.7410  -30.7030  -39.2739 H         1 UNK         0.0716 
     75 H75        16.5465  -29.0087  -39.6490 H         1 UNK         0.0716 
     76 H76        18.4703  -28.4107  -41.9300 H         1 UNK         0.0695 
     77 H77        18.5471  -27.3824  -40.5280 H         1 UNK         0.0695 
     78 H78        21.0042  -28.8995  -41.5444 H         1 UNK         0.0983 
     79 H79        19.8699  -26.4873  -42.7489 H         1 UNK         0.3095 
     80 H80        21.4494  -25.2867  -44.3233 H         1 UNK         0.0454 
     81 H81        23.5497  -26.2938  -45.2526 H         1 UNK         0.0851 
     82 H82        22.5020  -25.6539  -46.5077 H         1 UNK         0.0851 
     83 H83        22.5891  -27.3879  -46.2361 H         1 UNK         0.0851 
     84 H84        19.5309  -25.6582  -45.3959 H         1 UNK         0.2976 
     85 H85        20.0711  -28.0099  -38.8495 H         1 UNK         0.3116 
     86 H86        20.8931  -27.2497  -36.9264 H         1 UNK         0.0646 
     87 H87        21.4426  -24.7166  -38.5751 H         1 UNK         0.0847 
     88 H88        19.9317  -25.1439  -37.7878 H         1 UNK         0.0847 
     89 H89        21.3430  -24.7927  -36.8145 H         1 UNK         0.0847 
     90 H90        23.3254  -25.0687  -37.7547 H         1 UNK         0.3040 
     91 H91        25.4028  -26.7221  -36.6158 H         1 UNK         0.1015 
     92 H92        26.7952  -24.6776  -36.9525 H         1 UNK         0.0786 
     93 H93        25.2703  -24.2777  -36.1812 H         1 UNK         0.0786 
     94 H94        25.5109  -23.9348  -37.8955 H         1 UNK         0.0786 
     95 H95        24.3668  -26.1014  -39.9156 H         1 UNK         0.3172 
     96 H96        26.9360  -26.8945  -41.1239 H         1 UNK         0.0595 
     97 H97        24.2127  -26.2288  -42.3453 H         1 UNK         0.0839 
     98 H98        25.6326  -26.6882  -43.2717 H         1 UNK         0.0839 
     99 H99        25.6465  -25.2112  -42.3205 H         1 UNK         0.0839 
    100 H100       23.6590  -28.1872  -40.7274 H         1 UNK         0.2998 
    101 H101       22.7431  -30.2197  -40.6667 H         1 UNK         0.0822 
    102 H102       23.9555  -31.9663  -39.4236 H         1 UNK         0.0787 
    103 H103       24.2678  -30.4019  -38.6939 H         1 UNK         0.0787 
    104 H104       25.4920  -31.1607  -39.7094 H         1 UNK         0.0787 
    105 H105       23.5870  -29.5164  -43.2857 H         1 UNK         0.3055 
    106 H106       25.0182  -31.6071  -44.6090 H         1 UNK         0.1106 
    107 H107       24.7560  -29.2537  -45.4807 H         1 UNK         0.0828 
    108 H108       24.2706  -30.4564  -46.6681 H         1 UNK         0.0828 
    109 H109       23.0445  -29.5735  -45.7714 H         1 UNK         0.0828 
    110 H110       21.6415  -31.2372  -43.7913 H         1 UNK         0.2931 
    111 H111       20.7000  -33.4427  -45.4325 H         1 UNK         0.0412 
    112 H112       21.9881  -35.0778  -42.0015 H         1 UNK         0.3472 
    113 H113       22.5831  -33.5395  -42.5716 H         1 UNK         0.3472 
    114 H114       19.1179  -32.1803  -43.1662 H         1 UNK         0.0970 
    115 H115       19.3716  -31.2970  -44.6382 H         1 UNK         0.0970 
    116 H116       17.1261  -33.9708  -42.9740 H         1 UNK         0.0612 
    117 H117       15.8274  -33.8048  -44.1338 H         1 UNK         0.0612 
@<TRIPOS>BOND
     1    1    2 1    
     2    1   62 1    
     3    1   63 1    
     4    1   64 1    
     5    2    3 2    
     6    2    4 am   BACKBONE|DICT|INTERRES
     7    4    5 1    
     8    4   65 1    
     9    5    6 1    
    10    5   25 1    
    11    5   66 1    
    12    6    7 1    
    13    6   67 1    
    14    6   68 1    
    15    7    8 1    
    16    8    9 1    
    17    8   69 1    
    18    8   70 1    
    19    9   10 ar   
    20    9   14 ar   
    21   10   11 ar   
    22   10   71 1    
    23   11   12 ar   
    24   11   61 1    
    25   12   13 ar   
    26   12   72 1    
    27   13   14 ar   
    28   13   15 1    
    29   14   73 1    
    30   15   16 1    
    31   15   74 1    
    32   15   75 1    
    33   16   17 1    
    34   17   18 1    
    35   17   76 1    
    36   17   77 1    
    37   18   19 1    
    38   18   27 1    
    39   18   78 1    
    40   19   20 am   BACKBONE|DICT|INTERRES
    41   19   79 1    
    42   20   21 2    
    43   20   22 1    
    44   22   23 1    
    45   22   24 1    
    46   22   80 1    
    47   23   81 1    
    48   23   82 1    
    49   23   83 1    
    50   24   25 am   BACKBONE|DICT|INTERRES
    51   24   84 1    
    52   25   26 2    
    53   27   28 2    
    54   27   29 am   BACKBONE|DICT|INTERRES
    55   29   30 1    
    56   29   85 1    
    57   30   31 1    
    58   30   32 1    
    59   30   86 1    
    60   31   87 1    
    61   31   88 1    
    62   31   89 1    
    63   32   33 2    
    64   32   34 am   BACKBONE|DICT|INTERRES
    65   34   35 1    
    66   34   90 1    
    67   35   36 1    
    68   35   37 1    
    69   35   91 1    
    70   36   92 1    
    71   36   93 1    
    72   36   94 1    
    73   37   38 2    
    74   37   39 am   BACKBONE|DICT|INTERRES
    75   39   40 1    
    76   39   95 1    
    77   40   41 1    
    78   40   42 1    
    79   40   96 1    
    80   41   97 1    
    81   41   98 1    
    82   41   99 1    
    83   42   43 2    
    84   42   44 am   BACKBONE|DICT|INTERRES
    85   44   45 1    
    86   44  100 1    
    87   45   46 1    
    88   45   47 1    
    89   45  101 1    
    90   46  102 1    
    91   46  103 1    
    92   46  104 1    
    93   47   48 2    
    94   47   49 am   BACKBONE|DICT|INTERRES
    95   49   50 1    
    96   49  105 1    
    97   50   51 1    
    98   50   52 1    
    99   50  106 1    
   100   51  107 1    
   101   51  108 1    
   102   51  109 1    
   103   52   53 2    
   104   52   54 am   BACKBONE|DICT|INTERRES
   105   54   55 1    
   106   54  110 1    
   107   55   56 1    
   108   55   59 1    
   109   55  111 1    
   110   56   57 am   BACKBONE|DICT|INTERRES
   111   56   58 2    
   112   57  112 1    
   113   57  113 1    
   114   59   60 1    
   115   59  114 1    
   116   59  115 1    
   117   60   61 1    
   118   61  116 1    
   119   61  117 1    
@<TRIPOS>SUBSTRUCTURE
     1 UNK         1 GROUP             0       ****    0 ROOT    
