@<TRIPOS>MOLECULE
3R8
117   119    1
SMALL
USER_CHARGES


@<TRIPOS>ATOM
      1 CA         18.7852  -21.4911  -41.9181 C.3       0 UNK        -0.2013 
      2 C          18.2346  -22.3253  -43.0649 C.2       0 UNK         0.4866 
      3 O          17.6198  -21.7746  -43.9793 O.2       0 UNK        -0.5176 
      4 N          18.4427  -23.6459  -43.0180 N.am      1 UNK        -0.4884 
      5 CA         18.0608  -24.5928  -44.0715 C.3       1 UNK         0.0853 
      6 C6         17.4999  -25.9173  -43.4842 C.3       10 UNK        -0.0849 
      7 S7         18.6053  -26.8069  -42.3325 S.3       10 UNK        -0.2776 
      8 C8         17.6252  -28.3325  -42.0601 C.3       10 UNK         0.0316 
      9 C9         18.0895  -29.5484  -42.8661 C.ar      10 UNK        -0.0863 
     10 C10        17.8292  -30.8367  -42.3818 C.ar      10 UNK        -0.1009 
     11 C11        18.2591  -31.9710  -43.0823 C.ar      10 UNK        -0.0712 
     12 C12        18.9769  -31.8067  -44.2730 C.ar      10 UNK        -0.0894 
     13 C13        19.2432  -30.5290  -44.7696 C.ar      10 UNK        -0.0745 
     14 C14        18.7673  -29.4120  -44.0812 C.ar      10 UNK        -0.0972 
     15 C15        20.0358  -30.3397  -46.0545 C.3       10 UNK         0.0209 
     16 S16        21.8449  -30.3968  -45.8083 S.3       10 UNK        -0.2568 
     17 C17        22.1639  -29.2980  -44.3827 C.3       10 UNK        -0.0983 
     18 CA         22.3943  -27.8086  -44.7526 C.3       3 UNK         0.0876 
     19 N          21.2486  -27.2165  -45.4485 N.am      3 UNK        -0.4424 
     20 C          21.2749  -26.6507  -46.6615 C.2       2 UNK         0.4918 
     21 O          22.2682  -26.6297  -47.3880 O.2       2 UNK        -0.4875 
     22 CA         19.9814  -25.9579  -47.1424 C.3       2 UNK         0.0481 
     23 CB         19.2890  -26.7880  -48.2357 C.3       2 UNK        -0.1831 
     24 N          19.0096  -25.6476  -46.0829 N.am      2 UNK        -0.4498 
     25 C          19.2249  -24.7992  -45.0655 C.2       1 UNK         0.5027 
     26 O          20.2968  -24.2096  -44.9048 O.2       1 UNK        -0.4969 
     27 C          22.7350  -26.9580  -43.5067 C.2       3 UNK         0.5005 
     28 O          23.1870  -27.5082  -42.5001 O.2       3 UNK        -0.5279 
     29 N          22.4877  -25.6394  -43.5780 N.am      4 UNK        -0.4463 
     30 CA         22.6828  -24.6124  -42.5491 C.3       4 UNK         0.0283 
     31 CB         24.1727  -24.4554  -42.1758 C.3       4 UNK        -0.1875 
     32 C          21.7829  -24.8244  -41.3218 C.2       4 UNK         0.4949 
     33 O          20.7654  -24.1456  -41.1876 O.2       4 UNK        -0.5039 
     34 N          22.1707  -25.7687  -40.4627 N.am      5 UNK        -0.4663 
     35 CA         21.4718  -26.1566  -39.2422 C.3       5 UNK         0.0242 
     36 CB         22.1464  -25.4861  -38.0300 C.3       5 UNK        -0.1982 
     37 C          21.4440  -27.6884  -39.1559 C.2       5 UNK         0.5017 
     38 O          21.8551  -28.2583  -38.1440 O.2       5 UNK        -0.5012 
     39 N          20.9750  -28.3185  -40.2433 N.am      6 UNK        -0.4439 
     40 CA         20.8282  -29.7652  -40.4374 C.3       6 UNK         0.0297 
     41 CB         19.7893  -30.3385  -39.4479 C.3       6 UNK        -0.2006 
     42 C          22.1646  -30.5306  -40.3944 C.2       6 UNK         0.4892 
     43 O          22.2065  -31.6452  -39.8725 O.2       6 UNK        -0.5089 
     44 N          23.2337  -29.9407  -40.9513 N.am      7 UNK        -0.4243 
     45 CA         24.6054  -30.4646  -40.8961 C.3       7 UNK         0.0196 
     46 CB         25.5624  -29.4577  -41.5539 C.3       7 UNK        -0.2007 
     47 C          24.7960  -31.8637  -41.5114 C.2       7 UNK         0.5020 
     48 O          25.6693  -32.6039  -41.0583 O.2       7 UNK        -0.5147 
     49 N          23.9795  -32.2091  -42.5154 N.am      8 UNK        -0.4734 
     50 CA         23.9750  -33.5294  -43.1515 C.3       8 UNK         0.0238 
     51 CB         23.4161  -33.3964  -44.5767 C.3       8 UNK        -0.1912 
     52 C          23.1655  -34.5798  -42.3697 C.2       8 UNK         0.5038 
     53 O          23.3681  -35.7726  -42.6023 O.2       8 UNK        -0.5046 
     54 N          22.2554  -34.1324  -41.4958 N.am      9 UNK        -0.4200 
     55 CA         21.3148  -34.9802  -40.7487 C.3       9 UNK         0.0839 
     56 C          21.7055  -35.1499  -39.2567 C.2       9 UNK         0.5513 
     57 N          22.3758  -34.1897  -38.6339 N.am      9 UNK        -0.7519 
     58 O          21.4050  -36.1794  -38.6579 O.2       9 UNK        -0.4960 
     59 C59        19.8616  -34.4582  -40.8840 C.3       10 UNK        -0.0876 
     60 S60        19.2571  -34.5587  -42.6017 S.3       10 UNK        -0.2414 
     61 C61        17.8773  -33.3652  -42.5903 C.3       10 UNK         0.0169 
     62 H62        19.0227  -22.1055  -41.0500 H         1 UNK         0.0903 
     63 H63        19.6927  -20.9760  -42.2316 H         1 UNK         0.0903 
     64 H64        18.0554  -20.7432  -41.6089 H         1 UNK         0.0903 
     65 H65        19.0419  -24.0241  -42.2894 H         1 UNK         0.3096 
     66 H66        17.2547  -24.1506  -44.6616 H         1 UNK         0.1121 
     67 H67        17.1907  -26.5985  -44.2785 H         1 UNK         0.0849 
     68 H68        16.5833  -25.6895  -42.9373 H         1 UNK         0.0849 
     69 H69        17.6723  -28.5636  -40.9962 H         1 UNK         0.0865 
     70 H70        16.5725  -28.1463  -42.2766 H         1 UNK         0.0865 
     71 H71        17.2776  -30.9571  -41.4593 H         1 UNK         0.1346 
     72 H72        19.3190  -32.6737  -44.8213 H         1 UNK         0.1412 
     73 H73        18.9521  -28.4322  -44.4895 H         1 UNK         0.1426 
     74 H74        19.7738  -29.3927  -46.5233 H         1 UNK         0.0716 
     75 H75        19.7578  -31.1126  -46.7722 H         1 UNK         0.0716 
     76 H76        23.0646  -29.6919  -43.9102 H         1 UNK         0.0695 
     77 H77        21.3810  -29.4030  -43.6344 H         1 UNK         0.0695 
     78 H78        23.2799  -27.7633  -45.3900 H         1 UNK         0.0983 
     79 H79        20.3990  -27.1423  -44.9111 H         1 UNK         0.3095 
     80 H80        20.2862  -25.0097  -47.5902 H         1 UNK         0.0454 
     81 H81        18.8636  -27.7106  -47.8421 H         1 UNK         0.0851 
     82 H82        19.9901  -27.0626  -49.0253 H         1 UNK         0.0851 
     83 H83        18.4833  -26.2251  -48.7072 H         1 UNK         0.0851 
     84 H84        18.1015  -26.0805  -46.1727 H         1 UNK         0.2976 
     85 H85        22.0235  -25.2942  -44.4110 H         1 UNK         0.3116 
     86 H86        22.3654  -23.6721  -43.0031 H         1 UNK         0.0646 
     87 H87        24.6066  -25.3725  -41.7773 H         1 UNK         0.0847 
     88 H88        24.3037  -23.6799  -41.4200 H         1 UNK         0.0847 
     89 H89        24.7639  -24.1622  -43.0432 H         1 UNK         0.0847 
     90 H90        22.9544  -26.3507  -40.7384 H         1 UNK         0.3040 
     91 H91        20.4305  -25.8281  -39.2835 H         1 UNK         0.1015 
     92 H92        22.1235  -24.3997  -38.1168 H         1 UNK         0.0786 
     93 H93        23.1882  -25.7924  -37.9289 H         1 UNK         0.0786 
     94 H94        21.6347  -25.7474  -37.1028 H         1 UNK         0.0786 
     95 H95        20.6834  -27.7412  -41.0214 H         1 UNK         0.3172 
     96 H96        20.4402  -29.8995  -41.4460 H         1 UNK         0.0595 
     97 H97        19.5012  -31.3506  -39.7253 H         1 UNK         0.0839 
     98 H98        18.8792  -29.7420  -39.4244 H         1 UNK         0.0839 
     99 H99        20.1812  -30.3819  -38.4311 H         1 UNK         0.0839 
    100 H100       23.1205  -29.0314  -41.3941 H         1 UNK         0.2998 
    101 H101       24.8716  -30.5435  -39.8400 H         1 UNK         0.0822 
    102 H102       25.5088  -28.4831  -41.0681 H         1 UNK         0.0787 
    103 H103       26.5968  -29.7973  -41.4853 H         1 UNK         0.0787 
    104 H104       25.3339  -29.3169  -42.6110 H         1 UNK         0.0787 
    105 H105       23.2912  -31.5422  -42.8317 H         1 UNK         0.3055 
    106 H106       25.0025  -33.8941  -43.2215 H         1 UNK         0.1106 
    107 H107       23.4673  -34.3487  -45.1062 H         1 UNK         0.0828 
    108 H108       23.9817  -32.6712  -45.1621 H         1 UNK         0.0828 
    109 H109       22.3703  -33.0862  -44.5707 H         1 UNK         0.0828 
    110 H110       22.2168  -33.1428  -41.2871 H         1 UNK         0.2931 
    111 H111       21.3270  -35.9869  -41.1713 H         1 UNK         0.0412 
    112 H112       22.5252  -33.2931  -39.0896 H         1 UNK         0.3472 
    113 H113       22.6336  -34.3117  -37.6678 H         1 UNK         0.3472 
    114 H114       19.1800  -35.0381  -40.2584 H         1 UNK         0.0970 
    115 H115       19.7971  -33.4268  -40.5389 H         1 UNK         0.0970 
    116 H116       17.0933  -33.7482  -43.2446 H         1 UNK         0.0612 
    117 H117       17.4436  -33.3237  -41.5899 H         1 UNK         0.0612 
@<TRIPOS>BOND
     1    1    2 1    
     2    1   62 1    
     3    1   63 1    
     4    1   64 1    
     5    2    3 2    
     6    2    4 am   BACKBONE|DICT|INTERRES
     7    4    5 1    
     8    4   65 1    
     9    5    6 1    
    10    5   25 1    
    11    5   66 1    
    12    6    7 1    
    13    6   67 1    
    14    6   68 1    
    15    7    8 1    
    16    8    9 1    
    17    8   69 1    
    18    8   70 1    
    19    9   10 ar   
    20    9   14 ar   
    21   10   11 ar   
    22   10   71 1    
    23   11   12 ar   
    24   11   61 1    
    25   12   13 ar   
    26   12   72 1    
    27   13   14 ar   
    28   13   15 1    
    29   14   73 1    
    30   15   16 1    
    31   15   74 1    
    32   15   75 1    
    33   16   17 1    
    34   17   18 1    
    35   17   76 1    
    36   17   77 1    
    37   18   19 1    
    38   18   27 1    
    39   18   78 1    
    40   19   20 am   BACKBONE|DICT|INTERRES
    41   19   79 1    
    42   20   21 2    
    43   20   22 1    
    44   22   23 1    
    45   22   24 1    
    46   22   80 1    
    47   23   81 1    
    48   23   82 1    
    49   23   83 1    
    50   24   25 am   BACKBONE|DICT|INTERRES
    51   24   84 1    
    52   25   26 2    
    53   27   28 2    
    54   27   29 am   BACKBONE|DICT|INTERRES
    55   29   30 1    
    56   29   85 1    
    57   30   31 1    
    58   30   32 1    
    59   30   86 1    
    60   31   87 1    
    61   31   88 1    
    62   31   89 1    
    63   32   33 2    
    64   32   34 am   BACKBONE|DICT|INTERRES
    65   34   35 1    
    66   34   90 1    
    67   35   36 1    
    68   35   37 1    
    69   35   91 1    
    70   36   92 1    
    71   36   93 1    
    72   36   94 1    
    73   37   38 2    
    74   37   39 am   BACKBONE|DICT|INTERRES
    75   39   40 1    
    76   39   95 1    
    77   40   41 1    
    78   40   42 1    
    79   40   96 1    
    80   41   97 1    
    81   41   98 1    
    82   41   99 1    
    83   42   43 2    
    84   42   44 am   BACKBONE|DICT|INTERRES
    85   44   45 1    
    86   44  100 1    
    87   45   46 1    
    88   45   47 1    
    89   45  101 1    
    90   46  102 1    
    91   46  103 1    
    92   46  104 1    
    93   47   48 2    
    94   47   49 am   BACKBONE|DICT|INTERRES
    95   49   50 1    
    96   49  105 1    
    97   50   51 1    
    98   50   52 1    
    99   50  106 1    
   100   51  107 1    
   101   51  108 1    
   102   51  109 1    
   103   52   53 2    
   104   52   54 am   BACKBONE|DICT|INTERRES
   105   54   55 1    
   106   54  110 1    
   107   55   56 1    
   108   55   59 1    
   109   55  111 1    
   110   56   57 am   BACKBONE|DICT|INTERRES
   111   56   58 2    
   112   57  112 1    
   113   57  113 1    
   114   59   60 1    
   115   59  114 1    
   116   59  115 1    
   117   60   61 1    
   118   61  116 1    
   119   61  117 1    
@<TRIPOS>SUBSTRUCTURE
     1 UNK         1 GROUP             0       ****    0 ROOT    
