@<TRIPOS>MOLECULE
3R8
117   119    1
SMALL
USER_CHARGES


@<TRIPOS>ATOM
      1 CA         17.6485  -28.0392  -41.9732 C.3       0 UNK        -0.2013 
      2 C          17.0000  -27.1447  -43.0173 C.2       0 UNK         0.4866 
      3 O          16.3400  -26.1671  -42.6636 O.2       0 UNK        -0.5176 
      4 N          17.1973  -27.4536  -44.3048 N.am      1 UNK        -0.4884 
      5 CA         16.6301  -26.7374  -45.4571 C.3       1 UNK         0.0853 
      6 C6         16.5648  -27.6411  -46.7187 C.3       10 UNK        -0.0849 
      7 S7         15.7218  -29.2348  -46.4208 S.3       10 UNK        -0.2776 
      8 C8         17.0460  -30.4381  -46.7781 C.3       10 UNK         0.0316 
      9 C9         18.1610  -30.4110  -45.7393 C.ar      10 UNK        -0.0863 
     10 C10        17.9999  -31.0749  -44.5198 C.ar      10 UNK        -0.1009 
     11 C11        19.0300  -31.0838  -43.5745 C.ar      10 UNK        -0.0712 
     12 C12        20.2264  -30.4175  -43.8541 C.ar      10 UNK        -0.0894 
     13 C13        20.4008  -29.7423  -45.0672 C.ar      10 UNK        -0.0745 
     14 C14        19.3647  -29.7504  -46.0070 C.ar      10 UNK        -0.0972 
     15 C15        21.7021  -29.0050  -45.3838 C.3       10 UNK         0.0209 
     16 S16        22.3605  -28.0177  -43.9942 S.3       10 UNK        -0.2568 
     17 C17        20.9258  -26.9904  -43.5410 C.3       10 UNK        -0.0983 
     18 CA         21.1932  -25.4710  -43.6714 C.3       3 UNK         0.0876 
     19 N          19.9236  -24.7636  -43.7701 N.am      3 UNK        -0.4424 
     20 C          19.6844  -23.6614  -44.4876 C.2       2 UNK         0.4918 
     21 O          20.5637  -22.9971  -45.0388 O.2       2 UNK        -0.4875 
     22 CA         18.1929  -23.2890  -44.6365 C.3       2 UNK         0.0481 
     23 CB         17.9308  -22.2880  -45.7810 C.3       2 UNK        -0.1831 
     24 N          17.3467  -24.4889  -44.7638 N.am      2 UNK        -0.4498 
     25 C          17.4100  -25.4283  -45.7231 C.2       1 UNK         0.5027 
     26 O          18.0989  -25.3199  -46.7393 O.2       1 UNK        -0.4969 
     27 C          22.0144  -24.8928  -42.5057 C.2       3 UNK         0.5005 
     28 O          22.0414  -25.4758  -41.4207 O.2       3 UNK        -0.5279 
     29 N          22.6620  -23.7432  -42.7415 N.am      4 UNK        -0.4463 
     30 CA         23.4943  -23.0351  -41.7595 C.3       4 UNK         0.0283 
     31 CB         23.9472  -21.6906  -42.3508 C.3       4 UNK        -0.1875 
     32 C          24.7106  -23.8439  -41.2673 C.2       4 UNK         0.4949 
     33 O          25.1339  -23.6639  -40.1256 O.2       4 UNK        -0.5039 
     34 N          25.2383  -24.7258  -42.1274 N.am      5 UNK        -0.4663 
     35 CA         26.3345  -25.6448  -41.8091 C.3       5 UNK         0.0242 
     36 CB         27.0306  -26.0538  -43.1181 C.3       5 UNK        -0.1982 
     37 C          25.8812  -26.8974  -41.0335 C.2       5 UNK         0.5017 
     38 O          26.7306  -27.5494  -40.4241 O.2       5 UNK        -0.5012 
     39 N          24.5751  -27.2088  -41.0803 N.am      6 UNK        -0.4439 
     40 CA         23.8996  -28.4088  -40.5664 C.3       6 UNK         0.0297 
     41 CB         24.0662  -28.5239  -39.0358 C.3       6 UNK        -0.2006 
     42 C          24.3084  -29.7112  -41.2892 C.2       6 UNK         0.4892 
     43 O          25.2349  -29.7265  -42.1033 O.2       6 UNK        -0.5089 
     44 N          23.5901  -30.7945  -40.9774 N.am      7 UNK        -0.4243 
     45 CA         23.8453  -32.1516  -41.4519 C.3       7 UNK         0.0196 
     46 CB         23.2183  -32.3646  -42.8425 C.3       7 UNK        -0.2007 
     47 C          23.2616  -33.1313  -40.4292 C.2       7 UNK         0.5020 
     48 O          22.4345  -32.7366  -39.6013 O.2       7 UNK        -0.5147 
     49 N          23.6771  -34.4000  -40.5144 N.am      8 UNK        -0.4734 
     50 CA         23.2501  -35.4948  -39.6354 C.3       8 UNK         0.0238 
     51 CB         24.3263  -36.5975  -39.6587 C.3       8 UNK        -0.1912 
     52 C          21.8449  -36.0291  -39.9869 C.2       8 UNK         0.5038 
     53 O          21.6830  -37.2265  -40.2313 O.2       8 UNK        -0.5046 
     54 N          20.8563  -35.1286  -40.0139 N.am      9 UNK        -0.4200 
     55 CA         19.4394  -35.4280  -40.2766 C.3       9 UNK         0.0839 
     56 C          18.6905  -36.0908  -39.0832 C.2       9 UNK         0.5513 
     57 N          19.2568  -36.1451  -37.8832 N.am      9 UNK        -0.7519 
     58 O          17.5732  -36.5719  -39.2532 O.2       9 UNK        -0.4960 
     59 C59        18.6749  -34.1774  -40.7826 C.3       10 UNK        -0.0876 
     60 S60        19.3295  -33.5448  -42.3630 S.3       10 UNK        -0.2414 
     61 C61        18.8408  -31.7985  -42.2460 C.3       10 UNK         0.0169 
     62 H62        18.4708  -28.6151  -42.3929 H         1 UNK         0.0903 
     63 H63        18.0452  -27.4402  -41.1539 H         1 UNK         0.0903 
     64 H64        16.9149  -28.7338  -41.5652 H         1 UNK         0.0903 
     65 H65        17.7317  -28.2800  -44.5407 H         1 UNK         0.3096 
     66 H66        15.6047  -26.4519  -45.2105 H         1 UNK         0.1121 
     67 H67        16.0277  -27.1260  -47.5174 H         1 UNK         0.0849 
     68 H68        17.5637  -27.8315  -47.1125 H         1 UNK         0.0849 
     69 H69        16.6096  -31.4376  -46.8103 H         1 UNK         0.0865 
     70 H70        17.4441  -30.2551  -47.7775 H         1 UNK         0.0865 
     71 H71        17.0731  -31.5910  -44.3084 H         1 UNK         0.1346 
     72 H72        21.0198  -30.4120  -43.1205 H         1 UNK         0.1412 
     73 H73        19.4986  -29.2443  -46.9535 H         1 UNK         0.1426 
     74 H74        21.5655  -28.3386  -46.2370 H         1 UNK         0.0716 
     75 H75        22.4550  -29.7365  -45.6796 H         1 UNK         0.0716 
     76 H76        20.5950  -27.2654  -42.5380 H         1 UNK         0.0695 
     77 H77        20.0999  -27.2576  -44.2001 H         1 UNK         0.0695 
     78 H78        21.7533  -25.3074  -44.5954 H         1 UNK         0.0983 
     79 H79        19.1407  -25.2008  -43.3088 H         1 UNK         0.3095 
     80 H80        17.9022  -22.8064  -43.7024 H         1 UNK         0.0454 
     81 H81        18.4594  -21.3504  -45.6056 H         1 UNK         0.0851 
     82 H82        18.2673  -22.6715  -46.7445 H         1 UNK         0.0851 
     83 H83        16.8706  -22.0504  -45.8657 H         1 UNK         0.0851 
     84 H84        16.7839  -24.7205  -43.9491 H         1 UNK         0.2976 
     85 H85        22.5418  -23.3016  -43.6444 H         1 UNK         0.3116 
     86 H86        22.8686  -22.8296  -40.8883 H         1 UNK         0.0646 
     87 H87        24.5449  -21.1295  -41.6309 H         1 UNK         0.0847 
     88 H88        23.0947  -21.0653  -42.6170 H         1 UNK         0.0847 
     89 H89        24.5577  -21.8263  -43.2443 H         1 UNK         0.0847 
     90 H90        24.8383  -24.7921  -43.0523 H         1 UNK         0.3040 
     91 H91        27.0626  -25.1217  -41.1845 H         1 UNK         0.1015 
     92 H92        27.4144  -25.1852  -43.6536 H         1 UNK         0.0786 
     93 H93        26.3537  -26.5906  -43.7843 H         1 UNK         0.0786 
     94 H94        27.8787  -26.7109  -42.9197 H         1 UNK         0.0786 
     95 H95        23.9645  -26.5690  -41.5724 H         1 UNK         0.3172 
     96 H96        22.8399  -28.2553  -40.7769 H         1 UNK         0.0595 
     97 H97        23.8069  -27.5889  -38.5388 H         1 UNK         0.0839 
     98 H98        25.0882  -28.7800  -38.7550 H         1 UNK         0.0839 
     99 H99        23.4165  -29.2957  -38.6221 H         1 UNK         0.0839 
    100 H100       22.8674  -30.7406  -40.2694 H         1 UNK         0.2998 
    101 H101       24.9246  -32.3112  -41.5057 H         1 UNK         0.0822 
    102 H102       23.5145  -31.5846  -43.5444 H         1 UNK         0.0787 
    103 H103       23.5306  -33.3181  -43.2692 H         1 UNK         0.0787 
    104 H104       22.1301  -32.3785  -42.7931 H         1 UNK         0.0787 
    105 H105       24.3230  -34.6469  -41.2512 H         1 UNK         0.3055 
    106 H106       23.1926  -35.1154  -38.6123 H         1 UNK         0.1106 
    107 H107       24.4394  -37.0316  -40.6529 H         1 UNK         0.0828 
    108 H108       25.2974  -36.2120  -39.3476 H         1 UNK         0.0828 
    109 H109       24.0707  -37.4090  -38.9758 H         1 UNK         0.0828 
    110 H110       21.0928  -34.1611  -39.8193 H         1 UNK         0.2931 
    111 H111       19.4110  -36.1660  -41.0809 H         1 UNK         0.0412 
    112 H112       18.7602  -36.5815  -37.1219 H         1 UNK         0.3472 
    113 H113       20.1704  -35.7503  -37.7293 H         1 UNK         0.3472 
    114 H114       18.7085  -33.3873  -40.0300 H         1 UNK         0.0970 
    115 H115       17.6185  -34.4057  -40.9384 H         1 UNK         0.0970 
    116 H116       17.7961  -31.7325  -41.9376 H         1 UNK         0.0612 
    117 H117       19.4273  -31.3113  -41.4653 H         1 UNK         0.0612 
@<TRIPOS>BOND
     1    1    2 1    
     2    1   62 1    
     3    1   63 1    
     4    1   64 1    
     5    2    3 2    
     6    2    4 am   BACKBONE|DICT|INTERRES
     7    4    5 1    
     8    4   65 1    
     9    5    6 1    
    10    5   25 1    
    11    5   66 1    
    12    6    7 1    
    13    6   67 1    
    14    6   68 1    
    15    7    8 1    
    16    8    9 1    
    17    8   69 1    
    18    8   70 1    
    19    9   10 ar   
    20    9   14 ar   
    21   10   11 ar   
    22   10   71 1    
    23   11   12 ar   
    24   11   61 1    
    25   12   13 ar   
    26   12   72 1    
    27   13   14 ar   
    28   13   15 1    
    29   14   73 1    
    30   15   16 1    
    31   15   74 1    
    32   15   75 1    
    33   16   17 1    
    34   17   18 1    
    35   17   76 1    
    36   17   77 1    
    37   18   19 1    
    38   18   27 1    
    39   18   78 1    
    40   19   20 am   BACKBONE|DICT|INTERRES
    41   19   79 1    
    42   20   21 2    
    43   20   22 1    
    44   22   23 1    
    45   22   24 1    
    46   22   80 1    
    47   23   81 1    
    48   23   82 1    
    49   23   83 1    
    50   24   25 am   BACKBONE|DICT|INTERRES
    51   24   84 1    
    52   25   26 2    
    53   27   28 2    
    54   27   29 am   BACKBONE|DICT|INTERRES
    55   29   30 1    
    56   29   85 1    
    57   30   31 1    
    58   30   32 1    
    59   30   86 1    
    60   31   87 1    
    61   31   88 1    
    62   31   89 1    
    63   32   33 2    
    64   32   34 am   BACKBONE|DICT|INTERRES
    65   34   35 1    
    66   34   90 1    
    67   35   36 1    
    68   35   37 1    
    69   35   91 1    
    70   36   92 1    
    71   36   93 1    
    72   36   94 1    
    73   37   38 2    
    74   37   39 am   BACKBONE|DICT|INTERRES
    75   39   40 1    
    76   39   95 1    
    77   40   41 1    
    78   40   42 1    
    79   40   96 1    
    80   41   97 1    
    81   41   98 1    
    82   41   99 1    
    83   42   43 2    
    84   42   44 am   BACKBONE|DICT|INTERRES
    85   44   45 1    
    86   44  100 1    
    87   45   46 1    
    88   45   47 1    
    89   45  101 1    
    90   46  102 1    
    91   46  103 1    
    92   46  104 1    
    93   47   48 2    
    94   47   49 am   BACKBONE|DICT|INTERRES
    95   49   50 1    
    96   49  105 1    
    97   50   51 1    
    98   50   52 1    
    99   50  106 1    
   100   51  107 1    
   101   51  108 1    
   102   51  109 1    
   103   52   53 2    
   104   52   54 am   BACKBONE|DICT|INTERRES
   105   54   55 1    
   106   54  110 1    
   107   55   56 1    
   108   55   59 1    
   109   55  111 1    
   110   56   57 am   BACKBONE|DICT|INTERRES
   111   56   58 2    
   112   57  112 1    
   113   57  113 1    
   114   59   60 1    
   115   59  114 1    
   116   59  115 1    
   117   60   61 1    
   118   61  116 1    
   119   61  117 1    
@<TRIPOS>SUBSTRUCTURE
     1 UNK         1 GROUP             0       ****    0 ROOT    
