@<TRIPOS>MOLECULE
3R8
117   119    1
SMALL
USER_CHARGES


@<TRIPOS>ATOM
      1 CA         13.6494  -28.9953  -43.2620 C.3       0 UNK        -0.2013 
      2 C          14.2335  -27.6524  -43.6737 C.2       0 UNK         0.4866 
      3 O          13.8873  -26.6276  -43.0864 O.2       0 UNK        -0.5176 
      4 N          15.1172  -27.6511  -44.6806 N.am      1 UNK        -0.4884 
      5 CA         15.7834  -26.4616  -45.2285 C.3       1 UNK         0.0853 
      6 C6         16.4962  -26.7423  -46.5789 C.3       10 UNK        -0.0849 
      7 S7         15.5546  -27.7975  -47.7530 S.3       10 UNK        -0.2776 
      8 C8         16.1349  -29.5293  -47.5235 C.3       10 UNK         0.0316 
      9 C9         17.3427  -29.6760  -46.6081 C.ar      10 UNK        -0.0863 
     10 C10        17.1822  -30.0609  -45.2739 C.ar      10 UNK        -0.1009 
     11 C11        18.2735  -30.0687  -44.4001 C.ar      10 UNK        -0.0712 
     12 C12        19.5407  -29.7231  -44.8811 C.ar      10 UNK        -0.0894 
     13 C13        19.7196  -29.3863  -46.2261 C.ar      10 UNK        -0.0745 
     14 C14        18.6201  -29.3770  -47.0874 C.ar      10 UNK        -0.0972 
     15 C15        21.0893  -29.0014  -46.7567 C.3       10 UNK         0.0209 
     16 S16        21.4025  -27.2223  -46.5357 S.3       10 UNK        -0.2568 
     17 C17        22.2923  -27.1864  -44.9464 C.3       10 UNK        -0.0983 
     18 CA         21.7155  -26.1466  -43.9563 C.3       3 UNK         0.0876 
     19 N          20.3729  -26.5096  -43.4822 N.am      3 UNK        -0.4424 
     20 C          19.5832  -25.7127  -42.7490 C.2       2 UNK         0.4918 
     21 O          19.8633  -24.5477  -42.4607 O.2       2 UNK        -0.4875 
     22 CA         18.2691  -26.3412  -42.2511 C.3       2 UNK         0.0481 
     23 CB         17.5638  -25.4844  -41.1790 C.3       2 UNK        -0.1831 
     24 N          17.3445  -26.6673  -43.3416 N.am      2 UNK        -0.4498 
     25 C          16.7823  -25.8306  -44.2313 C.2       1 UNK         0.5027 
     26 O          17.0072  -24.6213  -44.2899 O.2       1 UNK        -0.4969 
     27 C          22.7187  -25.9250  -42.8030 C.2       3 UNK         0.5005 
     28 O          23.6507  -25.1364  -42.9660 O.2       3 UNK        -0.5279 
     29 N          22.5419  -26.6441  -41.6826 N.am      4 UNK        -0.4463 
     30 CA         23.3257  -26.6266  -40.4362 C.3       4 UNK         0.0283 
     31 CB         23.3742  -25.2207  -39.8074 C.3       4 UNK        -0.1875 
     32 C          24.7331  -27.2360  -40.5596 C.2       4 UNK         0.4949 
     33 O          25.1718  -27.9219  -39.6381 O.2       4 UNK        -0.5039 
     34 N          25.4044  -27.0132  -41.6954 N.am      5 UNK        -0.4663 
     35 CA         26.6794  -27.6396  -42.0558 C.3       5 UNK         0.0242 
     36 CB         27.3244  -26.8375  -43.1971 C.3       5 UNK        -0.1982 
     37 C          26.5260  -29.1180  -42.4589 C.2       5 UNK         0.5017 
     38 O          27.4996  -29.8692  -42.3868 O.2       5 UNK        -0.5012 
     39 N          25.3138  -29.5145  -42.8714 N.am      6 UNK        -0.4439 
     40 CA         24.9447  -30.8660  -43.2967 C.3       6 UNK         0.0297 
     41 CB         23.7049  -30.7754  -44.2037 C.3       6 UNK        -0.2006 
     42 C          24.7294  -31.8077  -42.0966 C.2       6 UNK         0.4892 
     43 O          23.6222  -32.3132  -41.8986 O.2       6 UNK        -0.5089 
     44 N          25.7967  -32.0142  -41.3126 N.am      7 UNK        -0.4243 
     45 CA         25.8627  -32.8351  -40.0998 C.3       7 UNK         0.0196 
     46 CB         25.7808  -34.3372  -40.4594 C.3       7 UNK        -0.2007 
     47 C          24.8279  -32.3764  -39.0541 C.2       7 UNK         0.5020 
     48 O          24.9647  -31.2773  -38.5180 O.2       7 UNK        -0.5147 
     49 N          23.8159  -33.2100  -38.7865 N.am      8 UNK        -0.4734 
     50 CA         22.7162  -32.9125  -37.8667 C.3       8 UNK         0.0238 
     51 CB         22.1517  -34.2379  -37.3274 C.3       8 UNK        -0.1912 
     52 C          21.5923  -32.0712  -38.5004 C.2       8 UNK         0.5038 
     53 O          20.7470  -31.5681  -37.7575 O.2       8 UNK        -0.5046 
     54 N          21.5677  -31.9480  -39.8361 N.am      9 UNK        -0.4200 
     55 CA         20.5259  -31.2417  -40.5958 C.3       9 UNK         0.0839 
     56 C          20.7347  -29.7000  -40.5718 C.2       9 UNK         0.5513 
     57 N          20.5671  -29.0728  -39.4164 N.am      9 UNK        -0.7519 
     58 O          21.0324  -29.0652  -41.5827 O.2       9 UNK        -0.4960 
     59 C59        20.3427  -31.8476  -42.0204 C.3       10 UNK        -0.0876 
     60 S60        18.5891  -32.0725  -42.4837 S.3       10 UNK        -0.2414 
     61 C61        18.0577  -30.3902  -42.9285 C.3       10 UNK         0.0169 
     62 H62        13.9372  -29.7945  -43.9443 H         1 UNK         0.0903 
     63 H63        13.9897  -29.2613  -42.2616 H         1 UNK         0.0903 
     64 H64        12.5610  -28.9420  -43.2483 H         1 UNK         0.0903 
     65 H65        15.3327  -28.5106  -45.1634 H         1 UNK         0.3096 
     66 H66        15.0038  -25.7181  -45.4107 H         1 UNK         0.1121 
     67 H67        16.6638  -25.7897  -47.0849 H         1 UNK         0.0849 
     68 H68        17.4996  -27.1328  -46.4232 H         1 UNK         0.0849 
     69 H69        15.3038  -30.1267  -47.1455 H         1 UNK         0.0865 
     70 H70        16.3725  -29.9481  -48.5026 H         1 UNK         0.0865 
     71 H71        16.2017  -30.3245  -44.9034 H         1 UNK         0.1346 
     72 H72        20.3869  -29.7050  -44.2113 H         1 UNK         0.1412 
     73 H73        18.7484  -29.0823  -48.1204 H         1 UNK         0.1426 
     74 H74        21.8681  -29.5968  -46.2804 H         1 UNK         0.0716 
     75 H75        21.1504  -29.2322  -47.8214 H         1 UNK         0.0716 
     76 H76        22.2919  -28.1759  -44.4900 H         1 UNK         0.0695 
     77 H77        23.3352  -26.9632  -45.1822 H         1 UNK         0.0695 
     78 H78        21.6290  -25.1900  -44.4767 H         1 UNK         0.0983 
     79 H79        20.0590  -27.4440  -43.6970 H         1 UNK         0.3095 
     80 H80        18.5378  -27.2870  -41.7788 H         1 UNK         0.0454 
     81 H81        17.2667  -24.5091  -41.5658 H         1 UNK         0.0851 
     82 H82        16.6695  -25.9799  -40.8013 H         1 UNK         0.0851 
     83 H83        18.2216  -25.3082  -40.3271 H         1 UNK         0.0851 
     84 H84        17.0811  -27.6390  -43.4161 H         1 UNK         0.2976 
     85 H85        21.8109  -27.3530  -41.7034 H         1 UNK         0.3116 
     86 H86        22.7791  -27.2680  -39.7442 H         1 UNK         0.0646 
     87 H87        23.8450  -25.2530  -38.8241 H         1 UNK         0.0847 
     88 H88        22.3731  -24.8107  -39.6748 H         1 UNK         0.0847 
     89 H89        23.9467  -24.5188  -40.4141 H         1 UNK         0.0847 
     90 H90        24.9853  -26.3716  -42.3640 H         1 UNK         0.3040 
     91 H91        27.3428  -27.6036  -41.1886 H         1 UNK         0.1015 
     92 H92        27.5015  -25.8026  -42.9033 H         1 UNK         0.0786 
     93 H93        26.6984  -26.8303  -44.0905 H         1 UNK         0.0786 
     94 H94        28.2892  -27.2630  -43.4775 H         1 UNK         0.0786 
     95 H95        24.5719  -28.8320  -42.8427 H         1 UNK         0.3172 
     96 H96        25.7604  -31.2820  -43.8919 H         1 UNK         0.0595 
     97 H97        22.8545  -30.3437  -43.6765 H         1 UNK         0.0839 
     98 H98        23.4033  -31.7626  -44.5566 H         1 UNK         0.0839 
     99 H99        23.9058  -30.1657  -45.0844 H         1 UNK         0.0839 
    100 H100       26.6359  -31.4902  -41.5413 H         1 UNK         0.2998 
    101 H101       26.8430  -32.6554  -39.6557 H         1 UNK         0.0822 
    102 H102       26.5964  -34.6208  -41.1248 H         1 UNK         0.0787 
    103 H103       25.8672  -34.9618  -39.5692 H         1 UNK         0.0787 
    104 H104       24.8478  -34.5961  -40.9612 H         1 UNK         0.0787 
    105 H105       23.7709  -34.0857  -39.2883 H         1 UNK         0.3055 
    106 H106       23.1053  -32.3403  -37.0211 H         1 UNK         0.1106 
    107 H107       21.3524  -34.0585  -36.6068 H         1 UNK         0.0828 
    108 H108       21.7375  -34.8560  -38.1249 H         1 UNK         0.0828 
    109 H109       22.9200  -34.8181  -36.8160 H         1 UNK         0.0828 
    110 H110       22.3420  -32.3109  -40.3837 H         1 UNK         0.2931 
    111 H111       19.5893  -31.4154  -40.0618 H         1 UNK         0.0412 
    112 H112       20.6719  -28.0742  -39.3559 H         1 UNK         0.3472 
    113 H113       20.3681  -29.6167  -38.5862 H         1 UNK         0.3472 
    114 H114       20.7806  -32.8465  -42.0556 H         1 UNK         0.0970 
    115 H115       20.8813  -31.2953  -42.7870 H         1 UNK         0.0970 
    116 H116       16.9986  -30.3017  -42.6814 H         1 UNK         0.0612 
    117 H117       18.5598  -29.6507  -42.3098 H         1 UNK         0.0612 
@<TRIPOS>BOND
     1    1    2 1    
     2    1   62 1    
     3    1   63 1    
     4    1   64 1    
     5    2    3 2    
     6    2    4 am   BACKBONE|DICT|INTERRES
     7    4    5 1    
     8    4   65 1    
     9    5    6 1    
    10    5   25 1    
    11    5   66 1    
    12    6    7 1    
    13    6   67 1    
    14    6   68 1    
    15    7    8 1    
    16    8    9 1    
    17    8   69 1    
    18    8   70 1    
    19    9   10 ar   
    20    9   14 ar   
    21   10   11 ar   
    22   10   71 1    
    23   11   12 ar   
    24   11   61 1    
    25   12   13 ar   
    26   12   72 1    
    27   13   14 ar   
    28   13   15 1    
    29   14   73 1    
    30   15   16 1    
    31   15   74 1    
    32   15   75 1    
    33   16   17 1    
    34   17   18 1    
    35   17   76 1    
    36   17   77 1    
    37   18   19 1    
    38   18   27 1    
    39   18   78 1    
    40   19   20 am   BACKBONE|DICT|INTERRES
    41   19   79 1    
    42   20   21 2    
    43   20   22 1    
    44   22   23 1    
    45   22   24 1    
    46   22   80 1    
    47   23   81 1    
    48   23   82 1    
    49   23   83 1    
    50   24   25 am   BACKBONE|DICT|INTERRES
    51   24   84 1    
    52   25   26 2    
    53   27   28 2    
    54   27   29 am   BACKBONE|DICT|INTERRES
    55   29   30 1    
    56   29   85 1    
    57   30   31 1    
    58   30   32 1    
    59   30   86 1    
    60   31   87 1    
    61   31   88 1    
    62   31   89 1    
    63   32   33 2    
    64   32   34 am   BACKBONE|DICT|INTERRES
    65   34   35 1    
    66   34   90 1    
    67   35   36 1    
    68   35   37 1    
    69   35   91 1    
    70   36   92 1    
    71   36   93 1    
    72   36   94 1    
    73   37   38 2    
    74   37   39 am   BACKBONE|DICT|INTERRES
    75   39   40 1    
    76   39   95 1    
    77   40   41 1    
    78   40   42 1    
    79   40   96 1    
    80   41   97 1    
    81   41   98 1    
    82   41   99 1    
    83   42   43 2    
    84   42   44 am   BACKBONE|DICT|INTERRES
    85   44   45 1    
    86   44  100 1    
    87   45   46 1    
    88   45   47 1    
    89   45  101 1    
    90   46  102 1    
    91   46  103 1    
    92   46  104 1    
    93   47   48 2    
    94   47   49 am   BACKBONE|DICT|INTERRES
    95   49   50 1    
    96   49  105 1    
    97   50   51 1    
    98   50   52 1    
    99   50  106 1    
   100   51  107 1    
   101   51  108 1    
   102   51  109 1    
   103   52   53 2    
   104   52   54 am   BACKBONE|DICT|INTERRES
   105   54   55 1    
   106   54  110 1    
   107   55   56 1    
   108   55   59 1    
   109   55  111 1    
   110   56   57 am   BACKBONE|DICT|INTERRES
   111   56   58 2    
   112   57  112 1    
   113   57  113 1    
   114   59   60 1    
   115   59  114 1    
   116   59  115 1    
   117   60   61 1    
   118   61  116 1    
   119   61  117 1    
@<TRIPOS>SUBSTRUCTURE
     1 UNK         1 GROUP             0       ****    0 ROOT    
