@<TRIPOS>MOLECULE
3R8
117   119    1
SMALL
USER_CHARGES


@<TRIPOS>ATOM
      1 CA         19.2459  -30.8147  -48.7485 C.3       0 UNK        -0.2013 
      2 C          18.6086  -29.6554  -47.9975 C.2       0 UNK         0.4866 
      3 O          18.4076  -28.5889  -48.5790 O.2       0 UNK        -0.5176 
      4 N          18.2989  -29.8622  -46.7112 N.am      1 UNK        -0.4884 
      5 CA         17.7275  -28.8819  -45.7772 C.3       1 UNK         0.0853 
      6 C6         16.2741  -28.4399  -46.1205 C.3       10 UNK        -0.0849 
      7 S7         15.0983  -29.8422  -46.0477 S.3       10 UNK        -0.2776 
      8 C8         14.2612  -29.6019  -44.4360 C.3       10 UNK         0.0316 
      9 C9         15.2529  -29.4010  -43.2976 C.ar      10 UNK        -0.0863 
     10 C10        16.1616  -30.4099  -42.9712 C.ar      10 UNK        -0.1009 
     11 C11        17.2088  -30.1606  -42.0772 C.ar      10 UNK        -0.0712 
     12 C12        17.2715  -28.9282  -41.4193 C.ar      10 UNK        -0.0894 
     13 C13        16.3223  -27.9361  -41.6852 C.ar      10 UNK        -0.0745 
     14 C14        15.3201  -28.1758  -42.6295 C.ar      10 UNK        -0.0972 
     15 C15        16.3958  -26.5838  -40.9956 C.3       10 UNK         0.0209 
     16 S16        17.1350  -25.3422  -42.1022 S.3       10 UNK        -0.2568 
     17 C17        18.6763  -24.9209  -41.2281 C.3       10 UNK        -0.0983 
     18 CA         19.8382  -25.9126  -41.4854 C.3       3 UNK         0.0876 
     19 N          20.0903  -26.1393  -42.9170 N.am      3 UNK        -0.4424 
     20 C          21.0300  -26.9475  -43.4275 C.2       2 UNK         0.4918 
     21 O          21.8451  -27.5642  -42.7415 O.2       2 UNK        -0.4875 
     22 CA         21.0451  -27.1032  -44.9580 C.3       2 UNK         0.0481 
     23 CB         22.4037  -27.6086  -45.4771 C.3       2 UNK        -0.1831 
     24 N          19.9949  -28.0303  -45.3766 N.am      2 UNK        -0.4498 
     25 C          18.6954  -27.7144  -45.4893 C.2       1 UNK         0.5027 
     26 O          18.2672  -26.5663  -45.3538 O.2       1 UNK        -0.4969 
     27 C          21.0884  -25.4523  -40.7088 C.2       3 UNK         0.5005 
     28 O          21.3368  -25.9430  -39.6069 O.2       3 UNK        -0.5279 
     29 N          21.8736  -24.5510  -41.3174 N.am      4 UNK        -0.4463 
     30 CA         23.1200  -24.0088  -40.7660 C.3       4 UNK         0.0283 
     31 CB         23.5907  -22.8380  -41.6440 C.3       4 UNK        -0.1875 
     32 C          24.2463  -25.0487  -40.6138 C.2       4 UNK         0.4949 
     33 O          25.1514  -24.8356  -39.8073 O.2       4 UNK        -0.5039 
     34 N          24.1741  -26.1480  -41.3763 N.am      5 UNK        -0.4663 
     35 CA         25.1137  -27.2687  -41.3147 C.3       5 UNK         0.0242 
     36 CB         25.2753  -27.8441  -42.7286 C.3       5 UNK        -0.1982 
     37 C          24.6785  -28.3528  -40.3083 C.2       5 UNK         0.5017 
     38 O          25.4447  -29.2905  -40.0784 O.2       5 UNK        -0.5012 
     39 N          23.4835  -28.2007  -39.7124 N.am      6 UNK        -0.4439 
     40 CA         22.8877  -29.0350  -38.6653 C.3       6 UNK         0.0297 
     41 CB         23.6134  -28.8003  -37.3209 C.3       6 UNK        -0.2006 
     42 C          22.7915  -30.5164  -39.0757 C.2       6 UNK         0.4892 
     43 O          21.9347  -30.8583  -39.8915 O.2       6 UNK        -0.5089 
     44 N          23.6617  -31.3620  -38.5046 N.am      7 UNK        -0.4243 
     45 CA         23.7541  -32.7971  -38.7809 C.3       7 UNK         0.0196 
     46 CB         24.7071  -33.4496  -37.7670 C.3       7 UNK        -0.2007 
     47 C          24.1962  -33.1177  -40.2184 C.2       7 UNK         0.5020 
     48 O          23.7733  -34.1382  -40.7622 O.2       7 UNK        -0.5147 
     49 N          24.9947  -32.2352  -40.8354 N.am      8 UNK        -0.4734 
     50 CA         25.4067  -32.3245  -42.2397 C.3       8 UNK         0.0238 
     51 CB         26.8053  -31.6993  -42.3949 C.3       8 UNK        -0.1912 
     52 C          24.3455  -31.6826  -43.1550 C.2       8 UNK         0.5038 
     53 O          24.6610  -30.7877  -43.9386 O.2       8 UNK        -0.5046 
     54 N          23.0988  -32.1462  -43.0048 N.am      9 UNK        -0.4200 
     55 CA         21.8812  -31.6349  -43.6489 C.3       9 UNK         0.0839 
     56 C          21.8969  -31.6462  -45.2078 C.2       9 UNK         0.5513 
     57 N          22.6157  -32.5591  -45.8500 N.am      9 UNK        -0.7519 
     58 O          21.2543  -30.8089  -45.8378 O.2       9 UNK        -0.4960 
     59 C59        20.6438  -32.3745  -43.0712 C.3       10 UNK        -0.0876 
     60 S60        19.0629  -31.5883  -43.5134 S.3       10 UNK        -0.2414 
     61 C61        18.3192  -31.1872  -41.8989 C.3       10 UNK         0.0169 
     62 H62        20.2174  -30.5162  -49.1416 H         1 UNK         0.0903 
     63 H63        19.3964  -31.6823  -48.1058 H         1 UNK         0.0903 
     64 H64        18.6149  -31.1147  -49.5846 H         1 UNK         0.0903 
     65 H65        18.5252  -30.7565  -46.2965 H         1 UNK         0.3096 
     66 H66        17.6820  -29.3968  -44.8226 H         1 UNK         0.1121 
     67 H67        16.2324  -27.9964  -47.1160 H         1 UNK         0.0849 
     68 H68        15.9279  -27.6629  -45.4370 H         1 UNK         0.0849 
     69 H69        13.5827  -28.7509  -44.5147 H         1 UNK         0.0865 
     70 H70        13.6385  -30.4718  -44.2230 H         1 UNK         0.0865 
     71 H71        16.1210  -31.3530  -43.4996 H         1 UNK         0.1346 
     72 H72        18.0740  -28.7319  -40.7222 H         1 UNK         0.1412 
     73 H73        14.6197  -27.3881  -42.8726 H         1 UNK         0.1426 
     74 H74        16.9573  -26.6590  -40.0633 H         1 UNK         0.0716 
     75 H75        15.3917  -26.2583  -40.7196 H         1 UNK         0.0716 
     76 H76        18.9591  -23.9165  -41.5495 H         1 UNK         0.0695 
     77 H77        18.4634  -24.8418  -40.1600 H         1 UNK         0.0695 
     78 H78        19.5544  -26.8802  -41.0685 H         1 UNK         0.0983 
     79 H79        19.4123  -25.7379  -43.5537 H         1 UNK         0.3095 
     80 H80        20.8631  -26.1236  -45.4047 H         1 UNK         0.0454 
     81 H81        23.2045  -26.9196  -45.2064 H         1 UNK         0.0851 
     82 H82        22.6632  -28.5836  -45.0626 H         1 UNK         0.0851 
     83 H83        22.4051  -27.6984  -46.5633 H         1 UNK         0.0851 
     84 H84        20.2746  -28.9973  -45.5123 H         1 UNK         0.2976 
     85 H85        21.5940  -24.2141  -42.2278 H         1 UNK         0.3116 
     86 H86        22.9008  -23.6213  -39.7688 H         1 UNK         0.0646 
     87 H87        24.5009  -22.3904  -41.2422 H         1 UNK         0.0847 
     88 H88        22.8401  -22.0489  -41.6924 H         1 UNK         0.0847 
     89 H89        23.8096  -23.1591  -42.6632 H         1 UNK         0.0847 
     90 H90        23.3716  -26.2769  -41.9817 H         1 UNK         0.3040 
     91 H91        26.0911  -26.9061  -40.9883 H         1 UNK         0.1015 
     92 H92        25.5699  -27.0746  -43.4421 H         1 UNK         0.0786 
     93 H93        24.3509  -28.2969  -43.0863 H         1 UNK         0.0786 
     94 H94        26.0456  -28.6137  -42.7528 H         1 UNK         0.0786 
     95 H95        22.9205  -27.4058  -39.9916 H         1 UNK         0.3172 
     96 H96        21.8607  -28.6861  -38.5464 H         1 UNK         0.0595 
     97 H97        23.5291  -27.7577  -37.0137 H         1 UNK         0.0839 
     98 H98        24.6765  -29.0380  -37.3728 H         1 UNK         0.0839 
     99 H99        23.1739  -29.4017  -36.5238 H         1 UNK         0.0839 
    100 H100       24.3421  -30.9783  -37.8649 H         1 UNK         0.2998 
    101 H101       22.7593  -33.2262  -38.6424 H         1 UNK         0.0822 
    102 H102       24.3603  -33.3030  -36.7438 H         1 UNK         0.0787 
    103 H103       24.7755  -34.5258  -37.9329 H         1 UNK         0.0787 
    104 H104       25.7168  -33.0435  -37.8422 H         1 UNK         0.0787 
    105 H105       25.2288  -31.3719  -40.3546 H         1 UNK         0.3055 
    106 H106       25.4851  -33.3738  -42.5339 H         1 UNK         0.1106 
    107 H107       26.8234  -30.6608  -42.0675 H         1 UNK         0.0828 
    108 H108       27.5459  -32.2435  -41.8089 H         1 UNK         0.0828 
    109 H109       27.1355  -31.7236  -43.4343 H         1 UNK         0.0828 
    110 H110       22.9665  -32.8897  -42.3310 H         1 UNK         0.2931 
    111 H111       21.8087  -30.5871  -43.3489 H         1 UNK         0.0412 
    112 H112       22.6287  -32.5546  -46.8574 H         1 UNK         0.3472 
    113 H113       23.1538  -33.2411  -45.3403 H         1 UNK         0.3472 
    114 H114       20.7139  -32.4209  -41.9829 H         1 UNK         0.0970 
    115 H115       20.6227  -33.4109  -43.4131 H         1 UNK         0.0970 
    116 H116       19.0930  -30.8045  -41.2309 H         1 UNK         0.0612 
    117 H117       17.9185  -32.0932  -41.4427 H         1 UNK         0.0612 
@<TRIPOS>BOND
     1    1    2 1    
     2    1   62 1    
     3    1   63 1    
     4    1   64 1    
     5    2    3 2    
     6    2    4 am   BACKBONE|DICT|INTERRES
     7    4    5 1    
     8    4   65 1    
     9    5    6 1    
    10    5   25 1    
    11    5   66 1    
    12    6    7 1    
    13    6   67 1    
    14    6   68 1    
    15    7    8 1    
    16    8    9 1    
    17    8   69 1    
    18    8   70 1    
    19    9   10 ar   
    20    9   14 ar   
    21   10   11 ar   
    22   10   71 1    
    23   11   12 ar   
    24   11   61 1    
    25   12   13 ar   
    26   12   72 1    
    27   13   14 ar   
    28   13   15 1    
    29   14   73 1    
    30   15   16 1    
    31   15   74 1    
    32   15   75 1    
    33   16   17 1    
    34   17   18 1    
    35   17   76 1    
    36   17   77 1    
    37   18   19 1    
    38   18   27 1    
    39   18   78 1    
    40   19   20 am   BACKBONE|DICT|INTERRES
    41   19   79 1    
    42   20   21 2    
    43   20   22 1    
    44   22   23 1    
    45   22   24 1    
    46   22   80 1    
    47   23   81 1    
    48   23   82 1    
    49   23   83 1    
    50   24   25 am   BACKBONE|DICT|INTERRES
    51   24   84 1    
    52   25   26 2    
    53   27   28 2    
    54   27   29 am   BACKBONE|DICT|INTERRES
    55   29   30 1    
    56   29   85 1    
    57   30   31 1    
    58   30   32 1    
    59   30   86 1    
    60   31   87 1    
    61   31   88 1    
    62   31   89 1    
    63   32   33 2    
    64   32   34 am   BACKBONE|DICT|INTERRES
    65   34   35 1    
    66   34   90 1    
    67   35   36 1    
    68   35   37 1    
    69   35   91 1    
    70   36   92 1    
    71   36   93 1    
    72   36   94 1    
    73   37   38 2    
    74   37   39 am   BACKBONE|DICT|INTERRES
    75   39   40 1    
    76   39   95 1    
    77   40   41 1    
    78   40   42 1    
    79   40   96 1    
    80   41   97 1    
    81   41   98 1    
    82   41   99 1    
    83   42   43 2    
    84   42   44 am   BACKBONE|DICT|INTERRES
    85   44   45 1    
    86   44  100 1    
    87   45   46 1    
    88   45   47 1    
    89   45  101 1    
    90   46  102 1    
    91   46  103 1    
    92   46  104 1    
    93   47   48 2    
    94   47   49 am   BACKBONE|DICT|INTERRES
    95   49   50 1    
    96   49  105 1    
    97   50   51 1    
    98   50   52 1    
    99   50  106 1    
   100   51  107 1    
   101   51  108 1    
   102   51  109 1    
   103   52   53 2    
   104   52   54 am   BACKBONE|DICT|INTERRES
   105   54   55 1    
   106   54  110 1    
   107   55   56 1    
   108   55   59 1    
   109   55  111 1    
   110   56   57 am   BACKBONE|DICT|INTERRES
   111   56   58 2    
   112   57  112 1    
   113   57  113 1    
   114   59   60 1    
   115   59  114 1    
   116   59  115 1    
   117   60   61 1    
   118   61  116 1    
   119   61  117 1    
@<TRIPOS>SUBSTRUCTURE
     1 UNK         1 GROUP             0       ****    0 ROOT    
