@<TRIPOS>MOLECULE
3R8
117   119    1
SMALL
USER_CHARGES


@<TRIPOS>ATOM
      1 CA         21.7066  -23.1804  -40.5640 C.3       0 UNK        -0.2013 
      2 C          20.2861  -23.5892  -40.9258 C.2       0 UNK         0.4866 
      3 O          19.3808  -22.7559  -40.8671 O.2       0 UNK        -0.5176 
      4 N          20.0829  -24.8614  -41.2919 N.am      1 UNK        -0.4884 
      5 CA         18.8015  -25.4134  -41.7495 C.3       1 UNK         0.0853 
      6 C6         18.6813  -26.9225  -41.3977 C.3       10 UNK        -0.0849 
      7 S7         19.7597  -28.0178  -42.3839 S.3       10 UNK        -0.2776 
      8 C8         18.5858  -29.3062  -42.9002 C.3       10 UNK         0.0316 
      9 C9         19.2484  -30.2454  -43.8909 C.ar      10 UNK        -0.0863 
     10 C10        19.9358  -31.3735  -43.4416 C.ar      10 UNK        -0.1009 
     11 C11        20.5774  -32.2219  -44.3461 C.ar      10 UNK        -0.0712 
     12 C12        20.5385  -31.9242  -45.7121 C.ar      10 UNK        -0.0894 
     13 C13        19.8568  -30.7946  -46.1801 C.ar      10 UNK        -0.0745 
     14 C14        19.1933  -29.9733  -45.2592 C.ar      10 UNK        -0.0972 
     15 C15        19.8608  -30.5018  -47.6826 C.3       10 UNK         0.0209 
     16 S16        19.5182  -28.7685  -48.1572 S.3       10 UNK        -0.2568 
     17 C17        20.8974  -27.8759  -47.3581 C.3       10 UNK        -0.0983 
     18 CA         20.5246  -26.4167  -46.9791 C.3       3 UNK         0.0876 
     19 N          19.3521  -26.3494  -46.0933 N.am      3 UNK        -0.4424 
     20 C          18.2536  -25.6214  -46.3357 C.2       2 UNK         0.4918 
     21 O          18.0884  -24.9442  -47.3507 O.2       2 UNK        -0.4875 
     22 CA         17.1481  -25.6239  -45.2591 C.3       2 UNK         0.0481 
     23 CB         16.0954  -26.6943  -45.5896 C.3       2 UNK        -0.1831 
     24 N          17.6024  -25.8081  -43.8730 N.am      2 UNK        -0.4498 
     25 C          18.5269  -25.0712  -43.2374 C.2       1 UNK         0.5027 
     26 O          19.1565  -24.1692  -43.7953 O.2       1 UNK        -0.4969 
     27 C          21.7319  -25.6679  -46.3678 C.2       3 UNK         0.5005 
     28 O          22.8537  -25.8536  -46.8418 O.2       3 UNK        -0.5279 
     29 N          21.5017  -24.8577  -45.3190 N.am      4 UNK        -0.4463 
     30 CA         22.4903  -24.1229  -44.5143 C.3       4 UNK         0.0283 
     31 CB         23.2385  -23.0734  -45.3631 C.3       4 UNK        -0.1875 
     32 C          23.4483  -25.0291  -43.7121 C.2       4 UNK         0.4949 
     33 O          24.4938  -24.5603  -43.2599 O.2       4 UNK        -0.5039 
     34 N          23.0713  -26.3004  -43.5290 N.am      5 UNK        -0.4663 
     35 CA         23.7879  -27.2849  -42.7213 C.3       5 UNK         0.0242 
     36 CB         23.4878  -28.6877  -43.2829 C.3       5 UNK        -0.1982 
     37 C          23.3723  -27.1835  -41.2452 C.2       5 UNK         0.5017 
     38 O          22.3772  -26.5330  -40.9218 O.2       5 UNK        -0.5012 
     39 N          24.1104  -27.8803  -40.3741 N.am      6 UNK        -0.4439 
     40 CA         23.8429  -27.9776  -38.9333 C.3       6 UNK         0.0297 
     41 CB         25.1686  -28.2814  -38.2104 C.3       6 UNK        -0.2006 
     42 C          22.7545  -29.0137  -38.5691 C.2       6 UNK         0.4892 
     43 O          22.6652  -29.3977  -37.4022 O.2       6 UNK        -0.5089 
     44 N          21.9771  -29.4732  -39.5640 N.am      7 UNK        -0.4243 
     45 CA         20.9636  -30.5361  -39.4961 C.3       7 UNK         0.0196 
     46 CB         19.7686  -30.1107  -38.6179 C.3       7 UNK        -0.2007 
     47 C          21.5506  -31.9072  -39.0972 C.2       7 UNK         0.5020 
     48 O          20.8784  -32.7043  -38.4411 O.2       7 UNK        -0.5147 
     49 N          22.8048  -32.1560  -39.5035 N.am      8 UNK        -0.4734 
     50 CA         23.6312  -33.2963  -39.0897 C.3       8 UNK         0.0238 
     51 CB         25.0558  -33.1032  -39.6352 C.3       8 UNK        -0.1912 
     52 C          23.0887  -34.6813  -39.4839 C.2       8 UNK         0.5038 
     53 O          23.4145  -35.6605  -38.8112 O.2       8 UNK        -0.5046 
     54 N          22.2800  -34.7425  -40.5491 N.am      9 UNK        -0.4200 
     55 CA         21.5783  -35.9571  -40.9897 C.3       9 UNK         0.0839 
     56 C          20.3123  -36.3131  -40.1528 C.2       9 UNK         0.5513 
     57 N          19.8658  -35.4792  -39.2192 N.am      9 UNK        -0.7519 
     58 O          19.7334  -37.3795  -40.3447 O.2       9 UNK        -0.4960 
     59 C59        21.3123  -35.9482  -42.5191 C.3       10 UNK        -0.0876 
     60 S60        20.1698  -34.6375  -43.0762 S.3       10 UNK        -0.2414 
     61 C61        21.3186  -33.4487  -43.8361 C.3       10 UNK         0.0169 
     62 H62        21.7901  -23.0237  -39.4890 H         1 UNK         0.0903 
     63 H63        22.4369  -23.9333  -40.8570 H         1 UNK         0.0903 
     64 H64        21.9690  -22.2498  -41.0668 H         1 UNK         0.0903 
     65 H65        20.8663  -25.5139  -41.2839 H         1 UNK         0.3096 
     66 H66        18.0117  -24.9044  -41.1923 H         1 UNK         0.1121 
     67 H67        17.6436  -27.2480  -41.4836 H         1 UNK         0.0849 
     68 H68        18.9334  -27.0705  -40.3463 H         1 UNK         0.0849 
     69 H69        17.7023  -28.8526  -43.3511 H         1 UNK         0.0865 
     70 H70        18.2402  -29.8576  -42.0241 H         1 UNK         0.0865 
     71 H71        19.9656  -31.6040  -42.3878 H         1 UNK         0.1346 
     72 H72        21.0432  -32.5732  -46.4149 H         1 UNK         0.1412 
     73 H73        18.6473  -29.1062  -45.5992 H         1 UNK         0.1426 
     74 H74        19.1167  -31.1413  -48.1589 H         1 UNK         0.0716 
     75 H75        20.8262  -30.7815  -48.1074 H         1 UNK         0.0716 
     76 H76        21.7364  -27.8913  -48.0562 H         1 UNK         0.0695 
     77 H77        21.2311  -28.4208  -46.4738 H         1 UNK         0.0695 
     78 H78        20.3104  -25.8927  -47.9130 H         1 UNK         0.0983 
     79 H79        19.4064  -26.8728  -45.2319 H         1 UNK         0.3095 
     80 H80        16.6605  -24.6481  -45.3025 H         1 UNK         0.0454 
     81 H81        16.5069  -27.7019  -45.5238 H         1 UNK         0.0851 
     82 H82        15.7136  -26.5665  -46.6037 H         1 UNK         0.0851 
     83 H83        15.2399  -26.6344  -44.9167 H         1 UNK         0.0851 
     84 H84        17.1304  -26.5287  -43.3479 H         1 UNK         0.2976 
     85 H85        20.5420  -24.7371  -45.0035 H         1 UNK         0.3116 
     86 H86        21.9111  -23.5785  -43.7673 H         1 UNK         0.0646 
     87 H87        22.5438  -22.4372  -45.9111 H         1 UNK         0.0847 
     88 H88        23.9109  -23.5380  -46.0846 H         1 UNK         0.0847 
     89 H89        23.8438  -22.4206  -44.7332 H         1 UNK         0.0847 
     90 H90        22.1712  -26.5841  -43.8843 H         1 UNK         0.3040 
     91 H91        24.8618  -27.0972  -42.7913 H         1 UNK         0.1015 
     92 H92        24.0466  -29.4588  -42.7517 H         1 UNK         0.0786 
     93 H93        23.7696  -28.7585  -44.3339 H         1 UNK         0.0786 
     94 H94        22.4304  -28.9430  -43.2087 H         1 UNK         0.0786 
     95 H95        24.9037  -28.4027  -40.7186 H         1 UNK         0.3172 
     96 H96        23.4854  -27.0083  -38.5790 H         1 UNK         0.0595 
     97 H97        25.5606  -29.2626  -38.4809 H         1 UNK         0.0839 
     98 H98        25.0390  -28.2705  -37.1273 H         1 UNK         0.0839 
     99 H99        25.9299  -27.5374  -38.4458 H         1 UNK         0.0839 
    100 H100       22.0995  -29.0470  -40.4718 H         1 UNK         0.2998 
    101 H101       20.5890  -30.6502  -40.5112 H         1 UNK         0.0822 
    102 H102       19.3679  -29.1483  -38.9354 H         1 UNK         0.0787 
    103 H103       18.9569  -30.8360  -38.6844 H         1 UNK         0.0787 
    104 H104       20.0462  -30.0296  -37.5667 H         1 UNK         0.0787 
    105 H105       23.2686  -31.4432  -40.0470 H         1 UNK         0.3055 
    106 H106       23.6791  -33.2794  -37.9985 H         1 UNK         0.1106 
    107 H107       25.7084  -33.9198  -39.3225 H         1 UNK         0.0828 
    108 H108       25.5016  -32.1790  -39.2668 H         1 UNK         0.0828 
    109 H109       25.0708  -33.0746  -40.7255 H         1 UNK         0.0828 
    110 H110       22.0361  -33.8862  -41.0216 H         1 UNK         0.2931 
    111 H111       22.2613  -36.7920  -40.8198 H         1 UNK         0.0412 
    112 H112       20.3269  -34.5945  -39.0384 H         1 UNK         0.3472 
    113 H113       19.0495  -35.7330  -38.6859 H         1 UNK         0.3472 
    114 H114       22.2581  -35.8589  -43.0555 H         1 UNK         0.0970 
    115 H115       20.8982  -36.9089  -42.8310 H         1 UNK         0.0970 
    116 H116       21.8578  -33.9404  -44.6473 H         1 UNK         0.0612 
    117 H117       22.0657  -33.1387  -43.1045 H         1 UNK         0.0612 
@<TRIPOS>BOND
     1    1    2 1    
     2    1   62 1    
     3    1   63 1    
     4    1   64 1    
     5    2    3 2    
     6    2    4 am   BACKBONE|DICT|INTERRES
     7    4    5 1    
     8    4   65 1    
     9    5    6 1    
    10    5   25 1    
    11    5   66 1    
    12    6    7 1    
    13    6   67 1    
    14    6   68 1    
    15    7    8 1    
    16    8    9 1    
    17    8   69 1    
    18    8   70 1    
    19    9   10 ar   
    20    9   14 ar   
    21   10   11 ar   
    22   10   71 1    
    23   11   12 ar   
    24   11   61 1    
    25   12   13 ar   
    26   12   72 1    
    27   13   14 ar   
    28   13   15 1    
    29   14   73 1    
    30   15   16 1    
    31   15   74 1    
    32   15   75 1    
    33   16   17 1    
    34   17   18 1    
    35   17   76 1    
    36   17   77 1    
    37   18   19 1    
    38   18   27 1    
    39   18   78 1    
    40   19   20 am   BACKBONE|DICT|INTERRES
    41   19   79 1    
    42   20   21 2    
    43   20   22 1    
    44   22   23 1    
    45   22   24 1    
    46   22   80 1    
    47   23   81 1    
    48   23   82 1    
    49   23   83 1    
    50   24   25 am   BACKBONE|DICT|INTERRES
    51   24   84 1    
    52   25   26 2    
    53   27   28 2    
    54   27   29 am   BACKBONE|DICT|INTERRES
    55   29   30 1    
    56   29   85 1    
    57   30   31 1    
    58   30   32 1    
    59   30   86 1    
    60   31   87 1    
    61   31   88 1    
    62   31   89 1    
    63   32   33 2    
    64   32   34 am   BACKBONE|DICT|INTERRES
    65   34   35 1    
    66   34   90 1    
    67   35   36 1    
    68   35   37 1    
    69   35   91 1    
    70   36   92 1    
    71   36   93 1    
    72   36   94 1    
    73   37   38 2    
    74   37   39 am   BACKBONE|DICT|INTERRES
    75   39   40 1    
    76   39   95 1    
    77   40   41 1    
    78   40   42 1    
    79   40   96 1    
    80   41   97 1    
    81   41   98 1    
    82   41   99 1    
    83   42   43 2    
    84   42   44 am   BACKBONE|DICT|INTERRES
    85   44   45 1    
    86   44  100 1    
    87   45   46 1    
    88   45   47 1    
    89   45  101 1    
    90   46  102 1    
    91   46  103 1    
    92   46  104 1    
    93   47   48 2    
    94   47   49 am   BACKBONE|DICT|INTERRES
    95   49   50 1    
    96   49  105 1    
    97   50   51 1    
    98   50   52 1    
    99   50  106 1    
   100   51  107 1    
   101   51  108 1    
   102   51  109 1    
   103   52   53 2    
   104   52   54 am   BACKBONE|DICT|INTERRES
   105   54   55 1    
   106   54  110 1    
   107   55   56 1    
   108   55   59 1    
   109   55  111 1    
   110   56   57 am   BACKBONE|DICT|INTERRES
   111   56   58 2    
   112   57  112 1    
   113   57  113 1    
   114   59   60 1    
   115   59  114 1    
   116   59  115 1    
   117   60   61 1    
   118   61  116 1    
   119   61  117 1    
@<TRIPOS>SUBSTRUCTURE
     1 UNK         1 GROUP             0       ****    0 ROOT    
