@<TRIPOS>MOLECULE
3R8
117   119    1
SMALL
USER_CHARGES


@<TRIPOS>ATOM
      1 CA         16.4100  -25.3234  -48.4174 C.3       0 UNK        -0.2013 
      2 C          17.1926  -25.9500  -47.2737 C.2       0 UNK         0.4866 
      3 O          18.3427  -26.3437  -47.4614 O.2       0 UNK        -0.5176 
      4 N          16.5891  -26.0236  -46.0803 N.am      1 UNK        -0.4884 
      5 CA         17.1456  -26.6553  -44.8721 C.3       1 UNK         0.0853 
      6 C6         16.0251  -27.1621  -43.9261 C.3       10 UNK        -0.0849 
      7 S7         15.1168  -28.5478  -44.7011 S.3       10 UNK        -0.2776 
      8 C8         15.3929  -29.9462  -43.5531 C.3       10 UNK         0.0316 
      9 C9         16.8446  -30.1339  -43.1163 C.ar      10 UNK        -0.0863 
     10 C10        17.1400  -30.2838  -41.7575 C.ar      10 UNK        -0.1009 
     11 C11        18.4590  -30.4388  -41.3232 C.ar      10 UNK        -0.0712 
     12 C12        19.4924  -30.4107  -42.2656 C.ar      10 UNK        -0.0894 
     13 C13        19.2169  -30.2798  -43.6288 C.ar      10 UNK        -0.0745 
     14 C14        17.8869  -30.1651  -44.0494 C.ar      10 UNK        -0.0972 
     15 C15        20.3583  -30.2814  -44.6390 C.3       10 UNK         0.0209 
     16 S16        20.3457  -28.7802  -45.6727 S.3       10 UNK        -0.2568 
     17 C17        22.0685  -28.1763  -45.5667 C.3       10 UNK        -0.0983 
     18 CA         22.2655  -26.9833  -44.5935 C.3       3 UNK         0.0876 
     19 N          21.2555  -25.9397  -44.7942 N.am      3 UNK        -0.4424 
     20 C          21.1844  -24.7540  -44.1722 C.2       2 UNK         0.4918 
     21 O          22.0621  -24.3181  -43.4265 O.2       2 UNK        -0.4875 
     22 CA         19.8834  -23.9466  -44.3682 C.3       2 UNK         0.0481 
     23 CB         20.1083  -22.8031  -45.3693 C.3       2 UNK        -0.1831 
     24 N          18.7417  -24.7593  -44.8122 N.am      2 UNK        -0.4498 
     25 C          18.2063  -25.7944  -44.1448 C.2       1 UNK         0.5027 
     26 O          18.5755  -26.1132  -43.0148 O.2       1 UNK        -0.4969 
     27 C          22.3938  -27.4638  -43.1307 C.2       3 UNK         0.5005 
     28 O          23.4713  -27.9342  -42.7674 O.2       3 UNK        -0.5279 
     29 N          21.3457  -27.2817  -42.3063 N.am      4 UNK        -0.4463 
     30 CA         21.2934  -27.5966  -40.8715 C.3       4 UNK         0.0283 
     31 CB         19.9548  -27.1072  -40.2985 C.3       4 UNK        -0.1875 
     32 C          22.4525  -27.0308  -40.0323 C.2       4 UNK         0.4949 
     33 O          22.8195  -27.6440  -39.0304 O.2       4 UNK        -0.5039 
     34 N          23.0482  -25.9144  -40.4766 N.am      5 UNK        -0.4663 
     35 CA         24.2672  -25.3270  -39.9108 C.3       5 UNK         0.0242 
     36 CB         24.5484  -23.9921  -40.6189 C.3       5 UNK        -0.1982 
     37 C          25.5048  -26.2468  -39.9849 C.2       5 UNK         0.5017 
     38 O          26.4237  -26.0721  -39.1842 O.2       5 UNK        -0.5012 
     39 N          25.5028  -27.2070  -40.9199 N.am      6 UNK        -0.4439 
     40 CA         26.5242  -28.2407  -41.0934 C.3       6 UNK         0.0297 
     41 CB         27.0718  -28.1485  -42.5295 C.3       6 UNK        -0.2006 
     42 C          25.9662  -29.6475  -40.7939 C.2       6 UNK         0.4892 
     43 O          26.6109  -30.6318  -41.1600 O.2       6 UNK        -0.5089 
     44 N          24.7956  -29.7258  -40.1387 N.am      7 UNK        -0.4243 
     45 CA         24.0215  -30.9365  -39.8428 C.3       7 UNK         0.0196 
     46 CB         24.7594  -31.8337  -38.8221 C.3       7 UNK        -0.2007 
     47 C          23.5789  -31.6551  -41.1340 C.2       7 UNK         0.5020 
     48 O          23.0051  -31.0030  -42.0046 O.2       7 UNK        -0.5147 
     49 N          23.8205  -32.9728  -41.2293 N.am      8 UNK        -0.4734 
     50 CA         23.4438  -33.8602  -42.3433 C.3       8 UNK         0.0238 
     51 CB         24.2247  -33.4935  -43.6244 C.3       8 UNK        -0.1912 
     52 C          21.9179  -33.9255  -42.5688 C.2       8 UNK         0.5038 
     53 O          21.4577  -33.9438  -43.7119 O.2       8 UNK        -0.5046 
     54 N          21.1681  -33.9472  -41.4600 N.am      9 UNK        -0.4200 
     55 CA         19.6977  -33.9007  -41.4197 C.3       9 UNK         0.0839 
     56 C          18.9831  -35.2172  -41.8420 C.2       9 UNK         0.5513 
     57 N          19.6846  -36.3295  -42.0251 N.am      9 UNK        -0.7519 
     58 O          17.7661  -35.2289  -42.0067 O.2       9 UNK        -0.4960 
     59 C59        19.1790  -33.4053  -40.0412 C.3       10 UNK        -0.0876 
     60 S60        19.9993  -31.8782  -39.4586 S.3       10 UNK        -0.2414 
     61 C61        18.7475  -30.6070  -39.8330 C.3       10 UNK         0.0169 
     62 H62        16.2982  -26.0402  -49.2304 H         1 UNK         0.0903 
     63 H63        15.4147  -25.0066  -48.1060 H         1 UNK         0.0903 
     64 H64        16.9391  -24.4519  -48.8020 H         1 UNK         0.0903 
     65 H65        15.6467  -25.6710  -45.9848 H         1 UNK         0.3096 
     66 H66        17.7035  -27.5346  -45.1985 H         1 UNK         0.1121 
     67 H67        16.4262  -27.4917  -42.9664 H         1 UNK         0.0849 
     68 H68        15.3235  -26.3595  -43.6936 H         1 UNK         0.0849 
     69 H69        14.7497  -29.7982  -42.6842 H         1 UNK         0.0865 
     70 H70        15.0499  -30.8648  -44.0308 H         1 UNK         0.0865 
     71 H71        16.3384  -30.2783  -41.0315 H         1 UNK         0.1346 
     72 H72        20.5161  -30.5154  -41.9376 H         1 UNK         0.1412 
     73 H73        17.6658  -30.0693  -45.1036 H         1 UNK         0.1426 
     74 H74        20.2672  -31.1587  -45.2807 H         1 UNK         0.0716 
     75 H75        21.3175  -30.3755  -44.1276 H         1 UNK         0.0716 
     76 H76        22.7469  -28.9998  -45.3345 H         1 UNK         0.0695 
     77 H77        22.3478  -27.8556  -46.5714 H         1 UNK         0.0695 
     78 H78        23.2272  -26.5242  -44.8327 H         1 UNK         0.0983 
     79 H79        20.4857  -26.2056  -45.3927 H         1 UNK         0.3095 
     80 H80        19.6225  -23.5112  -43.4016 H         1 UNK         0.0454 
     81 H81        20.9343  -22.1643  -45.0532 H         1 UNK         0.0851 
     82 H82        20.3497  -23.1788  -46.3645 H         1 UNK         0.0851 
     83 H83        19.2259  -22.1687  -45.4535 H         1 UNK         0.0851 
     84 H84        18.3996  -24.5893  -45.7475 H         1 UNK         0.2976 
     85 H85        20.4954  -26.8895  -42.6973 H         1 UNK         0.3116 
     86 H86        21.3371  -28.6824  -40.7775 H         1 UNK         0.0646 
     87 H87        19.8759  -27.3304  -39.2337 H         1 UNK         0.0847 
     88 H88        19.1107  -27.5866  -40.7942 H         1 UNK         0.0847 
     89 H89        19.8383  -26.0289  -40.4147 H         1 UNK         0.0847 
     90 H90        22.6843  -25.4825  -41.3166 H         1 UNK         0.3040 
     91 H91        24.0788  -25.1260  -38.8540 H         1 UNK         0.1015 
     92 H92        23.7189  -23.2952  -40.4968 H         1 UNK         0.0786 
     93 H93        24.7141  -24.1309  -41.6883 H         1 UNK         0.0786 
     94 H94        25.4377  -23.5107  -40.2095 H         1 UNK         0.0786 
     95 H95        24.6924  -27.3003  -41.5329 H         1 UNK         0.3172 
     96 H96        27.3530  -28.0780  -40.4019 H         1 UNK         0.0595 
     97 H97        27.8823  -28.8606  -42.6899 H         1 UNK         0.0839 
     98 H98        27.4699  -27.1557  -42.7392 H         1 UNK         0.0839 
     99 H99        26.2971  -28.3625  -43.2672 H         1 UNK         0.0839 
    100 H100       24.3370  -28.8581  -39.8869 H         1 UNK         0.2998 
    101 H101       23.1011  -30.5920  -39.3682 H         1 UNK         0.0822 
    102 H102       25.0254  -31.2677  -37.9292 H         1 UNK         0.0787 
    103 H103       24.1286  -32.6606  -38.4935 H         1 UNK         0.0787 
    104 H104       25.6796  -32.2544  -39.2290 H         1 UNK         0.0787 
    105 H105       24.3057  -33.4142  -40.4601 H         1 UNK         0.3055 
    106 H106       23.7469  -34.8679  -42.0542 H         1 UNK         0.1106 
    107 H107       23.9241  -32.5221  -44.0186 H         1 UNK         0.0828 
    108 H108       25.2984  -33.4616  -43.4395 H         1 UNK         0.0828 
    109 H109       24.0533  -34.2290  -44.4112 H         1 UNK         0.0828 
    110 H110       21.6323  -33.9166  -40.5650 H         1 UNK         0.2931 
    111 H111       19.3901  -33.1634  -42.1622 H         1 UNK         0.0412 
    112 H112       20.6835  -36.3305  -41.8964 H         1 UNK         0.3472 
    113 H113       19.2091  -37.1747  -42.3006 H         1 UNK         0.3472 
    114 H114       18.1006  -33.2390  -40.0786 H         1 UNK         0.0970 
    115 H115       19.3363  -34.1738  -39.2822 H         1 UNK         0.0970 
    116 H116       19.0952  -29.6567  -39.4310 H         1 UNK         0.0612 
    117 H117       17.8344  -30.8531  -39.2888 H         1 UNK         0.0612 
@<TRIPOS>BOND
     1    1    2 1    
     2    1   62 1    
     3    1   63 1    
     4    1   64 1    
     5    2    3 2    
     6    2    4 am   BACKBONE|DICT|INTERRES
     7    4    5 1    
     8    4   65 1    
     9    5    6 1    
    10    5   25 1    
    11    5   66 1    
    12    6    7 1    
    13    6   67 1    
    14    6   68 1    
    15    7    8 1    
    16    8    9 1    
    17    8   69 1    
    18    8   70 1    
    19    9   10 ar   
    20    9   14 ar   
    21   10   11 ar   
    22   10   71 1    
    23   11   12 ar   
    24   11   61 1    
    25   12   13 ar   
    26   12   72 1    
    27   13   14 ar   
    28   13   15 1    
    29   14   73 1    
    30   15   16 1    
    31   15   74 1    
    32   15   75 1    
    33   16   17 1    
    34   17   18 1    
    35   17   76 1    
    36   17   77 1    
    37   18   19 1    
    38   18   27 1    
    39   18   78 1    
    40   19   20 am   BACKBONE|DICT|INTERRES
    41   19   79 1    
    42   20   21 2    
    43   20   22 1    
    44   22   23 1    
    45   22   24 1    
    46   22   80 1    
    47   23   81 1    
    48   23   82 1    
    49   23   83 1    
    50   24   25 am   BACKBONE|DICT|INTERRES
    51   24   84 1    
    52   25   26 2    
    53   27   28 2    
    54   27   29 am   BACKBONE|DICT|INTERRES
    55   29   30 1    
    56   29   85 1    
    57   30   31 1    
    58   30   32 1    
    59   30   86 1    
    60   31   87 1    
    61   31   88 1    
    62   31   89 1    
    63   32   33 2    
    64   32   34 am   BACKBONE|DICT|INTERRES
    65   34   35 1    
    66   34   90 1    
    67   35   36 1    
    68   35   37 1    
    69   35   91 1    
    70   36   92 1    
    71   36   93 1    
    72   36   94 1    
    73   37   38 2    
    74   37   39 am   BACKBONE|DICT|INTERRES
    75   39   40 1    
    76   39   95 1    
    77   40   41 1    
    78   40   42 1    
    79   40   96 1    
    80   41   97 1    
    81   41   98 1    
    82   41   99 1    
    83   42   43 2    
    84   42   44 am   BACKBONE|DICT|INTERRES
    85   44   45 1    
    86   44  100 1    
    87   45   46 1    
    88   45   47 1    
    89   45  101 1    
    90   46  102 1    
    91   46  103 1    
    92   46  104 1    
    93   47   48 2    
    94   47   49 am   BACKBONE|DICT|INTERRES
    95   49   50 1    
    96   49  105 1    
    97   50   51 1    
    98   50   52 1    
    99   50  106 1    
   100   51  107 1    
   101   51  108 1    
   102   51  109 1    
   103   52   53 2    
   104   52   54 am   BACKBONE|DICT|INTERRES
   105   54   55 1    
   106   54  110 1    
   107   55   56 1    
   108   55   59 1    
   109   55  111 1    
   110   56   57 am   BACKBONE|DICT|INTERRES
   111   56   58 2    
   112   57  112 1    
   113   57  113 1    
   114   59   60 1    
   115   59  114 1    
   116   59  115 1    
   117   60   61 1    
   118   61  116 1    
   119   61  117 1    
@<TRIPOS>SUBSTRUCTURE
     1 UNK         1 GROUP             0       ****    0 ROOT    
