@<TRIPOS>MOLECULE
3R8
117   119    1
SMALL
USER_CHARGES


@<TRIPOS>ATOM
      1 CA         15.3870  -23.0787  -47.1111 C.3       0 UNK        -0.2013 
      2 C          15.6424  -24.4789  -46.5743 C.2       0 UNK         0.4866 
      3 O          16.2223  -25.3061  -47.2765 O.2       0 UNK        -0.5176 
      4 N          15.2093  -24.7504  -45.3391 N.am      1 UNK        -0.4884 
      5 CA         15.3865  -26.0156  -44.6298 C.3       1 UNK         0.0853 
      6 C6         14.4583  -27.1233  -45.2022 C.3       10 UNK        -0.0849 
      7 S7         14.6261  -28.7604  -44.4086 S.3       10 UNK        -0.2776 
      8 C8         15.6566  -29.6690  -45.6037 C.3       10 UNK         0.0316 
      9 C9         17.1310  -29.3315  -45.4445 C.ar      10 UNK        -0.0863 
     10 C10        17.8888  -29.9691  -44.4568 C.ar      10 UNK        -0.1009 
     11 C11        19.2444  -29.6697  -44.3021 C.ar      10 UNK        -0.0712 
     12 C12        19.8494  -28.7541  -45.1654 C.ar      10 UNK        -0.0894 
     13 C13        19.0978  -28.0881  -46.1388 C.ar      10 UNK        -0.0745 
     14 C14        17.7382  -28.3850  -46.2762 C.ar      10 UNK        -0.0972 
     15 C15        19.7513  -27.0497  -47.0420 C.3       10 UNK         0.0209 
     16 S16        19.7246  -25.3777  -46.3091 S.3       10 UNK        -0.2568 
     17 C17        20.9849  -25.5241  -44.9952 C.3       10 UNK        -0.0983 
     18 CA         20.4196  -25.4328  -43.5503 C.3       3 UNK         0.0876 
     19 N          19.1977  -26.2193  -43.3632 N.am      3 UNK        -0.4424 
     20 C          18.2864  -25.9825  -42.4170 C.2       2 UNK         0.4918 
     21 O          18.3341  -25.0304  -41.6349 O.2       2 UNK        -0.4875 
     22 CA         17.1267  -26.9826  -42.3180 C.3       2 UNK         0.0481 
     23 CB         17.3257  -27.9163  -41.1143 C.3       2 UNK        -0.1831 
     24 N          15.8634  -26.2591  -42.1693 N.am      2 UNK        -0.4498 
     25 C          15.1077  -25.7184  -43.1375 C.2       1 UNK         0.5027 
     26 O          14.1591  -24.9806  -42.8621 O.2       1 UNK        -0.4969 
     27 C          21.4886  -25.9067  -42.5469 C.2       3 UNK         0.5005 
     28 O          21.4833  -27.0775  -42.1549 O.2       3 UNK        -0.5279 
     29 N          22.4481  -25.0338  -42.2141 N.am      4 UNK        -0.4463 
     30 CA         23.6270  -25.3585  -41.3996 C.3       4 UNK         0.0283 
     31 CB         24.1661  -24.0654  -40.7593 C.3       4 UNK        -0.1875 
     32 C          24.7000  -26.1086  -42.2203 C.2       4 UNK         0.4949 
     33 O          25.8494  -25.6705  -42.2850 O.2       4 UNK        -0.5039 
     34 N          24.2895  -27.2046  -42.8707 N.am      5 UNK        -0.4663 
     35 CA         25.1124  -28.0108  -43.7734 C.3       5 UNK         0.0242 
     36 CB         24.1977  -28.8856  -44.6485 C.3       5 UNK        -0.1982 
     37 C          26.1428  -28.8689  -43.0245 C.2       5 UNK         0.5017 
     38 O          27.3132  -28.8847  -43.4072 O.2       5 UNK        -0.5012 
     39 N          25.6847  -29.5549  -41.9721 N.am      6 UNK        -0.4439 
     40 CA         26.4464  -30.4497  -41.1051 C.3       6 UNK         0.0297 
     41 CB         26.9236  -31.6957  -41.8814 C.3       6 UNK        -0.2006 
     42 C          25.5261  -30.8773  -39.9589 C.2       6 UNK         0.4892 
     43 O          24.3039  -30.8498  -40.1238 O.2       6 UNK        -0.5089 
     44 N          26.1176  -31.3259  -38.8437 N.am      7 UNK        -0.4243 
     45 CA         25.3934  -31.8838  -37.6932 C.3       7 UNK         0.0196 
     46 CB         26.3763  -32.1328  -36.5381 C.3       7 UNK        -0.2007 
     47 C          24.6208  -33.1721  -38.0333 C.2       7 UNK         0.5020 
     48 O          23.5420  -33.3995  -37.4860 O.2       7 UNK        -0.5147 
     49 N          25.1607  -33.9629  -38.9724 N.am      8 UNK        -0.4734 
     50 CA         24.5404  -35.1725  -39.5239 C.3       8 UNK         0.0238 
     51 CB         25.5794  -35.9211  -40.3752 C.3       8 UNK        -0.1912 
     52 C          23.2642  -34.9057  -40.3464 C.2       8 UNK         0.5038 
     53 O          22.4850  -35.8366  -40.5538 O.2       8 UNK        -0.5046 
     54 N          23.0688  -33.6569  -40.7926 N.am      9 UNK        -0.4200 
     55 CA         21.8485  -33.1855  -41.4615 C.3       9 UNK         0.0839 
     56 C          20.6403  -32.9999  -40.4929 C.2       9 UNK         0.5513 
     57 N          20.8369  -32.9623  -39.1787 N.am      9 UNK        -0.7519 
     58 O          19.4993  -32.9140  -40.9369 O.2       9 UNK        -0.4960 
     59 C59        22.1479  -31.9049  -42.2871 C.3       10 UNK        -0.0876 
     60 S60        21.0658  -31.6830  -43.7398 S.3       10 UNK        -0.2414 
     61 C61        20.0501  -30.2878  -43.1720 C.3       10 UNK         0.0169 
     62 H62        14.7847  -23.1288  -48.0178 H         1 UNK         0.0903 
     63 H63        14.8620  -22.4536  -46.3889 H         1 UNK         0.0903 
     64 H64        16.3319  -22.5942  -47.3557 H         1 UNK         0.0903 
     65 H65        14.7303  -24.0445  -44.7917 H         1 UNK         0.3096 
     66 H66        16.4257  -26.3057  -44.7774 H         1 UNK         0.1121 
     67 H67        13.4147  -26.8166  -45.1099 H         1 UNK         0.0849 
     68 H68        14.6299  -27.2379  -46.2729 H         1 UNK         0.0849 
     69 H69        15.5134  -30.7389  -45.4439 H         1 UNK         0.0865 
     70 H70        15.3184  -29.4729  -46.6223 H         1 UNK         0.0865 
     71 H71        17.4172  -30.6832  -43.7950 H         1 UNK         0.1346 
     72 H72        20.9040  -28.5470  -45.0535 H         1 UNK         0.1412 
     73 H73        17.1523  -27.8742  -47.0291 H         1 UNK         0.1426 
     74 H74        20.7785  -27.3369  -47.2719 H         1 UNK         0.0716 
     75 H75        19.2280  -27.0145  -47.9988 H         1 UNK         0.0716 
     76 H76        21.5522  -26.4421  -45.1480 H         1 UNK         0.0695 
     77 H77        21.7073  -24.7211  -45.1518 H         1 UNK         0.0695 
     78 H78        20.1880  -24.3859  -43.3410 H         1 UNK         0.0983 
     79 H79        19.1088  -27.0360  -43.9525 H         1 UNK         0.3095 
     80 H80        17.1028  -27.6096  -43.2061 H         1 UNK         0.0454 
     81 H81        16.5240  -28.6521  -41.0488 H         1 UNK         0.0851 
     82 H82        18.2633  -28.4671  -41.2012 H         1 UNK         0.0851 
     83 H83        17.3573  -27.3665  -40.1728 H         1 UNK         0.0851 
     84 H84        15.6305  -26.0139  -41.2183 H         1 UNK         0.2976 
     85 H85        22.4210  -24.1041  -42.6094 H         1 UNK         0.3116 
     86 H86        23.3233  -26.0237  -40.5882 H         1 UNK         0.0646 
     87 H87        25.0156  -24.2764  -40.1082 H         1 UNK         0.0847 
     88 H88        23.4067  -23.5785  -40.1472 H         1 UNK         0.0847 
     89 H89        24.5018  -23.3501  -41.5112 H         1 UNK         0.0847 
     90 H90        23.3192  -27.4786  -42.7444 H         1 UNK         0.3040 
     91 H91        25.6638  -27.3336  -44.4300 H         1 UNK         0.1015 
     92 H92        23.5394  -28.2743  -45.2660 H         1 UNK         0.0786 
     93 H93        23.5727  -29.5499  -44.0502 H         1 UNK         0.0786 
     94 H94        24.7841  -29.5103  -45.3238 H         1 UNK         0.0786 
     95 H95        24.7102  -29.4701  -41.7079 H         1 UNK         0.3172 
     96 H96        27.3013  -29.9071  -40.6970 H         1 UNK         0.0595 
     97 H97        26.0875  -32.2369  -42.3266 H         1 UNK         0.0839 
     98 H98        27.4519  -32.3910  -41.2281 H         1 UNK         0.0839 
     99 H99        27.6140  -31.4339  -42.6828 H         1 UNK         0.0839 
    100 H100       27.1264  -31.3157  -38.7863 H         1 UNK         0.2998 
    101 H101       24.6618  -31.1410  -37.3674 H         1 UNK         0.0822 
    102 H102       26.8693  -31.2105  -36.2304 H         1 UNK         0.0787 
    103 H103       25.8573  -32.5277  -35.6634 H         1 UNK         0.0787 
    104 H104       27.1488  -32.8530  -36.8110 H         1 UNK         0.0787 
    105 H105       26.0544  -33.6960  -39.3587 H         1 UNK         0.3055 
    106 H106       24.2522  -35.8130  -38.6872 H         1 UNK         0.1106 
    107 H107       25.1622  -36.8456  -40.7773 H         1 UNK         0.0828 
    108 H108       25.9166  -35.3215  -41.2217 H         1 UNK         0.0828 
    109 H109       26.4546  -36.1947  -39.7855 H         1 UNK         0.0828 
    110 H110       23.7322  -32.9384  -40.5339 H         1 UNK         0.2931 
    111 H111       21.5592  -33.9692  -42.1646 H         1 UNK         0.0412 
    112 H112       20.0427  -32.8530  -38.5681 H         1 UNK         0.3472 
    113 H113       21.7637  -33.0562  -38.7846 H         1 UNK         0.3472 
    114 H114       23.1648  -31.9483  -42.6811 H         1 UNK         0.0970 
    115 H115       22.1274  -31.0181  -41.6511 H         1 UNK         0.0970 
    116 H116       19.3893  -30.6222  -42.3715 H         1 UNK         0.0612 
    117 H117       20.6943  -29.5233  -42.7375 H         1 UNK         0.0612 
@<TRIPOS>BOND
     1    1    2 1    
     2    1   62 1    
     3    1   63 1    
     4    1   64 1    
     5    2    3 2    
     6    2    4 am   BACKBONE|DICT|INTERRES
     7    4    5 1    
     8    4   65 1    
     9    5    6 1    
    10    5   25 1    
    11    5   66 1    
    12    6    7 1    
    13    6   67 1    
    14    6   68 1    
    15    7    8 1    
    16    8    9 1    
    17    8   69 1    
    18    8   70 1    
    19    9   10 ar   
    20    9   14 ar   
    21   10   11 ar   
    22   10   71 1    
    23   11   12 ar   
    24   11   61 1    
    25   12   13 ar   
    26   12   72 1    
    27   13   14 ar   
    28   13   15 1    
    29   14   73 1    
    30   15   16 1    
    31   15   74 1    
    32   15   75 1    
    33   16   17 1    
    34   17   18 1    
    35   17   76 1    
    36   17   77 1    
    37   18   19 1    
    38   18   27 1    
    39   18   78 1    
    40   19   20 am   BACKBONE|DICT|INTERRES
    41   19   79 1    
    42   20   21 2    
    43   20   22 1    
    44   22   23 1    
    45   22   24 1    
    46   22   80 1    
    47   23   81 1    
    48   23   82 1    
    49   23   83 1    
    50   24   25 am   BACKBONE|DICT|INTERRES
    51   24   84 1    
    52   25   26 2    
    53   27   28 2    
    54   27   29 am   BACKBONE|DICT|INTERRES
    55   29   30 1    
    56   29   85 1    
    57   30   31 1    
    58   30   32 1    
    59   30   86 1    
    60   31   87 1    
    61   31   88 1    
    62   31   89 1    
    63   32   33 2    
    64   32   34 am   BACKBONE|DICT|INTERRES
    65   34   35 1    
    66   34   90 1    
    67   35   36 1    
    68   35   37 1    
    69   35   91 1    
    70   36   92 1    
    71   36   93 1    
    72   36   94 1    
    73   37   38 2    
    74   37   39 am   BACKBONE|DICT|INTERRES
    75   39   40 1    
    76   39   95 1    
    77   40   41 1    
    78   40   42 1    
    79   40   96 1    
    80   41   97 1    
    81   41   98 1    
    82   41   99 1    
    83   42   43 2    
    84   42   44 am   BACKBONE|DICT|INTERRES
    85   44   45 1    
    86   44  100 1    
    87   45   46 1    
    88   45   47 1    
    89   45  101 1    
    90   46  102 1    
    91   46  103 1    
    92   46  104 1    
    93   47   48 2    
    94   47   49 am   BACKBONE|DICT|INTERRES
    95   49   50 1    
    96   49  105 1    
    97   50   51 1    
    98   50   52 1    
    99   50  106 1    
   100   51  107 1    
   101   51  108 1    
   102   51  109 1    
   103   52   53 2    
   104   52   54 am   BACKBONE|DICT|INTERRES
   105   54   55 1    
   106   54  110 1    
   107   55   56 1    
   108   55   59 1    
   109   55  111 1    
   110   56   57 am   BACKBONE|DICT|INTERRES
   111   56   58 2    
   112   57  112 1    
   113   57  113 1    
   114   59   60 1    
   115   59  114 1    
   116   59  115 1    
   117   60   61 1    
   118   61  116 1    
   119   61  117 1    
@<TRIPOS>SUBSTRUCTURE
     1 UNK         1 GROUP             0       ****    0 ROOT    
