@<TRIPOS>MOLECULE
3R8
117   119    1
SMALL
USER_CHARGES


@<TRIPOS>ATOM
      1 CA         15.3410  -24.5301  -41.2637 C.3       0 UNK        -0.2013 
      2 C          15.9733  -24.3622  -42.6372 C.2       0 UNK         0.4866 
      3 O          16.0560  -23.2414  -43.1414 O.2       0 UNK        -0.5176 
      4 N          16.4098  -25.4694  -43.2498 N.am      1 UNK        -0.4884 
      5 CA         17.0883  -25.5033  -44.5518 C.3       1 UNK         0.0853 
      6 C6         17.1667  -26.9394  -45.1335 C.3       10 UNK        -0.0849 
      7 S7         15.6018  -27.8787  -45.0224 S.3       10 UNK        -0.2776 
      8 C8         16.0008  -29.4062  -45.9352 C.3       10 UNK         0.0316 
      9 C9         17.2766  -30.0689  -45.4323 C.ar      10 UNK        -0.0863 
     10 C10        17.2681  -30.8589  -44.2787 C.ar      10 UNK        -0.1009 
     11 C11        18.4465  -31.4625  -43.8264 C.ar      10 UNK        -0.0712 
     12 C12        19.6388  -31.2544  -44.5274 C.ar      10 UNK        -0.0894 
     13 C13        19.6661  -30.4546  -45.6742 C.ar      10 UNK        -0.0745 
     14 C14        18.4724  -29.8856  -46.1309 C.ar      10 UNK        -0.0972 
     15 C15        20.9781  -30.2524  -46.4291 C.3       10 UNK         0.0209 
     16 S16        21.1647  -28.5728  -47.1248 S.3       10 UNK        -0.2568 
     17 C17        22.6812  -27.9485  -46.3183 C.3       10 UNK        -0.0983 
     18 CA         22.4335  -26.9689  -45.1404 C.3       3 UNK         0.0876 
     19 N          21.4427  -25.9433  -45.4789 N.am      3 UNK        -0.4424 
     20 C          21.5448  -24.6419  -45.1851 C.2       2 UNK         0.4918 
     21 O          22.5016  -24.1431  -44.5924 O.2       2 UNK        -0.4875 
     22 CA         20.3686  -23.7409  -45.6135 C.3       2 UNK         0.0481 
     23 CB         20.6039  -23.1977  -47.0318 C.3       2 UNK        -0.1831 
     24 N          19.0459  -24.3811  -45.5484 N.am      2 UNK        -0.4498 
     25 C          18.5090  -24.9078  -44.4382 C.2       1 UNK         0.5027 
     26 O          19.1166  -24.9852  -43.3675 O.2       1 UNK        -0.4969 
     27 C          22.1103  -27.7147  -43.8287 C.2       3 UNK         0.5005 
     28 O          22.9563  -28.4913  -43.3748 O.2       3 UNK        -0.5279 
     29 N          20.9460  -27.4648  -43.2039 N.am      4 UNK        -0.4463 
     30 CA         20.4866  -28.1257  -41.9718 C.3       4 UNK         0.0283 
     31 CB         18.9523  -28.0539  -41.8700 C.3       4 UNK        -0.1875 
     32 C          21.1911  -27.5973  -40.7055 C.2       4 UNK         0.4949 
     33 O          20.5435  -27.1986  -39.7367 O.2       4 UNK        -0.5039 
     34 N          22.5221  -27.6158  -40.7532 N.am      5 UNK        -0.4663 
     35 CA         23.4590  -27.2608  -39.6944 C.3       5 UNK         0.0242 
     36 CB         23.5876  -25.7327  -39.5547 C.3       5 UNK        -0.1982 
     37 C          24.8019  -27.9206  -40.0163 C.2       5 UNK         0.5017 
     38 O          25.3398  -28.6413  -39.1772 O.2       5 UNK        -0.5012 
     39 N          25.2757  -27.7229  -41.2568 N.am      6 UNK        -0.4439 
     40 CA         26.4537  -28.3841  -41.8241 C.3       6 UNK         0.0297 
     41 CB         26.8238  -27.7140  -43.1574 C.3       6 UNK        -0.2006 
     42 C          26.2457  -29.8960  -42.0195 C.2       6 UNK         0.4892 
     43 O          27.1523  -30.6744  -41.7230 O.2       6 UNK        -0.5089 
     44 N          25.0501  -30.2825  -42.4886 N.am      7 UNK        -0.4243 
     45 CA         24.6317  -31.6778  -42.6486 C.3       7 UNK         0.0196 
     46 CB         23.4922  -31.7343  -43.6770 C.3       7 UNK        -0.2007 
     47 C          24.1865  -32.3356  -41.3298 C.2       7 UNK         0.5020 
     48 O          24.0260  -33.5556  -41.2986 O.2       7 UNK        -0.5147 
     49 N          23.9552  -31.5279  -40.2835 N.am      8 UNK        -0.4734 
     50 CA         23.5168  -31.8613  -38.9170 C.3       8 UNK         0.0238 
     51 CB         24.5457  -32.7644  -38.2098 C.3       8 UNK        -0.1912 
     52 C          22.0955  -32.4469  -38.7916 C.2       8 UNK         0.5038 
     53 O          21.4335  -32.1778  -37.7889 O.2       8 UNK        -0.5046 
     54 N          21.6547  -33.2201  -39.7908 N.am      9 UNK        -0.4200 
     55 CA         20.3423  -33.8829  -39.8951 C.3       9 UNK         0.0839 
     56 C          20.1264  -35.0513  -38.8854 C.2       9 UNK         0.5513 
     57 N          21.1683  -35.5855  -38.2592 N.am      9 UNK        -0.7519 
     58 O          19.0024  -35.5061  -38.6872 O.2       9 UNK        -0.4960 
     59 C59        19.1426  -32.8903  -39.9260 C.3       10 UNK        -0.0876 
     60 S60        19.3112  -31.5954  -41.2002 S.3       10 UNK        -0.2414 
     61 C61        18.4336  -32.3597  -42.5966 C.3       10 UNK         0.0169 
     62 H62        14.3151  -24.1629  -41.2749 H         1 UNK         0.0903 
     63 H63        15.3245  -25.5729  -40.9470 H         1 UNK         0.0903 
     64 H64        15.8997  -23.9598  -40.5221 H         1 UNK         0.0903 
     65 H65        16.3045  -26.3657  -42.7973 H         1 UNK         0.3096 
     66 H66        16.5104  -24.8817  -45.2395 H         1 UNK         0.1121 
     67 H67        17.9361  -27.5147  -44.6187 H         1 UNK         0.0849 
     68 H68        17.4705  -26.9029  -46.1814 H         1 UNK         0.0849 
     69 H69        15.1660  -30.1025  -45.8436 H         1 UNK         0.0865 
     70 H70        16.0836  -29.1739  -46.9982 H         1 UNK         0.0865 
     71 H71        16.3430  -31.0056  -43.7379 H         1 UNK         0.1346 
     72 H72        20.5452  -31.7255  -44.1759 H         1 UNK         0.1412 
     73 H73        18.4724  -29.2845  -47.0296 H         1 UNK         0.1426 
     74 H74        21.0232  -30.9738  -47.2457 H         1 UNK         0.0716 
     75 H75        21.8211  -30.4754  -45.7759 H         1 UNK         0.0716 
     76 H76        23.2423  -27.4203  -47.0907 H         1 UNK         0.0695 
     77 H77        23.3278  -28.7776  -46.0244 H         1 UNK         0.0695 
     78 H78        23.3896  -26.4771  -44.9476 H         1 UNK         0.0983 
     79 H79        20.6377  -26.2675  -45.9952 H         1 UNK         0.3095 
     80 H80        20.3477  -22.8915  -44.9275 H         1 UNK         0.0454 
     81 H81        20.5968  -23.9940  -47.7772 H         1 UNK         0.0851 
     82 H82        21.5699  -22.6954  -47.1023 H         1 UNK         0.0851 
     83 H83        19.8432  -22.4684  -47.3106 H         1 UNK         0.0851 
     84 H84        18.4981  -24.3661  -46.3974 H         1 UNK         0.2976 
     85 H85        20.3593  -26.7154  -43.5500 H         1 UNK         0.3116 
     86 H86        20.7503  -29.1822  -42.0480 H         1 UNK         0.0646 
     87 H87        18.4786  -28.5674  -42.7050 H         1 UNK         0.0847 
     88 H88        18.5918  -27.0267  -41.8388 H         1 UNK         0.0847 
     89 H89        18.5989  -28.5470  -40.9636 H         1 UNK         0.0847 
     90 H90        22.9235  -27.9918  -41.6091 H         1 UNK         0.3040 
     91 H91        23.0966  -27.6750  -38.7506 H         1 UNK         0.1015 
     92 H92        24.3273  -25.4717  -38.7966 H         1 UNK         0.0786 
     93 H93        22.6423  -25.2829  -39.2505 H         1 UNK         0.0786 
     94 H94        23.8937  -25.2610  -40.4890 H         1 UNK         0.0786 
     95 H95        24.7767  -27.0940  -41.8689 H         1 UNK         0.3172 
     96 H96        27.2850  -28.2469  -41.1292 H         1 UNK         0.0595 
     97 H97        26.0194  -27.7944  -43.8901 H         1 UNK         0.0839 
     98 H98        27.7088  -28.1792  -43.5941 H         1 UNK         0.0839 
     99 H99        27.0507  -26.6564  -43.0214 H         1 UNK         0.0839 
    100 H100       24.3692  -29.5765  -42.7590 H         1 UNK         0.2998 
    101 H101       25.4729  -32.2568  -43.0359 H         1 UNK         0.0822 
    102 H102       23.8059  -31.3202  -44.6351 H         1 UNK         0.0787 
    103 H103       23.1710  -32.7614  -43.8558 H         1 UNK         0.0787 
    104 H104       22.6229  -31.1725  -43.3344 H         1 UNK         0.0787 
    105 H105       24.1234  -30.5445  -40.4393 H         1 UNK         0.3055 
    106 H106       23.4974  -30.9109  -38.3801 H         1 UNK         0.1106 
    107 H107       24.6257  -33.7435  -38.6828 H         1 UNK         0.0828 
    108 H108       24.2674  -32.9302  -37.1681 H         1 UNK         0.0828 
    109 H109       25.5364  -32.3096  -38.2108 H         1 UNK         0.0828 
    110 H110       22.3177  -33.4268  -40.5321 H         1 UNK         0.2931 
    111 H111       20.3631  -34.3748  -40.8680 H         1 UNK         0.0412 
    112 H112       21.0215  -36.3480  -37.6162 H         1 UNK         0.3472 
    113 H113       22.0979  -35.2347  -38.4249 H         1 UNK         0.3472 
    114 H114       19.0313  -32.4004  -38.9576 H         1 UNK         0.0970 
    115 H115       18.2054  -33.4234  -40.0950 H         1 UNK         0.0970 
    116 H116       17.4091  -32.5848  -42.2965 H         1 UNK         0.0612 
    117 H117       18.9050  -33.3129  -42.8401 H         1 UNK         0.0612 
@<TRIPOS>BOND
     1    1    2 1    
     2    1   62 1    
     3    1   63 1    
     4    1   64 1    
     5    2    3 2    
     6    2    4 am   BACKBONE|DICT|INTERRES
     7    4    5 1    
     8    4   65 1    
     9    5    6 1    
    10    5   25 1    
    11    5   66 1    
    12    6    7 1    
    13    6   67 1    
    14    6   68 1    
    15    7    8 1    
    16    8    9 1    
    17    8   69 1    
    18    8   70 1    
    19    9   10 ar   
    20    9   14 ar   
    21   10   11 ar   
    22   10   71 1    
    23   11   12 ar   
    24   11   61 1    
    25   12   13 ar   
    26   12   72 1    
    27   13   14 ar   
    28   13   15 1    
    29   14   73 1    
    30   15   16 1    
    31   15   74 1    
    32   15   75 1    
    33   16   17 1    
    34   17   18 1    
    35   17   76 1    
    36   17   77 1    
    37   18   19 1    
    38   18   27 1    
    39   18   78 1    
    40   19   20 am   BACKBONE|DICT|INTERRES
    41   19   79 1    
    42   20   21 2    
    43   20   22 1    
    44   22   23 1    
    45   22   24 1    
    46   22   80 1    
    47   23   81 1    
    48   23   82 1    
    49   23   83 1    
    50   24   25 am   BACKBONE|DICT|INTERRES
    51   24   84 1    
    52   25   26 2    
    53   27   28 2    
    54   27   29 am   BACKBONE|DICT|INTERRES
    55   29   30 1    
    56   29   85 1    
    57   30   31 1    
    58   30   32 1    
    59   30   86 1    
    60   31   87 1    
    61   31   88 1    
    62   31   89 1    
    63   32   33 2    
    64   32   34 am   BACKBONE|DICT|INTERRES
    65   34   35 1    
    66   34   90 1    
    67   35   36 1    
    68   35   37 1    
    69   35   91 1    
    70   36   92 1    
    71   36   93 1    
    72   36   94 1    
    73   37   38 2    
    74   37   39 am   BACKBONE|DICT|INTERRES
    75   39   40 1    
    76   39   95 1    
    77   40   41 1    
    78   40   42 1    
    79   40   96 1    
    80   41   97 1    
    81   41   98 1    
    82   41   99 1    
    83   42   43 2    
    84   42   44 am   BACKBONE|DICT|INTERRES
    85   44   45 1    
    86   44  100 1    
    87   45   46 1    
    88   45   47 1    
    89   45  101 1    
    90   46  102 1    
    91   46  103 1    
    92   46  104 1    
    93   47   48 2    
    94   47   49 am   BACKBONE|DICT|INTERRES
    95   49   50 1    
    96   49  105 1    
    97   50   51 1    
    98   50   52 1    
    99   50  106 1    
   100   51  107 1    
   101   51  108 1    
   102   51  109 1    
   103   52   53 2    
   104   52   54 am   BACKBONE|DICT|INTERRES
   105   54   55 1    
   106   54  110 1    
   107   55   56 1    
   108   55   59 1    
   109   55  111 1    
   110   56   57 am   BACKBONE|DICT|INTERRES
   111   56   58 2    
   112   57  112 1    
   113   57  113 1    
   114   59   60 1    
   115   59  114 1    
   116   59  115 1    
   117   60   61 1    
   118   61  116 1    
   119   61  117 1    
@<TRIPOS>SUBSTRUCTURE
     1 UNK         1 GROUP             0       ****    0 ROOT    
