@<TRIPOS>MOLECULE
3R8
117   119    1
SMALL
USER_CHARGES


@<TRIPOS>ATOM
      1 CA         18.8464  -28.9116  -49.4658 C.3       0 UNK        -0.2013 
      2 C          20.0747  -28.4633  -48.6883 C.2       0 UNK         0.4866 
      3 O          21.1997  -28.7147  -49.1207 O.2       0 UNK        -0.5176 
      4 N          19.8687  -27.8004  -47.5468 N.am      1 UNK        -0.4884 
      5 CA         20.9069  -27.2691  -46.6651 C.3       1 UNK         0.0853 
      6 C6         21.6686  -28.3835  -45.8781 C.3       10 UNK        -0.0849 
      7 S7         20.9377  -29.0066  -44.3158 S.3       10 UNK        -0.2776 
      8 C8         19.2816  -29.5612  -44.8230 C.3       10 UNK         0.0316 
      9 C9         18.4793  -30.0455  -43.6275 C.ar      10 UNK        -0.0863 
     10 C10        18.5578  -31.3801  -43.2211 C.ar      10 UNK        -0.1009 
     11 C11        17.7998  -31.8371  -42.1384 C.ar      10 UNK        -0.0712 
     12 C12        16.9623  -30.9463  -41.4603 C.ar      10 UNK        -0.0894 
     13 C13        16.8668  -29.6104  -41.8649 C.ar      10 UNK        -0.0745 
     14 C14        17.6325  -29.1646  -42.9467 C.ar      10 UNK        -0.0972 
     15 C15        15.8954  -28.6701  -41.1643 C.3       10 UNK         0.0209 
     16 S16        16.7035  -27.6756  -39.8710 S.3       10 UNK        -0.2568 
     17 C17        17.3242  -26.2346  -40.8065 C.3       10 UNK        -0.0983 
     18 CA         18.8610  -26.2477  -41.0041 C.3       3 UNK         0.0876 
     19 N          19.2459  -25.4509  -42.1801 N.am      3 UNK        -0.4424 
     20 C          20.4730  -25.4173  -42.7135 C.2       2 UNK         0.4918 
     21 O          21.4395  -26.0180  -42.2429 O.2       2 UNK        -0.4875 
     22 CA         20.6750  -24.5577  -43.9678 C.3       2 UNK         0.0481 
     23 CB         21.7375  -23.4738  -43.7201 C.3       2 UNK        -0.1831 
     24 N          21.1063  -25.4260  -45.0607 N.am      2 UNK        -0.4498 
     25 C          20.2680  -26.1929  -45.7681 C.2       1 UNK         0.5027 
     26 O          19.0370  -26.0996  -45.7057 O.2       1 UNK        -0.4969 
     27 C          19.6161  -25.8428  -39.7137 C.2       3 UNK         0.5005 
     28 O          19.7895  -26.6749  -38.8232 O.2       3 UNK        -0.5279 
     29 N          20.0921  -24.5889  -39.6496 N.am      4 UNK        -0.4463 
     30 CA         20.9730  -24.0828  -38.5925 C.3       4 UNK         0.0283 
     31 CB         21.1130  -22.5583  -38.7314 C.3       4 UNK        -0.1875 
     32 C          22.3617  -24.7518  -38.5865 C.2       4 UNK         0.4949 
     33 O          22.9485  -24.9031  -37.5148 O.2       4 UNK        -0.5039 
     34 N          22.8559  -25.1428  -39.7699 N.am      5 UNK        -0.4663 
     35 CA         24.0854  -25.9203  -39.9362 C.3       5 UNK         0.0242 
     36 CB         24.7650  -25.5341  -41.2614 C.3       5 UNK        -0.1982 
     37 C          23.7931  -27.4279  -39.8984 C.2       5 UNK         0.5017 
     38 O          24.5615  -28.1731  -39.2904 O.2       5 UNK        -0.5012 
     39 N          22.6923  -27.8372  -40.5511 N.am      6 UNK        -0.4439 
     40 CA         22.1902  -29.2092  -40.6985 C.3       6 UNK         0.0297 
     41 CB         21.7593  -29.7804  -39.3314 C.3       6 UNK        -0.2006 
     42 C          23.1769  -30.1234  -41.4535 C.2       6 UNK         0.4892 
     43 O          23.2763  -31.3116  -41.1463 O.2       6 UNK        -0.5089 
     44 N          23.8952  -29.5446  -42.4274 N.am      7 UNK        -0.4243 
     45 CA         25.0129  -30.1573  -43.1518 C.3       7 UNK         0.0196 
     46 CB         25.6407  -29.1088  -44.0843 C.3       7 UNK        -0.2007 
     47 C          24.6604  -31.4321  -43.9371 C.2       7 UNK         0.5020 
     48 O          25.5033  -32.3238  -44.0374 O.2       7 UNK        -0.5147 
     49 N          23.4350  -31.5025  -44.4723 N.am      8 UNK        -0.4734 
     50 CA         22.9226  -32.6693  -45.2002 C.3       8 UNK         0.0238 
     51 CB         22.0856  -32.1854  -46.3963 C.3       8 UNK        -0.1912 
     52 C          22.1024  -33.6189  -44.3069 C.2       8 UNK         0.5038 
     53 O          21.6340  -34.6439  -44.8048 O.2       8 UNK        -0.5046 
     54 N          21.9141  -33.2646  -43.0293 N.am      9 UNK        -0.4200 
     55 CA         21.1642  -34.0476  -42.0402 C.3       9 UNK         0.0839 
     56 C          21.9870  -35.2289  -41.4521 C.2       9 UNK         0.5513 
     57 N          21.3429  -36.1150  -40.7056 N.am      9 UNK        -0.7519 
     58 O          23.1944  -35.3509  -41.6504 O.2       9 UNK        -0.4960 
     59 C59        20.5772  -33.1122  -40.9468 C.3       10 UNK        -0.0876 
     60 S60        18.9445  -33.6317  -40.3196 S.3       10 UNK        -0.2414 
     61 C61        17.8439  -33.3051  -41.7367 C.3       10 UNK         0.0169 
     62 H62        17.9209  -28.6286  -48.9646 H         1 UNK         0.0903 
     63 H63        18.8460  -28.4625  -50.4586 H         1 UNK         0.0903 
     64 H64        18.8513  -29.9951  -49.5815 H         1 UNK         0.0903 
     65 H65        18.9321  -27.5483  -47.2521 H         1 UNK         0.3096 
     66 H66        21.6260  -26.7502  -47.3036 H         1 UNK         0.1121 
     67 H67        21.8712  -29.2353  -46.5270 H         1 UNK         0.0849 
     68 H68        22.6554  -28.0009  -45.6144 H         1 UNK         0.0849 
     69 H69        18.7428  -28.7438  -45.2990 H         1 UNK         0.0865 
     70 H70        19.3617  -30.3492  -45.5718 H         1 UNK         0.0865 
     71 H71        19.2025  -32.0660  -43.7538 H         1 UNK         0.1346 
     72 H72        16.3678  -31.3010  -40.6294 H         1 UNK         0.1412 
     73 H73        17.5599  -28.1345  -43.2684 H         1 UNK         0.1426 
     74 H74        15.0972  -29.2495  -40.6976 H         1 UNK         0.0716 
     75 H75        15.4012  -28.0236  -41.8907 H         1 UNK         0.0716 
     76 H76        16.8221  -26.2158  -41.7746 H         1 UNK         0.0695 
     77 H77        17.0034  -25.3230  -40.2985 H         1 UNK         0.0695 
     78 H78        19.1651  -27.2739  -41.2254 H         1 UNK         0.0983 
     79 H79        18.5069  -24.9315  -42.6321 H         1 UNK         0.3095 
     80 H80        19.7376  -24.0642  -44.2334 H         1 UNK         0.0454 
     81 H81        22.7046  -23.9015  -43.4523 H         1 UNK         0.0851 
     82 H82        21.8815  -22.8529  -44.6044 H         1 UNK         0.0851 
     83 H83        21.4382  -22.8117  -42.9067 H         1 UNK         0.0851 
     84 H84        22.1001  -25.5894  -45.1344 H         1 UNK         0.2976 
     85 H85        19.8837  -23.9604  -40.4116 H         1 UNK         0.3116 
     86 H86        20.4999  -24.2961  -37.6315 H         1 UNK         0.0646 
     87 H87        21.7437  -22.1522  -37.9393 H         1 UNK         0.0847 
     88 H88        20.1456  -22.0611  -38.6580 H         1 UNK         0.0847 
     89 H89        21.5660  -22.2772  -39.6830 H         1 UNK         0.0847 
     90 H90        22.2867  -25.0210  -40.5976 H         1 UNK         0.3040 
     91 H91        24.7780  -25.6923  -39.1225 H         1 UNK         0.1015 
     92 H92        25.0159  -24.4734  -41.2815 H         1 UNK         0.0786 
     93 H93        24.1325  -25.7438  -42.1244 H         1 UNK         0.0786 
     94 H94        25.6944  -26.0889  -41.3972 H         1 UNK         0.0786 
     95 H95        22.1737  -27.1338  -41.0756 H         1 UNK         0.3172 
     96 H96        21.2961  -29.1394  -41.3194 H         1 UNK         0.0595 
     97 H97        21.0944  -29.0939  -38.8075 H         1 UNK         0.0839 
     98 H98        22.6156  -29.9763  -38.6856 H         1 UNK         0.0839 
     99 H99        21.2191  -30.7183  -39.4482 H         1 UNK         0.0839 
    100 H100       23.7136  -28.5706  -42.6204 H         1 UNK         0.2998 
    101 H101       25.7590  -30.4381  -42.4055 H         1 UNK         0.0822 
    102 H102       25.9923  -28.2400  -43.5272 H         1 UNK         0.0787 
    103 H103       26.5012  -29.5220  -44.6126 H         1 UNK         0.0787 
    104 H104       24.9323  -28.7624  -44.8375 H         1 UNK         0.0787 
    105 H105       22.7984  -30.7275  -44.3354 H         1 UNK         0.3055 
    106 H106       23.7556  -33.2550  -45.5960 H         1 UNK         0.1106 
    107 H107       21.7423  -33.0262  -47.0005 H         1 UNK         0.0828 
    108 H108       21.2020  -31.6378  -46.0737 H         1 UNK         0.0828 
    109 H109       22.6665  -31.5368  -47.0520 H         1 UNK         0.0828 
    110 H110       22.4187  -32.4657  -42.6640 H         1 UNK         0.2931 
    111 H111       20.3360  -34.5054  -42.5818 H         1 UNK         0.0412 
    112 H112       20.3580  -36.0063  -40.5153 H         1 UNK         0.3472 
    113 H113       21.8513  -36.8895  -40.3079 H         1 UNK         0.3472 
    114 H114       21.2640  -33.0258  -40.1027 H         1 UNK         0.0970 
    115 H115       20.4682  -32.0949  -41.3239 H         1 UNK         0.0970 
    116 H116       16.8383  -33.6342  -41.4711 H         1 UNK         0.0612 
    117 H117       18.1395  -33.9225  -42.5854 H         1 UNK         0.0612 
@<TRIPOS>BOND
     1    1    2 1    
     2    1   62 1    
     3    1   63 1    
     4    1   64 1    
     5    2    3 2    
     6    2    4 am   BACKBONE|DICT|INTERRES
     7    4    5 1    
     8    4   65 1    
     9    5    6 1    
    10    5   25 1    
    11    5   66 1    
    12    6    7 1    
    13    6   67 1    
    14    6   68 1    
    15    7    8 1    
    16    8    9 1    
    17    8   69 1    
    18    8   70 1    
    19    9   10 ar   
    20    9   14 ar   
    21   10   11 ar   
    22   10   71 1    
    23   11   12 ar   
    24   11   61 1    
    25   12   13 ar   
    26   12   72 1    
    27   13   14 ar   
    28   13   15 1    
    29   14   73 1    
    30   15   16 1    
    31   15   74 1    
    32   15   75 1    
    33   16   17 1    
    34   17   18 1    
    35   17   76 1    
    36   17   77 1    
    37   18   19 1    
    38   18   27 1    
    39   18   78 1    
    40   19   20 am   BACKBONE|DICT|INTERRES
    41   19   79 1    
    42   20   21 2    
    43   20   22 1    
    44   22   23 1    
    45   22   24 1    
    46   22   80 1    
    47   23   81 1    
    48   23   82 1    
    49   23   83 1    
    50   24   25 am   BACKBONE|DICT|INTERRES
    51   24   84 1    
    52   25   26 2    
    53   27   28 2    
    54   27   29 am   BACKBONE|DICT|INTERRES
    55   29   30 1    
    56   29   85 1    
    57   30   31 1    
    58   30   32 1    
    59   30   86 1    
    60   31   87 1    
    61   31   88 1    
    62   31   89 1    
    63   32   33 2    
    64   32   34 am   BACKBONE|DICT|INTERRES
    65   34   35 1    
    66   34   90 1    
    67   35   36 1    
    68   35   37 1    
    69   35   91 1    
    70   36   92 1    
    71   36   93 1    
    72   36   94 1    
    73   37   38 2    
    74   37   39 am   BACKBONE|DICT|INTERRES
    75   39   40 1    
    76   39   95 1    
    77   40   41 1    
    78   40   42 1    
    79   40   96 1    
    80   41   97 1    
    81   41   98 1    
    82   41   99 1    
    83   42   43 2    
    84   42   44 am   BACKBONE|DICT|INTERRES
    85   44   45 1    
    86   44  100 1    
    87   45   46 1    
    88   45   47 1    
    89   45  101 1    
    90   46  102 1    
    91   46  103 1    
    92   46  104 1    
    93   47   48 2    
    94   47   49 am   BACKBONE|DICT|INTERRES
    95   49   50 1    
    96   49  105 1    
    97   50   51 1    
    98   50   52 1    
    99   50  106 1    
   100   51  107 1    
   101   51  108 1    
   102   51  109 1    
   103   52   53 2    
   104   52   54 am   BACKBONE|DICT|INTERRES
   105   54   55 1    
   106   54  110 1    
   107   55   56 1    
   108   55   59 1    
   109   55  111 1    
   110   56   57 am   BACKBONE|DICT|INTERRES
   111   56   58 2    
   112   57  112 1    
   113   57  113 1    
   114   59   60 1    
   115   59  114 1    
   116   59  115 1    
   117   60   61 1    
   118   61  116 1    
   119   61  117 1    
@<TRIPOS>SUBSTRUCTURE
     1 UNK         1 GROUP             0       ****    0 ROOT    
