@<TRIPOS>MOLECULE
3R8
117   119    1
SMALL
USER_CHARGES


@<TRIPOS>ATOM
      1 CA         14.5278  -23.6343  -45.5760 C.3       0 UNK        -0.2013 
      2 C          14.6744  -25.0785  -45.1203 C.2       0 UNK         0.4866 
      3 O          13.8358  -25.5626  -44.3606 O.2       0 UNK        -0.5176 
      4 N          15.7316  -25.7594  -45.5849 N.am      1 UNK        -0.4884 
      5 CA         16.0926  -27.1498  -45.2754 C.3       1 UNK         0.0853 
      6 C6         15.1214  -28.1997  -45.8892 C.3       10 UNK        -0.0849 
      7 S7         15.4988  -28.4706  -47.6563 S.3       10 UNK        -0.2776 
      8 C8         16.5666  -29.9558  -47.5970 C.3       10 UNK         0.0316 
      9 C9         17.7411  -29.7822  -46.6407 C.ar      10 UNK        -0.0863 
     10 C10        17.7147  -30.3882  -45.3808 C.ar      10 UNK        -0.1009 
     11 C11        18.7366  -30.1527  -44.4577 C.ar      10 UNK        -0.0712 
     12 C12        19.8085  -29.3304  -44.8127 C.ar      10 UNK        -0.0894 
     13 C13        19.8583  -28.7333  -46.0759 C.ar      10 UNK        -0.0745 
     14 C14        18.8255  -28.9707  -46.9898 C.ar      10 UNK        -0.0972 
     15 C15        21.0129  -27.8163  -46.4515 C.3       10 UNK         0.0209 
     16 S16        20.8050  -26.1496  -45.7451 S.3       10 UNK        -0.2568 
     17 C17        21.8715  -26.2358  -44.2655 C.3       10 UNK        -0.0983 
     18 CA         21.3816  -25.3108  -43.1185 C.3       3 UNK         0.0876 
     19 N          20.0159  -25.6216  -42.6617 N.am      3 UNK        -0.4424 
     20 C          19.5557  -26.7613  -42.1242 C.2       2 UNK         0.4918 
     21 O          20.2717  -27.7065  -41.7971 O.2       2 UNK        -0.4875 
     22 CA         18.0355  -26.8778  -41.9837 C.3       2 UNK         0.0481 
     23 CB         17.4581  -25.8630  -40.9818 C.3       2 UNK        -0.1831 
     24 N          17.4423  -26.7004  -43.3063 N.am      2 UNK        -0.4498 
     25 C          16.3737  -27.3562  -43.7721 C.2       1 UNK         0.5027 
     26 O          15.6544  -28.0844  -43.0847 O.2       1 UNK        -0.4969 
     27 C          22.4510  -25.2303  -42.0052 C.2       3 UNK         0.5005 
     28 O          23.3669  -24.4147  -42.1232 O.2       3 UNK        -0.5279 
     29 N          22.3568  -26.0869  -40.9779 N.am      4 UNK        -0.4463 
     30 CA         23.2794  -26.3127  -39.8537 C.3       4 UNK         0.0283 
     31 CB         23.5019  -25.0378  -39.0175 C.3       4 UNK        -0.1875 
     32 C          24.6141  -26.9481  -40.2807 C.2       4 UNK         0.4949 
     33 O          25.0161  -27.9591  -39.7049 O.2       4 UNK        -0.5039 
     34 N          25.2400  -26.3933  -41.3270 N.am      5 UNK        -0.4663 
     35 CA         26.4699  -26.8746  -41.9680 C.3       5 UNK         0.0242 
     36 CB         26.9129  -25.8463  -43.0213 C.3       5 UNK        -0.1982 
     37 C          26.3497  -28.2754  -42.5998 C.2       5 UNK         0.5017 
     38 O          27.3741  -28.9051  -42.8643 O.2       5 UNK        -0.5012 
     39 N          25.1104  -28.7455  -42.8058 N.am      6 UNK        -0.4439 
     40 CA         24.7735  -30.1102  -43.2158 C.3       6 UNK         0.0297 
     41 CB         23.2699  -30.1853  -43.5289 C.3       6 UNK        -0.2006 
     42 C          25.1517  -31.1775  -42.1714 C.2       6 UNK         0.4892 
     43 O          25.3511  -32.3311  -42.5533 O.2       6 UNK        -0.5089 
     44 N          25.2307  -30.7843  -40.8880 N.am      7 UNK        -0.4243 
     45 CA         25.6154  -31.5593  -39.6977 C.3       7 UNK         0.0196 
     46 CB         27.0634  -32.0742  -39.8097 C.3       7 UNK        -0.2007 
     47 C          24.6522  -32.6982  -39.3159 C.2       7 UNK         0.5020 
     48 O          24.3032  -32.8212  -38.1423 O.2       7 UNK        -0.5147 
     49 N          24.2277  -33.4999  -40.2987 N.am      8 UNK        -0.4734 
     50 CA         23.3033  -34.6267  -40.1423 C.3       8 UNK         0.0238 
     51 CB         23.3468  -35.4890  -41.4142 C.3       8 UNK        -0.1912 
     52 C          21.8572  -34.2007  -39.8348 C.2       8 UNK         0.5038 
     53 O          21.1156  -34.9870  -39.2437 O.2       8 UNK        -0.5046 
     54 N          21.4856  -32.9810  -40.2389 N.am      9 UNK        -0.4200 
     55 CA         20.1555  -32.3896  -40.0402 C.3       9 UNK         0.0839 
     56 C          20.1854  -30.8753  -39.6873 C.2       9 UNK         0.5513 
     57 N          21.3414  -30.2766  -39.4229 N.am      9 UNK        -0.7519 
     58 O          19.1380  -30.2387  -39.6143 O.2       9 UNK        -0.4960 
     59 C59        19.1771  -32.7517  -41.1915 C.3       10 UNK        -0.0876 
     60 S60        19.7124  -32.1911  -42.8485 S.3       10 UNK        -0.2414 
     61 C61        18.6473  -30.7333  -43.0562 C.3       10 UNK         0.0169 
     62 H62        14.5379  -22.9665  -44.7149 H         1 UNK         0.0903 
     63 H63        15.3312  -23.3328  -46.2479 H         1 UNK         0.0903 
     64 H64        13.5813  -23.5007  -46.0993 H         1 UNK         0.0903 
     65 H65        16.3680  -25.2879  -46.2132 H         1 UNK         0.3096 
     66 H66        17.0658  -27.2932  -45.7436 H         1 UNK         0.1121 
     67 H67        14.0829  -27.8825  -45.7870 H         1 UNK         0.0849 
     68 H68        15.1808  -29.1619  -45.3788 H         1 UNK         0.0849 
     69 H69        15.9628  -30.8189  -47.3118 H         1 UNK         0.0865 
     70 H70        16.9409  -30.1661  -48.5999 H         1 UNK         0.0865 
     71 H71        16.8752  -31.0098  -45.1000 H         1 UNK         0.1346 
     72 H72        20.5897  -29.1406  -44.0915 H         1 UNK         0.1412 
     73 H73        18.8442  -28.4941  -47.9607 H         1 UNK         0.1426 
     74 H74        21.9615  -28.2507  -46.1348 H         1 UNK         0.0716 
     75 H75        21.0770  -27.7231  -47.5367 H         1 UNK         0.0716 
     76 H76        21.9390  -27.2669  -43.9186 H         1 UNK         0.0695 
     77 H77        22.8792  -25.9572  -44.5810 H         1 UNK         0.0695 
     78 H78        21.3192  -24.3000  -43.5260 H         1 UNK         0.0983 
     79 H79        19.3508  -24.8797  -42.8245 H         1 UNK         0.3095 
     80 H80        17.8200  -27.8843  -41.6182 H         1 UNK         0.0454 
     81 H81        17.9360  -25.9637  -40.0065 H         1 UNK         0.0851 
     82 H82        17.5952  -24.8329  -41.3113 H         1 UNK         0.0851 
     83 H83        16.3898  -26.0235  -40.8356 H         1 UNK         0.0851 
     84 H84        17.9872  -26.1582  -43.9626 H         1 UNK         0.2976 
     85 H85        21.5900  -26.7553  -41.0466 H         1 UNK         0.3116 
     86 H86        22.7802  -27.0385  -39.2096 H         1 UNK         0.0646 
     87 H87        24.0978  -25.2567  -38.1306 H         1 UNK         0.0847 
     88 H88        22.5557  -24.6183  -38.6763 H         1 UNK         0.0847 
     89 H89        24.0296  -24.2640  -39.5754 H         1 UNK         0.0847 
     90 H90        24.8034  -25.5664  -41.7296 H         1 UNK         0.3040 
     91 H91        27.2416  -26.9380  -41.1977 H         1 UNK         0.1015 
     92 H92        27.0905  -24.8691  -42.5717 H         1 UNK         0.0786 
     93 H93        26.1636  -25.7241  -43.8047 H         1 UNK         0.0786 
     94 H94        27.8426  -26.1530  -43.5029 H         1 UNK         0.0786 
     95 H95        24.3420  -28.1387  -42.5631 H         1 UNK         0.3172 
     96 H96        25.3283  -30.3338  -44.1293 H         1 UNK         0.0595 
     97 H97        22.9797  -31.1942  -43.8269 H         1 UNK         0.0839 
     98 H98        23.0087  -29.5233  -44.3532 H         1 UNK         0.0839 
     99 H99        22.6574  -29.9134  -42.6675 H         1 UNK         0.0839 
    100 H100       25.0409  -29.8065  -40.6930 H         1 UNK         0.2998 
    101 H101       25.5900  -30.8452  -38.8725 H         1 UNK         0.0822 
    102 H102       27.7595  -31.2568  -39.9983 H         1 UNK         0.0787 
    103 H103       27.3761  -32.5600  -38.8844 H         1 UNK         0.0787 
    104 H104       27.1780  -32.8032  -40.6124 H         1 UNK         0.0787 
    105 H105       24.5842  -33.3092  -41.2342 H         1 UNK         0.3055 
    106 H106       23.6474  -35.2331  -39.3013 H         1 UNK         0.1106 
    107 H107       22.6874  -36.3535  -41.3239 H         1 UNK         0.0828 
    108 H108       23.0296  -34.9268  -42.2937 H         1 UNK         0.0828 
    109 H109       24.3514  -35.8680  -41.6027 H         1 UNK         0.0828 
    110 H110       22.1493  -32.4150  -40.7453 H         1 UNK         0.2931 
    111 H111       19.7390  -32.8356  -39.1351 H         1 UNK         0.0412 
    112 H112       21.3287  -29.2966  -39.1917 H         1 UNK         0.3472 
    113 H113       22.2008  -30.7960  -39.3715 H         1 UNK         0.3472 
    114 H114       18.1761  -32.3755  -40.9734 H         1 UNK         0.0970 
    115 H115       19.0658  -33.8361  -41.2358 H         1 UNK         0.0970 
    116 H116       18.9350  -29.9741  -42.3298 H         1 UNK         0.0612 
    117 H117       17.6142  -30.9995  -42.8277 H         1 UNK         0.0612 
@<TRIPOS>BOND
     1    1    2 1    
     2    1   62 1    
     3    1   63 1    
     4    1   64 1    
     5    2    3 2    
     6    2    4 am   BACKBONE|DICT|INTERRES
     7    4    5 1    
     8    4   65 1    
     9    5    6 1    
    10    5   25 1    
    11    5   66 1    
    12    6    7 1    
    13    6   67 1    
    14    6   68 1    
    15    7    8 1    
    16    8    9 1    
    17    8   69 1    
    18    8   70 1    
    19    9   10 ar   
    20    9   14 ar   
    21   10   11 ar   
    22   10   71 1    
    23   11   12 ar   
    24   11   61 1    
    25   12   13 ar   
    26   12   72 1    
    27   13   14 ar   
    28   13   15 1    
    29   14   73 1    
    30   15   16 1    
    31   15   74 1    
    32   15   75 1    
    33   16   17 1    
    34   17   18 1    
    35   17   76 1    
    36   17   77 1    
    37   18   19 1    
    38   18   27 1    
    39   18   78 1    
    40   19   20 am   BACKBONE|DICT|INTERRES
    41   19   79 1    
    42   20   21 2    
    43   20   22 1    
    44   22   23 1    
    45   22   24 1    
    46   22   80 1    
    47   23   81 1    
    48   23   82 1    
    49   23   83 1    
    50   24   25 am   BACKBONE|DICT|INTERRES
    51   24   84 1    
    52   25   26 2    
    53   27   28 2    
    54   27   29 am   BACKBONE|DICT|INTERRES
    55   29   30 1    
    56   29   85 1    
    57   30   31 1    
    58   30   32 1    
    59   30   86 1    
    60   31   87 1    
    61   31   88 1    
    62   31   89 1    
    63   32   33 2    
    64   32   34 am   BACKBONE|DICT|INTERRES
    65   34   35 1    
    66   34   90 1    
    67   35   36 1    
    68   35   37 1    
    69   35   91 1    
    70   36   92 1    
    71   36   93 1    
    72   36   94 1    
    73   37   38 2    
    74   37   39 am   BACKBONE|DICT|INTERRES
    75   39   40 1    
    76   39   95 1    
    77   40   41 1    
    78   40   42 1    
    79   40   96 1    
    80   41   97 1    
    81   41   98 1    
    82   41   99 1    
    83   42   43 2    
    84   42   44 am   BACKBONE|DICT|INTERRES
    85   44   45 1    
    86   44  100 1    
    87   45   46 1    
    88   45   47 1    
    89   45  101 1    
    90   46  102 1    
    91   46  103 1    
    92   46  104 1    
    93   47   48 2    
    94   47   49 am   BACKBONE|DICT|INTERRES
    95   49   50 1    
    96   49  105 1    
    97   50   51 1    
    98   50   52 1    
    99   50  106 1    
   100   51  107 1    
   101   51  108 1    
   102   51  109 1    
   103   52   53 2    
   104   52   54 am   BACKBONE|DICT|INTERRES
   105   54   55 1    
   106   54  110 1    
   107   55   56 1    
   108   55   59 1    
   109   55  111 1    
   110   56   57 am   BACKBONE|DICT|INTERRES
   111   56   58 2    
   112   57  112 1    
   113   57  113 1    
   114   59   60 1    
   115   59  114 1    
   116   59  115 1    
   117   60   61 1    
   118   61  116 1    
   119   61  117 1    
@<TRIPOS>SUBSTRUCTURE
     1 UNK         1 GROUP             0       ****    0 ROOT    
