@<TRIPOS>MOLECULE
3R8
117   119    1
SMALL
USER_CHARGES


@<TRIPOS>ATOM
      1 CA         14.2046  -22.5013  -47.6553 C.3       0 UNK        -0.2013 
      2 C          14.7025  -23.9388  -47.6757 C.2       0 UNK         0.4866 
      3 O          14.8785  -24.5105  -48.7524 O.2       0 UNK        -0.5176 
      4 N          14.9235  -24.5305  -46.4950 N.am      1 UNK        -0.4884 
      5 CA         15.4714  -25.8807  -46.3303 C.3       1 UNK         0.0853 
      6 C6         15.1959  -26.4223  -44.9045 C.3       10 UNK        -0.0849 
      7 S7         15.1849  -28.2454  -44.8425 S.3       10 UNK        -0.2776 
      8 C8         14.9044  -28.5385  -43.0677 C.3       10 UNK         0.0316 
      9 C9         16.2103  -28.6158  -42.2887 C.ar      10 UNK        -0.0863 
     10 C10        16.8176  -29.8550  -42.0650 C.ar      10 UNK        -0.1009 
     11 C11        17.9979  -29.9479  -41.3206 C.ar      10 UNK        -0.0712 
     12 C12        18.5718  -28.7852  -40.7967 C.ar      10 UNK        -0.0894 
     13 C13        17.9759  -27.5388  -41.0159 C.ar      10 UNK        -0.0745 
     14 C14        16.7945  -27.4609  -41.7604 C.ar      10 UNK        -0.0972 
     15 C15        18.5890  -26.2784  -40.4211 C.3       10 UNK         0.0209 
     16 S16        20.2120  -25.8843  -41.1448 S.3       10 UNK        -0.2568 
     17 C17        19.7990  -25.6004  -42.9026 C.3       10 UNK        -0.0983 
     18 CA         20.2583  -26.7633  -43.8181 C.3       3 UNK         0.0876 
     19 N          19.6448  -26.6685  -45.1399 N.am      3 UNK        -0.4424 
     20 C          19.6288  -27.6432  -46.0559 C.2       2 UNK         0.4918 
     21 O          20.1230  -28.7575  -45.8772 O.2       2 UNK        -0.4875 
     22 CA         18.8969  -27.3189  -47.3740 C.3       2 UNK         0.0481 
     23 CB         19.0194  -28.4493  -48.4125 C.3       2 UNK        -0.1831 
     24 N          17.4776  -27.0447  -47.1344 N.am      2 UNK        -0.4498 
     25 C          16.9810  -25.9000  -46.6476 C.2       1 UNK         0.5027 
     26 O          17.6760  -24.9109  -46.3935 O.2       1 UNK        -0.4969 
     27 C          21.7965  -26.8300  -43.9240 C.2       3 UNK         0.5005 
     28 O          22.3971  -26.1009  -44.7181 O.2       3 UNK        -0.5279 
     29 N          22.3922  -27.6695  -43.0742 N.am      4 UNK        -0.4463 
     30 CA         23.8229  -27.7934  -42.8265 C.3       4 UNK         0.0283 
     31 CB         24.5353  -28.5352  -43.9758 C.3       4 UNK        -0.1875 
     32 C          23.9473  -28.4988  -41.4748 C.2       4 UNK         0.4949 
     33 O          24.3552  -29.6591  -41.4146 O.2       4 UNK        -0.5039 
     34 N          23.5009  -27.8096  -40.4149 N.am      5 UNK        -0.4663 
     35 CA         23.3347  -28.3387  -39.0542 C.3       5 UNK         0.0242 
     36 CB         22.7593  -27.2389  -38.1487 C.3       5 UNK        -0.1982 
     37 C          24.6059  -28.9426  -38.4322 C.2       5 UNK         0.5017 
     38 O          24.4995  -29.8993  -37.6655 O.2       5 UNK        -0.5012 
     39 N          25.7806  -28.4271  -38.8218 N.am      6 UNK        -0.4439 
     40 CA         27.0993  -28.9559  -38.4530 C.3       6 UNK         0.0297 
     41 CB         28.1867  -27.9907  -38.9518 C.3       6 UNK        -0.2006 
     42 C          27.3709  -30.3832  -38.9723 C.2       6 UNK         0.4892 
     43 O          28.1757  -31.0950  -38.3710 O.2       6 UNK        -0.5089 
     44 N          26.6902  -30.7762  -40.0572 N.am      7 UNK        -0.4243 
     45 CA         26.7121  -32.1166  -40.6450 C.3       7 UNK         0.0196 
     46 CB         27.0632  -31.9824  -42.1383 C.3       7 UNK        -0.2007 
     47 C          25.3600  -32.8328  -40.4586 C.2       7 UNK         0.5020 
     48 O          25.1200  -33.8408  -41.1249 O.2       7 UNK        -0.5147 
     49 N          24.4800  -32.2866  -39.6007 N.am      8 UNK        -0.4734 
     50 CA         23.0968  -32.7165  -39.3426 C.3       8 UNK         0.0238 
     51 CB         23.0887  -34.0413  -38.5510 C.3       8 UNK        -0.1912 
     52 C          22.2266  -32.7768  -40.6174 C.2       8 UNK         0.5038 
     53 O          21.3703  -33.6547  -40.7255 O.2       8 UNK        -0.5046 
     54 N          22.5032  -31.8633  -41.5605 N.am      9 UNK        -0.4200 
     55 CA         21.9945  -31.7972  -42.9405 C.3       9 UNK         0.0839 
     56 C          22.2239  -33.0638  -43.8223 C.2       9 UNK         0.5513 
     57 N          23.1453  -33.9546  -43.4717 N.am      9 UNK        -0.7519 
     58 O          21.5990  -33.2209  -44.8681 O.2       9 UNK        -0.4960 
     59 C59        20.5953  -31.1277  -43.0746 C.3       10 UNK        -0.0876 
     60 S60        19.1627  -32.1436  -42.5791 S.3       10 UNK        -0.2414 
     61 C61        18.6280  -31.3090  -41.0518 C.3       10 UNK         0.0169 
     62 H62        13.2434  -22.4296  -48.1637 H         1 UNK         0.0903 
     63 H63        14.0792  -22.1268  -46.6394 H         1 UNK         0.0903 
     64 H64        14.9121  -21.8524  -48.1707 H         1 UNK         0.0903 
     65 H65        14.7976  -23.9995  -45.6448 H         1 UNK         0.3096 
     66 H66        14.9620  -26.5226  -47.0536 H         1 UNK         0.1121 
     67 H67        15.9132  -26.0263  -44.1836 H         1 UNK         0.0849 
     68 H68        14.2132  -26.0906  -44.5643 H         1 UNK         0.0849 
     69 H69        14.2590  -27.7619  -42.6541 H         1 UNK         0.0865 
     70 H70        14.3531  -29.4733  -42.9542 H         1 UNK         0.0865 
     71 H71        16.3687  -30.7541  -42.4651 H         1 UNK         0.1346 
     72 H72        19.4781  -28.8461  -40.2096 H         1 UNK         0.1412 
     73 H73        16.3213  -26.5016  -41.9166 H         1 UNK         0.1426 
     74 H74        18.7086  -26.4147  -39.3454 H         1 UNK         0.0716 
     75 H75        17.9256  -25.4214  -40.5480 H         1 UNK         0.0716 
     76 H76        18.7204  -25.4593  -42.9892 H         1 UNK         0.0695 
     77 H77        20.2463  -24.6561  -43.2191 H         1 UNK         0.0695 
     78 H78        19.8979  -27.6983  -43.3821 H         1 UNK         0.0983 
     79 H79        19.2037  -25.7881  -45.3814 H         1 UNK         0.3095 
     80 H80        19.3646  -26.4279  -47.7983 H         1 UNK         0.0454 
     81 H81        18.5648  -29.3757  -48.0592 H         1 UNK         0.0851 
     82 H82        18.5409  -28.1778  -49.3535 H         1 UNK         0.0851 
     83 H83        20.0658  -28.6638  -48.6335 H         1 UNK         0.0851 
     84 H84        16.8489  -27.8275  -47.2500 H         1 UNK         0.2976 
     85 H85        21.8110  -28.1879  -42.4302 H         1 UNK         0.3116 
     86 H86        24.2596  -26.7976  -42.7267 H         1 UNK         0.0646 
     87 H87        25.5916  -28.6820  -43.7472 H         1 UNK         0.0847 
     88 H88        24.4829  -27.9696  -44.9059 H         1 UNK         0.0847 
     89 H89        24.1041  -29.5172  -44.1618 H         1 UNK         0.0847 
     90 H90        23.1695  -26.8664  -40.5670 H         1 UNK         0.3040 
     91 H91        22.6005  -29.1453  -39.1129 H         1 UNK         0.1015 
     92 H92        21.7926  -26.8898  -38.5125 H         1 UNK         0.0786 
     93 H93        23.4258  -26.3778  -38.0853 H         1 UNK         0.0786 
     94 H94        22.6055  -27.6080  -37.1335 H         1 UNK         0.0786 
     95 H95        25.7627  -27.6442  -39.4595 H         1 UNK         0.3172 
     96 H96        27.1477  -28.9917  -37.3626 H         1 UNK         0.0595 
     97 H97        28.0626  -26.9954  -38.5248 H         1 UNK         0.0839 
     98 H98        28.1761  -27.8959  -40.0385 H         1 UNK         0.0839 
     99 H99        29.1798  -28.3410  -38.6661 H         1 UNK         0.0839 
    100 H100       26.0222  -30.1358  -40.4763 H         1 UNK         0.2998 
    101 H101       27.4718  -32.7360  -40.1643 H         1 UNK         0.0822 
    102 H102       28.0168  -31.4727  -42.2764 H         1 UNK         0.0787 
    103 H103       27.1494  -32.9604  -42.6136 H         1 UNK         0.0787 
    104 H104       26.3010  -31.4207  -42.6807 H         1 UNK         0.0787 
    105 H105       24.7748  -31.4659  -39.0838 H         1 UNK         0.3055 
    106 H106       22.6477  -31.9500  -38.7089 H         1 UNK         0.1106 
    107 H107       23.4764  -34.8690  -39.1458 H         1 UNK         0.0828 
    108 H108       23.6921  -33.9664  -37.6464 H         1 UNK         0.0828 
    109 H109       22.0774  -34.3083  -38.2420 H         1 UNK         0.0828 
    110 H110       23.2528  -31.2058  -41.3649 H         1 UNK         0.2931 
    111 H111       22.6759  -31.0829  -43.3988 H         1 UNK         0.0412 
    112 H112       23.2969  -34.7601  -44.0575 H         1 UNK         0.3472 
    113 H113       23.6898  -33.8399  -42.6241 H         1 UNK         0.3472 
    114 H114       20.4339  -30.8354  -44.1136 H         1 UNK         0.0970 
    115 H115       20.5857  -30.1926  -42.5160 H         1 UNK         0.0970 
    116 H116       17.8973  -31.9419  -40.5467 H         1 UNK         0.0612 
    117 H117       19.4792  -31.2232  -40.3747 H         1 UNK         0.0612 
@<TRIPOS>BOND
     1    1    2 1    
     2    1   62 1    
     3    1   63 1    
     4    1   64 1    
     5    2    3 2    
     6    2    4 am   BACKBONE|DICT|INTERRES
     7    4    5 1    
     8    4   65 1    
     9    5    6 1    
    10    5   25 1    
    11    5   66 1    
    12    6    7 1    
    13    6   67 1    
    14    6   68 1    
    15    7    8 1    
    16    8    9 1    
    17    8   69 1    
    18    8   70 1    
    19    9   10 ar   
    20    9   14 ar   
    21   10   11 ar   
    22   10   71 1    
    23   11   12 ar   
    24   11   61 1    
    25   12   13 ar   
    26   12   72 1    
    27   13   14 ar   
    28   13   15 1    
    29   14   73 1    
    30   15   16 1    
    31   15   74 1    
    32   15   75 1    
    33   16   17 1    
    34   17   18 1    
    35   17   76 1    
    36   17   77 1    
    37   18   19 1    
    38   18   27 1    
    39   18   78 1    
    40   19   20 am   BACKBONE|DICT|INTERRES
    41   19   79 1    
    42   20   21 2    
    43   20   22 1    
    44   22   23 1    
    45   22   24 1    
    46   22   80 1    
    47   23   81 1    
    48   23   82 1    
    49   23   83 1    
    50   24   25 am   BACKBONE|DICT|INTERRES
    51   24   84 1    
    52   25   26 2    
    53   27   28 2    
    54   27   29 am   BACKBONE|DICT|INTERRES
    55   29   30 1    
    56   29   85 1    
    57   30   31 1    
    58   30   32 1    
    59   30   86 1    
    60   31   87 1    
    61   31   88 1    
    62   31   89 1    
    63   32   33 2    
    64   32   34 am   BACKBONE|DICT|INTERRES
    65   34   35 1    
    66   34   90 1    
    67   35   36 1    
    68   35   37 1    
    69   35   91 1    
    70   36   92 1    
    71   36   93 1    
    72   36   94 1    
    73   37   38 2    
    74   37   39 am   BACKBONE|DICT|INTERRES
    75   39   40 1    
    76   39   95 1    
    77   40   41 1    
    78   40   42 1    
    79   40   96 1    
    80   41   97 1    
    81   41   98 1    
    82   41   99 1    
    83   42   43 2    
    84   42   44 am   BACKBONE|DICT|INTERRES
    85   44   45 1    
    86   44  100 1    
    87   45   46 1    
    88   45   47 1    
    89   45  101 1    
    90   46  102 1    
    91   46  103 1    
    92   46  104 1    
    93   47   48 2    
    94   47   49 am   BACKBONE|DICT|INTERRES
    95   49   50 1    
    96   49  105 1    
    97   50   51 1    
    98   50   52 1    
    99   50  106 1    
   100   51  107 1    
   101   51  108 1    
   102   51  109 1    
   103   52   53 2    
   104   52   54 am   BACKBONE|DICT|INTERRES
   105   54   55 1    
   106   54  110 1    
   107   55   56 1    
   108   55   59 1    
   109   55  111 1    
   110   56   57 am   BACKBONE|DICT|INTERRES
   111   56   58 2    
   112   57  112 1    
   113   57  113 1    
   114   59   60 1    
   115   59  114 1    
   116   59  115 1    
   117   60   61 1    
   118   61  116 1    
   119   61  117 1    
@<TRIPOS>SUBSTRUCTURE
     1 UNK         1 GROUP             0       ****    0 ROOT    
