@<TRIPOS>MOLECULE
3R8
117   119    1
SMALL
USER_CHARGES


@<TRIPOS>ATOM
      1 CA         15.7817  -22.5877  -41.5592 C.3       0 UNK        -0.2013 
      2 C          16.0795  -23.2337  -42.9041 C.2       0 UNK         0.4866 
      3 O          15.7024  -22.6890  -43.9424 O.2       0 UNK        -0.5176 
      4 N          16.7446  -24.3954  -42.8937 N.am      1 UNK        -0.4884 
      5 CA         17.1567  -25.1409  -44.0879 C.3       1 UNK         0.0853 
      6 C6         17.6458  -26.5723  -43.7338 C.3       10 UNK        -0.0849 
      7 S7         16.4130  -27.5470  -42.8025 S.3       10 UNK        -0.2776 
      8 C8         16.4771  -29.1723  -43.6290 C.3       10 UNK         0.0316 
      9 C9         17.8169  -29.8712  -43.4308 C.ar      10 UNK        -0.0863 
     10 C10        18.1701  -30.3797  -42.1762 C.ar      10 UNK        -0.1009 
     11 C11        19.3995  -31.0193  -41.9905 C.ar      10 UNK        -0.0712 
     12 C12        20.2810  -31.1424  -43.0690 C.ar      10 UNK        -0.0894 
     13 C13        19.9421  -30.6387  -44.3264 C.ar      10 UNK        -0.0745 
     14 C14        18.7006  -30.0190  -44.5046 C.ar      10 UNK        -0.0972 
     15 C15        20.9220  -30.7577  -45.4880 C.3       10 UNK         0.0209 
     16 S16        22.1098  -29.3725  -45.5322 S.3       10 UNK        -0.2568 
     17 C17        20.9722  -27.9714  -45.7776 C.3       10 UNK        -0.0983 
     18 CA         21.6091  -26.6134  -46.1699 C.3       3 UNK         0.0876 
     19 N          20.5183  -25.7223  -46.5676 N.am      3 UNK        -0.4424 
     20 C          20.5788  -24.4544  -46.9884 C.2       2 UNK         0.4918 
     21 O          21.6207  -23.8641  -47.2708 O.2       2 UNK        -0.4875 
     22 CA         19.2250  -23.7136  -47.0452 C.3       2 UNK         0.0481 
     23 CB         18.7019  -23.6630  -48.4893 C.3       2 UNK        -0.1831 
     24 N          18.1905  -24.2988  -46.1698 N.am      2 UNK        -0.4498 
     25 C          18.2743  -24.3797  -44.8312 C.2       1 UNK         0.5027 
     26 O          19.2349  -23.9510  -44.1868 O.2       1 UNK        -0.4969 
     27 C          22.4713  -26.0491  -45.0111 C.2       3 UNK         0.5005 
     28 O          23.6344  -26.4335  -44.8879 O.2       3 UNK        -0.5279 
     29 N          21.8793  -25.1851  -44.1651 N.am      4 UNK        -0.4463 
     30 CA         22.3931  -24.6844  -42.8799 C.3       4 UNK         0.0283 
     31 CB         23.7327  -23.9353  -43.0412 C.3       4 UNK        -0.1875 
     32 C          22.4455  -25.7708  -41.7854 C.2       4 UNK         0.4949 
     33 O          23.1044  -25.5777  -40.7623 O.2       4 UNK        -0.5039 
     34 N          21.7286  -26.8807  -42.0162 N.am      5 UNK        -0.4663 
     35 CA         21.5930  -28.0938  -41.2072 C.3       5 UNK         0.0242 
     36 CB         20.9125  -27.8052  -39.8543 C.3       5 UNK        -0.1982 
     37 C          22.9051  -28.8754  -41.0400 C.2       5 UNK         0.5017 
     38 O          22.9966  -30.0091  -41.5102 O.2       5 UNK        -0.5012 
     39 N          23.8772  -28.2754  -40.3372 N.am      6 UNK        -0.4439 
     40 CA         25.2297  -28.7776  -40.0418 C.3       6 UNK         0.0297 
     41 CB         26.0773  -28.7617  -41.3311 C.3       6 UNK        -0.2006 
     42 C          25.2839  -30.1564  -39.3428 C.2       6 UNK         0.4892 
     43 O          26.3330  -30.8017  -39.3638 O.2       6 UNK        -0.5089 
     44 N          24.1494  -30.5958  -38.7735 N.am      7 UNK        -0.4243 
     45 CA         23.8550  -31.9447  -38.2691 C.3       7 UNK         0.0196 
     46 CB         24.7133  -32.2700  -37.0285 C.3       7 UNK        -0.2007 
     47 C          23.9390  -33.0489  -39.3485 C.2       7 UNK         0.5020 
     48 O          24.0232  -34.2279  -39.0012 O.2       7 UNK        -0.5147 
     49 N          23.8936  -32.6727  -40.6368 N.am      8 UNK        -0.4734 
     50 CA         24.0804  -33.5762  -41.7785 C.3       8 UNK         0.0238 
     51 CB         24.3335  -32.7449  -43.0473 C.3       8 UNK        -0.1912 
     52 C          22.9178  -34.5601  -41.9903 C.2       8 UNK         0.5038 
     53 O          23.1217  -35.6102  -42.6004 O.2       8 UNK        -0.5046 
     54 N          21.7349  -34.2096  -41.4737 N.am      9 UNK        -0.4200 
     55 CA         20.5401  -35.0605  -41.4351 C.3       9 UNK         0.0839 
     56 C          20.5173  -36.0809  -40.2580 C.2       9 UNK         0.5513 
     57 N          21.4951  -36.0922  -39.3576 N.am      9 UNK        -0.7519 
     58 O          19.6006  -36.8939  -40.1710 O.2       9 UNK        -0.4960 
     59 C59        19.2419  -34.2169  -41.5404 C.3       10 UNK        -0.0876 
     60 S60        18.9359  -33.0741  -40.1425 S.3       10 UNK        -0.2414 
     61 C61        19.8008  -31.5405  -40.6181 C.3       10 UNK         0.0169 
     62 H62        16.2389  -21.5998  -41.5084 H         1 UNK         0.0903 
     63 H63        16.1631  -23.1809  -40.7283 H         1 UNK         0.0903 
     64 H64        14.7060  -22.4729  -41.4280 H         1 UNK         0.0903 
     65 H65        17.0296  -24.7994  -42.0129 H         1 UNK         0.3096 
     66 H66        16.2889  -25.2226  -44.7465 H         1 UNK         0.1121 
     67 H67        18.5571  -26.5360  -43.1328 H         1 UNK         0.0849 
     68 H68        17.9041  -27.1131  -44.6455 H         1 UNK         0.0849 
     69 H69        15.6846  -29.8033  -43.2240 H         1 UNK         0.0865 
     70 H70        16.2515  -29.0486  -44.6894 H         1 UNK         0.0865 
     71 H71        17.4908  -30.2707  -41.3416 H         1 UNK         0.1346 
     72 H72        21.2418  -31.6150  -42.9263 H         1 UNK         0.1412 
     73 H73        18.4310  -29.6348  -45.4787 H         1 UNK         0.1426 
     74 H74        21.4771  -31.6936  -45.4076 H         1 UNK         0.0716 
     75 H75        20.3839  -30.8052  -46.4359 H         1 UNK         0.0716 
     76 H76        20.3804  -27.8543  -44.8684 H         1 UNK         0.0695 
     77 H77        20.2715  -28.2768  -46.5570 H         1 UNK         0.0695 
     78 H78        22.2598  -26.7531  -47.0354 H         1 UNK         0.0983 
     79 H79        19.5922  -26.0954  -46.4296 H         1 UNK         0.3095 
     80 H80        19.4012  -22.6894  -46.7099 H         1 UNK         0.0454 
     81 H81        17.7923  -23.0668  -48.5622 H         1 UNK         0.0851 
     82 H82        18.4844  -24.6589  -48.8773 H         1 UNK         0.0851 
     83 H83        19.4372  -23.2084  -49.1549 H         1 UNK         0.0851 
     84 H84        17.3686  -24.6643  -46.6309 H         1 UNK         0.2976 
     85 H85        20.9329  -24.8775  -44.3739 H         1 UNK         0.3116 
     86 H86        21.6563  -23.9567  -42.5367 H         1 UNK         0.0646 
     87 H87        23.6797  -23.1923  -43.8368 H         1 UNK         0.0847 
     88 H88        23.9956  -23.4082  -42.1233 H         1 UNK         0.0847 
     89 H89        24.5558  -24.6135  -43.2666 H         1 UNK         0.0847 
     90 H90        21.2625  -26.9215  -42.9096 H         1 UNK         0.3040 
     91 H91        20.9224  -28.7389  -41.7734 H         1 UNK         0.1015 
     92 H92        19.9155  -27.3890  -40.0001 H         1 UNK         0.0786 
     93 H93        21.4796  -27.1019  -39.2443 H         1 UNK         0.0786 
     94 H94        20.7969  -28.7192  -39.2711 H         1 UNK         0.0786 
     95 H95        23.6934  -27.3127  -40.0651 H         1 UNK         0.3172 
     96 H96        25.6713  -28.0663  -39.3425 H         1 UNK         0.0595 
     97 H97        26.0555  -27.7818  -41.8083 H         1 UNK         0.0839 
     98 H98        25.7195  -29.4941  -42.0560 H         1 UNK         0.0839 
     99 H99        27.1222  -28.9939  -41.1217 H         1 UNK         0.0839 
    100 H100       23.3588  -29.9686  -38.8121 H         1 UNK         0.2998 
    101 H101       22.8120  -31.9243  -37.9496 H         1 UNK         0.0822 
    102 H102       24.6354  -31.4863  -36.2750 H         1 UNK         0.0787 
    103 H103       24.3887  -33.2001  -36.5602 H         1 UNK         0.0787 
    104 H104       25.7668  -32.3875  -37.2835 H         1 UNK         0.0787 
    105 H105       23.7663  -31.6878  -40.8568 H         1 UNK         0.3055 
    106 H106       24.9717  -34.1773  -41.5844 H         1 UNK         0.1106 
    107 H107       25.2138  -32.1117  -42.9355 H         1 UNK         0.0828 
    108 H108       24.5067  -33.3895  -43.9101 H         1 UNK         0.0828 
    109 H109       23.4896  -32.0987  -43.2881 H         1 UNK         0.0828 
    110 H110       21.6783  -33.3443  -40.9605 H         1 UNK         0.2931 
    111 H111       20.5612  -35.6803  -42.3336 H         1 UNK         0.0412 
    112 H112       22.2712  -35.4453  -39.4141 H         1 UNK         0.3472 
    113 H113       21.4623  -36.7663  -38.6091 H         1 UNK         0.3472 
    114 H114       19.2371  -33.6643  -42.4794 H         1 UNK         0.0970 
    115 H115       18.3793  -34.8819  -41.6114 H         1 UNK         0.0970 
    116 H116       19.5769  -30.7785  -39.8709 H         1 UNK         0.0612 
    117 H117       20.8781  -31.6982  -40.5654 H         1 UNK         0.0612 
@<TRIPOS>BOND
     1    1    2 1    
     2    1   62 1    
     3    1   63 1    
     4    1   64 1    
     5    2    3 2    
     6    2    4 am   BACKBONE|DICT|INTERRES
     7    4    5 1    
     8    4   65 1    
     9    5    6 1    
    10    5   25 1    
    11    5   66 1    
    12    6    7 1    
    13    6   67 1    
    14    6   68 1    
    15    7    8 1    
    16    8    9 1    
    17    8   69 1    
    18    8   70 1    
    19    9   10 ar   
    20    9   14 ar   
    21   10   11 ar   
    22   10   71 1    
    23   11   12 ar   
    24   11   61 1    
    25   12   13 ar   
    26   12   72 1    
    27   13   14 ar   
    28   13   15 1    
    29   14   73 1    
    30   15   16 1    
    31   15   74 1    
    32   15   75 1    
    33   16   17 1    
    34   17   18 1    
    35   17   76 1    
    36   17   77 1    
    37   18   19 1    
    38   18   27 1    
    39   18   78 1    
    40   19   20 am   BACKBONE|DICT|INTERRES
    41   19   79 1    
    42   20   21 2    
    43   20   22 1    
    44   22   23 1    
    45   22   24 1    
    46   22   80 1    
    47   23   81 1    
    48   23   82 1    
    49   23   83 1    
    50   24   25 am   BACKBONE|DICT|INTERRES
    51   24   84 1    
    52   25   26 2    
    53   27   28 2    
    54   27   29 am   BACKBONE|DICT|INTERRES
    55   29   30 1    
    56   29   85 1    
    57   30   31 1    
    58   30   32 1    
    59   30   86 1    
    60   31   87 1    
    61   31   88 1    
    62   31   89 1    
    63   32   33 2    
    64   32   34 am   BACKBONE|DICT|INTERRES
    65   34   35 1    
    66   34   90 1    
    67   35   36 1    
    68   35   37 1    
    69   35   91 1    
    70   36   92 1    
    71   36   93 1    
    72   36   94 1    
    73   37   38 2    
    74   37   39 am   BACKBONE|DICT|INTERRES
    75   39   40 1    
    76   39   95 1    
    77   40   41 1    
    78   40   42 1    
    79   40   96 1    
    80   41   97 1    
    81   41   98 1    
    82   41   99 1    
    83   42   43 2    
    84   42   44 am   BACKBONE|DICT|INTERRES
    85   44   45 1    
    86   44  100 1    
    87   45   46 1    
    88   45   47 1    
    89   45  101 1    
    90   46  102 1    
    91   46  103 1    
    92   46  104 1    
    93   47   48 2    
    94   47   49 am   BACKBONE|DICT|INTERRES
    95   49   50 1    
    96   49  105 1    
    97   50   51 1    
    98   50   52 1    
    99   50  106 1    
   100   51  107 1    
   101   51  108 1    
   102   51  109 1    
   103   52   53 2    
   104   52   54 am   BACKBONE|DICT|INTERRES
   105   54   55 1    
   106   54  110 1    
   107   55   56 1    
   108   55   59 1    
   109   55  111 1    
   110   56   57 am   BACKBONE|DICT|INTERRES
   111   56   58 2    
   112   57  112 1    
   113   57  113 1    
   114   59   60 1    
   115   59  114 1    
   116   59  115 1    
   117   60   61 1    
   118   61  116 1    
   119   61  117 1    
@<TRIPOS>SUBSTRUCTURE
     1 UNK         1 GROUP             0       ****    0 ROOT    
