@<TRIPOS>MOLECULE
3R8
117   119    1
SMALL
USER_CHARGES


@<TRIPOS>ATOM
      1 CA         17.7439  -27.0783  -42.2140 C.3       0 UNK        -0.2013 
      2 C          17.1033  -26.7027  -43.5408 C.2       0 UNK         0.4866 
      3 O          16.2145  -25.8511  -43.5744 O.2       0 UNK        -0.5176 
      4 N          17.5397  -27.3397  -44.6352 N.am      1 UNK        -0.4884 
      5 CA         17.0035  -27.1371  -45.9896 C.3       1 UNK         0.0853 
      6 C6         17.3943  -28.2906  -46.9464 C.3       10 UNK        -0.0849 
      7 S7         16.7309  -29.9041  -46.4070 S.3       10 UNK        -0.2776 
      8 C8         18.2460  -30.8699  -46.1056 C.3       10 UNK         0.0316 
      9 C9         18.9327  -30.4645  -44.8098 C.ar      10 UNK        -0.0863 
     10 C10        18.4702  -30.9634  -43.5895 C.ar      10 UNK        -0.1009 
     11 C11        19.1135  -30.6246  -42.3973 C.ar      10 UNK        -0.0712 
     12 C12        20.2166  -29.7677  -42.4309 C.ar      10 UNK        -0.0894 
     13 C13        20.6834  -29.2419  -43.6401 C.ar      10 UNK        -0.0745 
     14 C14        20.0406  -29.6121  -44.8305 C.ar      10 UNK        -0.0972 
     15 C15        21.8776  -28.2865  -43.5961 C.3       10 UNK         0.0209 
     16 S16        22.2209  -27.3863  -45.1454 S.3       10 UNK        -0.2568 
     17 C17        23.0636  -25.8728  -44.5474 C.3       10 UNK        -0.0983 
     18 CA         22.1236  -24.6458  -44.3551 C.3       3 UNK         0.0876 
     19 N          21.1303  -24.5678  -45.4267 N.am      3 UNK        -0.4424 
     20 C          20.2569  -23.5758  -45.6359 C.2       2 UNK         0.4918 
     21 O          20.3143  -22.4708  -45.0962 O.2       2 UNK        -0.4875 
     22 CA         19.0882  -23.9203  -46.5644 C.3       2 UNK         0.0481 
     23 CB         19.5470  -23.9396  -48.0369 C.3       2 UNK        -0.1831 
     24 N          18.5259  -25.2089  -46.1485 N.am      2 UNK        -0.4498 
     25 C          17.4024  -25.7766  -46.6037 C.2       1 UNK         0.5027 
     26 O          16.6875  -25.2782  -47.4744 O.2       1 UNK        -0.4969 
     27 C          21.4327  -24.6840  -42.9755 C.2       3 UNK         0.5005 
     28 O          20.3248  -25.2148  -42.8642 O.2       3 UNK        -0.5279 
     29 N          22.1066  -24.1522  -41.9461 N.am      4 UNK        -0.4463 
     30 CA         21.6413  -24.2074  -40.5560 C.3       4 UNK         0.0283 
     31 CB         22.4376  -23.2098  -39.6987 C.3       4 UNK        -0.1875 
     32 C          21.7375  -25.6267  -39.9713 C.2       4 UNK         0.4949 
     33 O          20.8120  -26.0708  -39.2921 O.2       4 UNK        -0.5039 
     34 N          22.8461  -26.3136  -40.2687 N.am      5 UNK        -0.4663 
     35 CA         23.1203  -27.6987  -39.9056 C.3       5 UNK         0.0242 
     36 CB         23.4771  -27.8057  -38.4099 C.3       5 UNK        -0.1982 
     37 C          24.2776  -28.2039  -40.7745 C.2       5 UNK         0.5017 
     38 O          25.1379  -27.3965  -41.1341 O.2       5 UNK        -0.5012 
     39 N          24.2845  -29.5121  -41.0660 N.am      6 UNK        -0.4439 
     40 CA         25.3498  -30.2530  -41.7582 C.3       6 UNK         0.0297 
     41 CB         25.7955  -29.6001  -43.0889 C.3       6 UNK        -0.2006 
     42 C          24.9345  -31.7025  -42.0426 C.2       6 UNK         0.4892 
     43 O          25.7221  -32.6149  -41.7911 O.2       6 UNK        -0.5089 
     44 N          23.7270  -31.8942  -42.5929 N.am      7 UNK        -0.4243 
     45 CA         23.2500  -33.1455  -43.2012 C.3       7 UNK         0.0196 
     46 CB         22.1268  -32.7960  -44.1973 C.3       7 UNK        -0.2007 
     47 C          22.8164  -34.2256  -42.1860 C.2       7 UNK         0.5020 
     48 O          21.7442  -34.8107  -42.3382 O.2       7 UNK        -0.5147 
     49 N          23.6464  -34.4591  -41.1584 N.am      8 UNK        -0.4734 
     50 CA         23.3870  -35.2858  -39.9646 C.3       8 UNK         0.0238 
     51 CB         23.1844  -36.7709  -40.3341 C.3       8 UNK        -0.1912 
     52 C          22.2474  -34.7260  -39.0841 C.2       8 UNK         0.5038 
     53 O          21.6277  -35.4654  -38.3177 O.2       8 UNK        -0.5046 
     54 N          22.0173  -33.4183  -39.2093 N.am      9 UNK        -0.4200 
     55 CA         21.0095  -32.5940  -38.5462 C.3       9 UNK         0.0839 
     56 C          21.3857  -31.1038  -38.7414 C.2       9 UNK         0.5513 
     57 N          20.7934  -30.2065  -37.9666 N.am      9 UNK        -0.7519 
     58 O          22.1968  -30.7547  -39.6008 O.2       9 UNK        -0.4960 
     59 C59        19.5542  -32.9095  -39.0026 C.3       10 UNK        -0.0876 
     60 S60        19.3082  -32.8600  -40.8143 S.3       10 UNK        -0.2414 
     61 C61        18.6277  -31.1937  -41.0742 C.3       10 UNK         0.0169 
     62 H62        17.1931  -27.8903  -41.7405 H         1 UNK         0.0903 
     63 H63        18.7771  -27.3925  -42.3507 H         1 UNK         0.0903 
     64 H64        17.7502  -26.2234  -41.5381 H         1 UNK         0.0903 
     65 H65        18.2367  -28.0677  -44.5416 H         1 UNK         0.3096 
     66 H66        15.9137  -27.1262  -45.9115 H         1 UNK         0.1121 
     67 H67        16.9993  -28.1039  -47.9473 H         1 UNK         0.0849 
     68 H68        18.4780  -28.3469  -47.0605 H         1 UNK         0.0849 
     69 H69        18.9240  -30.7716  -46.9549 H         1 UNK         0.0865 
     70 H70        17.9821  -31.9275  -46.0562 H         1 UNK         0.0865 
     71 H71        17.6183  -31.6294  -43.5685 H         1 UNK         0.1346 
     72 H72        20.7086  -29.5051  -41.5052 H         1 UNK         0.1412 
     73 H73        20.3946  -29.2450  -45.7828 H         1 UNK         0.1426 
     74 H74        22.7658  -28.8533  -43.3276 H         1 UNK         0.0716 
     75 H75        21.7127  -27.5666  -42.7948 H         1 UNK         0.0716 
     76 H76        23.8128  -25.6199  -45.2990 H         1 UNK         0.0695 
     77 H77        23.6338  -26.0977  -43.6433 H         1 UNK         0.0695 
     78 H78        22.7248  -23.7350  -44.3994 H         1 UNK         0.0983 
     79 H79        21.0110  -25.4307  -45.9373 H         1 UNK         0.3095 
     80 H80        18.3203  -23.1541  -46.4404 H         1 UNK         0.0454 
     81 H81        18.7057  -24.0524  -48.7200 H         1 UNK         0.0851 
     82 H82        20.2474  -24.7516  -48.2343 H         1 UNK         0.0851 
     83 H83        20.0460  -23.0063  -48.3012 H         1 UNK         0.0851 
     84 H84        18.9875  -25.6561  -45.3663 H         1 UNK         0.2976 
     85 H85        23.0063  -23.7232  -42.1114 H         1 UNK         0.3116 
     86 H86        20.5909  -23.9080  -40.5336 H         1 UNK         0.0646 
     87 H87        22.3162  -22.1891  -40.0616 H         1 UNK         0.0847 
     88 H88        23.5038  -23.4394  -39.6893 H         1 UNK         0.0847 
     89 H89        22.0930  -23.2264  -38.6637 H         1 UNK         0.0847 
     90 H90        23.5681  -25.8865  -40.8356 H         1 UNK         0.3040 
     91 H91        22.2265  -28.2843  -40.1210 H         1 UNK         0.1015 
     92 H92        22.6529  -27.4827  -37.7744 H         1 UNK         0.0786 
     93 H93        24.3477  -27.1973  -38.1619 H         1 UNK         0.0786 
     94 H94        23.7100  -28.8354  -38.1356 H         1 UNK         0.0786 
     95 H95        23.5530  -30.0839  -40.6414 H         1 UNK         0.3172 
     96 H96        26.2095  -30.2857  -41.0864 H         1 UNK         0.0595 
     97 H97        24.9546  -29.3861  -43.7474 H         1 UNK         0.0839 
     98 H98        26.4722  -30.2566  -43.6382 H         1 UNK         0.0839 
     99 H99        26.3421  -28.6719  -42.9287 H         1 UNK         0.0839 
    100 H100       23.1327  -31.0902  -42.7279 H         1 UNK         0.2998 
    101 H101       24.0737  -33.5756  -43.7751 H         1 UNK         0.0822 
    102 H102       22.4536  -32.0565  -44.9286 H         1 UNK         0.0787 
    103 H103       21.8051  -33.6772  -44.7536 H         1 UNK         0.0787 
    104 H104       21.2496  -32.3967  -43.6862 H         1 UNK         0.0787 
    105 H105       24.5195  -33.9350  -41.1595 H         1 UNK         0.3055 
    106 H106       24.2886  -35.2230  -39.3530 H         1 UNK         0.1106 
    107 H107       22.2463  -36.9347  -40.8648 H         1 UNK         0.0828 
    108 H108       23.9954  -37.1386  -40.9624 H         1 UNK         0.0828 
    109 H109       23.1606  -37.3950  -39.4399 H         1 UNK         0.0828 
    110 H110       22.5850  -32.8934  -39.8607 H         1 UNK         0.2931 
    111 H111       21.0884  -32.7978  -37.4769 H         1 UNK         0.0412 
    112 H112       20.1355  -30.4845  -37.2554 H         1 UNK         0.3472 
    113 H113       21.0151  -29.2314  -38.0846 H         1 UNK         0.3472 
    114 H114       18.8375  -32.2476  -38.5138 H         1 UNK         0.0970 
    115 H115       19.2874  -33.9127  -38.6680 H         1 UNK         0.0970 
    116 H116       18.9157  -30.5310  -40.2575 H         1 UNK         0.0612 
    117 H117       17.5380  -31.2431  -41.0602 H         1 UNK         0.0612 
@<TRIPOS>BOND
     1    1    2 1    
     2    1   62 1    
     3    1   63 1    
     4    1   64 1    
     5    2    3 2    
     6    2    4 am   BACKBONE|DICT|INTERRES
     7    4    5 1    
     8    4   65 1    
     9    5    6 1    
    10    5   25 1    
    11    5   66 1    
    12    6    7 1    
    13    6   67 1    
    14    6   68 1    
    15    7    8 1    
    16    8    9 1    
    17    8   69 1    
    18    8   70 1    
    19    9   10 ar   
    20    9   14 ar   
    21   10   11 ar   
    22   10   71 1    
    23   11   12 ar   
    24   11   61 1    
    25   12   13 ar   
    26   12   72 1    
    27   13   14 ar   
    28   13   15 1    
    29   14   73 1    
    30   15   16 1    
    31   15   74 1    
    32   15   75 1    
    33   16   17 1    
    34   17   18 1    
    35   17   76 1    
    36   17   77 1    
    37   18   19 1    
    38   18   27 1    
    39   18   78 1    
    40   19   20 am   BACKBONE|DICT|INTERRES
    41   19   79 1    
    42   20   21 2    
    43   20   22 1    
    44   22   23 1    
    45   22   24 1    
    46   22   80 1    
    47   23   81 1    
    48   23   82 1    
    49   23   83 1    
    50   24   25 am   BACKBONE|DICT|INTERRES
    51   24   84 1    
    52   25   26 2    
    53   27   28 2    
    54   27   29 am   BACKBONE|DICT|INTERRES
    55   29   30 1    
    56   29   85 1    
    57   30   31 1    
    58   30   32 1    
    59   30   86 1    
    60   31   87 1    
    61   31   88 1    
    62   31   89 1    
    63   32   33 2    
    64   32   34 am   BACKBONE|DICT|INTERRES
    65   34   35 1    
    66   34   90 1    
    67   35   36 1    
    68   35   37 1    
    69   35   91 1    
    70   36   92 1    
    71   36   93 1    
    72   36   94 1    
    73   37   38 2    
    74   37   39 am   BACKBONE|DICT|INTERRES
    75   39   40 1    
    76   39   95 1    
    77   40   41 1    
    78   40   42 1    
    79   40   96 1    
    80   41   97 1    
    81   41   98 1    
    82   41   99 1    
    83   42   43 2    
    84   42   44 am   BACKBONE|DICT|INTERRES
    85   44   45 1    
    86   44  100 1    
    87   45   46 1    
    88   45   47 1    
    89   45  101 1    
    90   46  102 1    
    91   46  103 1    
    92   46  104 1    
    93   47   48 2    
    94   47   49 am   BACKBONE|DICT|INTERRES
    95   49   50 1    
    96   49  105 1    
    97   50   51 1    
    98   50   52 1    
    99   50  106 1    
   100   51  107 1    
   101   51  108 1    
   102   51  109 1    
   103   52   53 2    
   104   52   54 am   BACKBONE|DICT|INTERRES
   105   54   55 1    
   106   54  110 1    
   107   55   56 1    
   108   55   59 1    
   109   55  111 1    
   110   56   57 am   BACKBONE|DICT|INTERRES
   111   56   58 2    
   112   57  112 1    
   113   57  113 1    
   114   59   60 1    
   115   59  114 1    
   116   59  115 1    
   117   60   61 1    
   118   61  116 1    
   119   61  117 1    
@<TRIPOS>SUBSTRUCTURE
     1 UNK         1 GROUP             0       ****    0 ROOT    
