@<TRIPOS>MOLECULE
3R8
117   119    1
SMALL
USER_CHARGES


@<TRIPOS>ATOM
      1 CA         16.2095  -23.4096  -43.2596 C.3       0 UNK        -0.2013 
      2 C          16.5910  -24.8524  -43.5534 C.2       0 UNK         0.4866 
      3 O          17.6183  -25.0977  -44.1863 O.2       0 UNK        -0.5176 
      4 N          15.7762  -25.8111  -43.0953 N.am      1 UNK        -0.4884 
      5 CA         15.9752  -27.2548  -43.2713 C.3       1 UNK         0.0853 
      6 C6         14.6370  -28.0309  -43.1623 C.3       10 UNK        -0.0849 
      7 S7         13.6454  -27.8154  -44.6773 S.3       10 UNK        -0.2776 
      8 C8         13.9612  -29.3903  -45.5457 C.3       10 UNK         0.0316 
      9 C9         15.4485  -29.6763  -45.7281 C.ar      10 UNK        -0.0863 
     10 C10        16.0652  -30.6964  -44.9951 C.ar      10 UNK        -0.1009 
     11 C11        17.4253  -30.9733  -45.1641 C.ar      10 UNK        -0.0712 
     12 C12        18.1657  -30.2265  -46.0838 C.ar      10 UNK        -0.0894 
     13 C13        17.5725  -29.1812  -46.7970 C.ar      10 UNK        -0.0745 
     14 C14        16.2093  -28.9196  -46.6248 C.ar      10 UNK        -0.0972 
     15 C15        18.3989  -28.3354  -47.7548 C.3       10 UNK         0.0209 
     16 S16        19.3987  -27.0934  -46.8697 S.3       10 UNK        -0.2568 
     17 C17        20.9558  -28.0020  -46.5799 C.3       10 UNK        -0.0983 
     18 CA         21.5642  -27.7796  -45.1708 C.3       3 UNK         0.0876 
     19 N          20.6170  -28.0795  -44.0907 N.am      3 UNK        -0.4424 
     20 C          20.7059  -27.5694  -42.8550 C.2       2 UNK         0.4918 
     21 O          21.6244  -26.8364  -42.4863 O.2       2 UNK        -0.4875 
     22 CA         19.5230  -27.8559  -41.9181 C.3       2 UNK         0.0481 
     23 CB         19.6716  -27.1977  -40.5314 C.3       2 UNK        -0.1831 
     24 N          18.3053  -27.4042  -42.5819 N.am      2 UNK        -0.4498 
     25 C          17.0557  -27.7913  -42.3117 C.2       1 UNK         0.5027 
     26 O          16.7420  -28.5143  -41.3650 O.2       1 UNK        -0.4969 
     27 C          22.8862  -28.5678  -45.0549 C.2       3 UNK         0.5005 
     28 O          23.8812  -28.1485  -45.6502 O.2       3 UNK        -0.5279 
     29 N          22.8757  -29.7117  -44.3566 N.am      4 UNK        -0.4463 
     30 CA         24.0141  -30.6269  -44.2723 C.3       4 UNK         0.0283 
     31 CB         23.5016  -32.0273  -43.8983 C.3       4 UNK        -0.1875 
     32 C          25.0601  -30.1498  -43.2545 C.2       4 UNK         0.4949 
     33 O          24.6914  -29.5932  -42.2206 O.2       4 UNK        -0.5039 
     34 N          26.3375  -30.4404  -43.5430 N.am      5 UNK        -0.4663 
     35 CA         27.5127  -30.2667  -42.6755 C.3       5 UNK         0.0242 
     36 CB         27.5814  -31.4430  -41.6739 C.3       5 UNK        -0.1982 
     37 C          27.5915  -28.8726  -42.0128 C.2       5 UNK         0.5017 
     38 O          27.4937  -27.8649  -42.7156 O.2       5 UNK        -0.5012 
     39 N          27.7503  -28.8394  -40.6839 N.am      6 UNK        -0.4439 
     40 CA         27.7166  -27.6409  -39.8489 C.3       6 UNK         0.0297 
     41 CB         28.8778  -27.7027  -38.8380 C.3       6 UNK        -0.2006 
     42 C          26.3400  -27.5425  -39.1696 C.2       6 UNK         0.4892 
     43 O          26.2455  -27.6708  -37.9476 O.2       6 UNK        -0.5089 
     44 N          25.3000  -27.3426  -39.9914 N.am      7 UNK        -0.4243 
     45 CA         23.8807  -27.2457  -39.6259 C.3       7 UNK         0.0196 
     46 CB         23.6096  -26.0008  -38.7535 C.3       7 UNK        -0.2007 
     47 C          23.3218  -28.5490  -39.0212 C.2       7 UNK         0.5020 
     48 O          22.6228  -28.5175  -38.0063 O.2       7 UNK        -0.5147 
     49 N          23.6327  -29.6734  -39.6730 N.am      8 UNK        -0.4734 
     50 CA         23.0185  -30.9789  -39.4408 C.3       8 UNK         0.0238 
     51 CB         24.0603  -32.0707  -39.7411 C.3       8 UNK        -0.1912 
     52 C          21.7823  -31.1380  -40.3434 C.2       8 UNK         0.5038 
     53 O          21.5938  -30.3454  -41.2669 O.2       8 UNK        -0.5046 
     54 N          20.9880  -32.1799  -40.0686 N.am      9 UNK        -0.4200 
     55 CA         19.6906  -32.4906  -40.6939 C.3       9 UNK         0.0839 
     56 C          18.5522  -31.5092  -40.2773 C.2       9 UNK         0.5513 
     57 N          17.3516  -31.6760  -40.8141 N.am      9 UNK        -0.7519 
     58 O          18.7247  -30.6396  -39.4254 O.2       9 UNK        -0.4960 
     59 C59        19.7943  -32.8401  -42.2189 C.3       10 UNK        -0.0876 
     60 S60        19.5246  -31.4774  -43.4154 S.3       10 UNK        -0.2414 
     61 C61        18.0907  -32.0850  -44.3628 C.3       10 UNK         0.0169 
     62 H62        16.0864  -22.8580  -44.1912 H         1 UNK         0.0903 
     63 H63        15.2779  -23.3393  -42.6983 H         1 UNK         0.0903 
     64 H64        16.9937  -22.9257  -42.6781 H         1 UNK         0.0903 
     65 H65        14.9541  -25.5491  -42.5699 H         1 UNK         0.3096 
     66 H66        16.3736  -27.4195  -44.2746 H         1 UNK         0.1121 
     67 H67        14.8003  -29.0983  -43.0043 H         1 UNK         0.0849 
     68 H68        14.0588  -27.6927  -42.3008 H         1 UNK         0.0849 
     69 H69        13.4785  -29.3579  -46.5235 H         1 UNK         0.0865 
     70 H70        13.4773  -30.2003  -44.9975 H         1 UNK         0.0865 
     71 H71        15.4843  -31.2773  -44.2917 H         1 UNK         0.1346 
     72 H72        19.2108  -30.4573  -46.2254 H         1 UNK         0.1412 
     73 H73        15.7390  -28.1179  -47.1784 H         1 UNK         0.1426 
     74 H74        19.0385  -28.9721  -48.3678 H         1 UNK         0.0716 
     75 H75        17.7425  -27.8126  -48.4521 H         1 UNK         0.0716 
     76 H76        21.6604  -27.6712  -47.3457 H         1 UNK         0.0695 
     77 H77        20.8062  -29.0652  -46.7644 H         1 UNK         0.0695 
     78 H78        21.8273  -26.7218  -45.0954 H         1 UNK         0.0983 
     79 H79        19.8246  -28.6594  -44.3277 H         1 UNK         0.3095 
     80 H80        19.4609  -28.9360  -41.7845 H         1 UNK         0.0454 
     81 H81        19.7112  -26.1104  -40.6019 H         1 UNK         0.0851 
     82 H82        18.8456  -27.4654  -39.8728 H         1 UNK         0.0851 
     83 H83        20.5876  -27.5323  -40.0436 H         1 UNK         0.0851 
     84 H84        18.4328  -26.7380  -43.3403 H         1 UNK         0.2976 
     85 H85        22.0599  -29.9445  -43.8047 H         1 UNK         0.3116 
     86 H86        24.4840  -30.6897  -45.2564 H         1 UNK         0.0646 
     87 H87        22.7913  -32.4006  -44.6361 H         1 UNK         0.0847 
     88 H88        23.0043  -32.0284  -42.9289 H         1 UNK         0.0847 
     89 H89        24.3215  -32.7447  -43.8443 H         1 UNK         0.0847 
     90 H90        26.5292  -30.8620  -44.4414 H         1 UNK         0.3040 
     91 H91        28.3875  -30.3339  -43.3243 H         1 UNK         0.1015 
     92 H92        28.5093  -31.4276  -41.1004 H         1 UNK         0.0786 
     93 H93        27.5529  -32.4006  -42.1943 H         1 UNK         0.0786 
     94 H94        26.7482  -31.4299  -40.9709 H         1 UNK         0.0786 
     95 H95        27.7787  -29.7212  -40.1918 H         1 UNK         0.3172 
     96 H96        27.8510  -26.7435  -40.4566 H         1 UNK         0.0595 
     97 H97        28.8083  -28.5774  -38.1900 H         1 UNK         0.0839 
     98 H98        28.8827  -26.8206  -38.1963 H         1 UNK         0.0839 
     99 H99        29.8420  -27.7382  -39.3453 H         1 UNK         0.0839 
    100 H100       25.4904  -27.3280  -40.9853 H         1 UNK         0.2998 
    101 H101       23.3447  -27.1049  -40.5643 H         1 UNK         0.0822 
    102 H102       23.9855  -25.0945  -39.2280 H         1 UNK         0.0787 
    103 H103       22.5390  -25.8631  -38.5968 H         1 UNK         0.0787 
    104 H104       24.0733  -26.0839  -37.7701 H         1 UNK         0.0787 
    105 H105       24.1166  -29.5813  -40.5676 H         1 UNK         0.3055 
    106 H106       22.7033  -31.0596  -38.3980 H         1 UNK         0.1106 
    107 H107       24.9551  -31.9406  -39.1323 H         1 UNK         0.0828 
    108 H108       23.6670  -33.0647  -39.5258 H         1 UNK         0.0828 
    109 H109       24.3634  -32.0610  -40.7883 H         1 UNK         0.0828 
    110 H110       21.2274  -32.7646  -39.2814 H         1 UNK         0.2931 
    111 H111       19.4134  -33.4213  -40.1970 H         1 UNK         0.0412 
    112 H112       16.6244  -31.0223  -40.5672 H         1 UNK         0.3472 
    113 H113       17.1776  -32.3942  -41.4966 H         1 UNK         0.3472 
    114 H114       19.0816  -33.6350  -42.4415 H         1 UNK         0.0970 
    115 H115       20.7682  -33.2822  -42.4323 H         1 UNK         0.0970 
    116 H116       18.4171  -32.8748  -45.0406 H         1 UNK         0.0612 
    117 H117       17.3714  -32.5363  -43.6786 H         1 UNK         0.0612 
@<TRIPOS>BOND
     1    1    2 1    
     2    1   62 1    
     3    1   63 1    
     4    1   64 1    
     5    2    3 2    
     6    2    4 am   BACKBONE|DICT|INTERRES
     7    4    5 1    
     8    4   65 1    
     9    5    6 1    
    10    5   25 1    
    11    5   66 1    
    12    6    7 1    
    13    6   67 1    
    14    6   68 1    
    15    7    8 1    
    16    8    9 1    
    17    8   69 1    
    18    8   70 1    
    19    9   10 ar   
    20    9   14 ar   
    21   10   11 ar   
    22   10   71 1    
    23   11   12 ar   
    24   11   61 1    
    25   12   13 ar   
    26   12   72 1    
    27   13   14 ar   
    28   13   15 1    
    29   14   73 1    
    30   15   16 1    
    31   15   74 1    
    32   15   75 1    
    33   16   17 1    
    34   17   18 1    
    35   17   76 1    
    36   17   77 1    
    37   18   19 1    
    38   18   27 1    
    39   18   78 1    
    40   19   20 am   BACKBONE|DICT|INTERRES
    41   19   79 1    
    42   20   21 2    
    43   20   22 1    
    44   22   23 1    
    45   22   24 1    
    46   22   80 1    
    47   23   81 1    
    48   23   82 1    
    49   23   83 1    
    50   24   25 am   BACKBONE|DICT|INTERRES
    51   24   84 1    
    52   25   26 2    
    53   27   28 2    
    54   27   29 am   BACKBONE|DICT|INTERRES
    55   29   30 1    
    56   29   85 1    
    57   30   31 1    
    58   30   32 1    
    59   30   86 1    
    60   31   87 1    
    61   31   88 1    
    62   31   89 1    
    63   32   33 2    
    64   32   34 am   BACKBONE|DICT|INTERRES
    65   34   35 1    
    66   34   90 1    
    67   35   36 1    
    68   35   37 1    
    69   35   91 1    
    70   36   92 1    
    71   36   93 1    
    72   36   94 1    
    73   37   38 2    
    74   37   39 am   BACKBONE|DICT|INTERRES
    75   39   40 1    
    76   39   95 1    
    77   40   41 1    
    78   40   42 1    
    79   40   96 1    
    80   41   97 1    
    81   41   98 1    
    82   41   99 1    
    83   42   43 2    
    84   42   44 am   BACKBONE|DICT|INTERRES
    85   44   45 1    
    86   44  100 1    
    87   45   46 1    
    88   45   47 1    
    89   45  101 1    
    90   46  102 1    
    91   46  103 1    
    92   46  104 1    
    93   47   48 2    
    94   47   49 am   BACKBONE|DICT|INTERRES
    95   49   50 1    
    96   49  105 1    
    97   50   51 1    
    98   50   52 1    
    99   50  106 1    
   100   51  107 1    
   101   51  108 1    
   102   51  109 1    
   103   52   53 2    
   104   52   54 am   BACKBONE|DICT|INTERRES
   105   54   55 1    
   106   54  110 1    
   107   55   56 1    
   108   55   59 1    
   109   55  111 1    
   110   56   57 am   BACKBONE|DICT|INTERRES
   111   56   58 2    
   112   57  112 1    
   113   57  113 1    
   114   59   60 1    
   115   59  114 1    
   116   59  115 1    
   117   60   61 1    
   118   61  116 1    
   119   61  117 1    
@<TRIPOS>SUBSTRUCTURE
     1 UNK         1 GROUP             0       ****    0 ROOT    
