@<TRIPOS>MOLECULE
3R8
117   119    1
SMALL
USER_CHARGES


@<TRIPOS>ATOM
      1 CA         16.5034  -23.3829  -40.4916 C.3       0 UNK        -0.2013 
      2 C          16.9826  -23.7091  -41.8983 C.2       0 UNK         0.4866 
      3 O          17.8057  -22.9773  -42.4478 O.2       0 UNK        -0.5176 
      4 N          16.4626  -24.7943  -42.4845 N.am      1 UNK        -0.4884 
      5 CA         16.8389  -25.3213  -43.7992 C.3       1 UNK         0.0853 
      6 C6         15.7320  -26.2280  -44.4069 C.3       10 UNK        -0.0849 
      7 S7         15.0133  -27.4407  -43.2374 S.3       10 UNK        -0.2776 
      8 C8         14.6820  -28.8610  -44.3235 C.3       10 UNK         0.0316 
      9 C9         15.9268  -29.6994  -44.5770 C.ar      10 UNK        -0.0863 
     10 C10        16.3969  -30.5675  -43.5874 C.ar      10 UNK        -0.1009 
     11 C11        17.4862  -31.4085  -43.8347 C.ar      10 UNK        -0.0712 
     12 C12        18.1183  -31.3629  -45.0825 C.ar      10 UNK        -0.0894 
     13 C13        17.6635  -30.4921  -46.0792 C.ar      10 UNK        -0.0745 
     14 C14        16.5682  -29.6619  -45.8182 C.ar      10 UNK        -0.0972 
     15 C15        18.2924  -30.5078  -47.4672 C.3       10 UNK         0.0209 
     16 S16        19.0144  -28.9037  -47.9434 S.3       10 UNK        -0.2568 
     17 C17        20.7266  -29.0377  -47.3283 C.3       10 UNK        -0.0983 
     18 CA         21.1251  -27.8140  -46.4630 C.3       3 UNK         0.0876 
     19 N          20.3573  -27.6785  -45.2183 N.am      3 UNK        -0.4424 
     20 C          20.2536  -28.5400  -44.2003 C.2       2 UNK         0.4918 
     21 O          20.8217  -29.6317  -44.1826 O.2       2 UNK        -0.4875 
     22 CA         19.4079  -28.1216  -42.9800 C.3       2 UNK         0.0481 
     23 CB         20.3097  -27.5316  -41.8810 C.3       2 UNK        -0.1831 
     24 N          18.2574  -27.2419  -43.2412 N.am      2 UNK        -0.4498 
     25 C          18.2233  -25.9965  -43.7356 C.2       1 UNK         0.5027 
     26 O          19.2167  -25.3848  -44.1310 O.2       1 UNK        -0.4969 
     27 C          22.6489  -27.7440  -46.2271 C.2       3 UNK         0.5005 
     28 O          23.3191  -26.9174  -46.8493 O.2       3 UNK        -0.5279 
     29 N          23.1660  -28.5803  -45.3206 N.am      4 UNK        -0.4463 
     30 CA         24.5237  -28.5055  -44.7859 C.3       4 UNK         0.0283 
     31 CB         24.9068  -29.8762  -44.2078 C.3       4 UNK        -0.1875 
     32 C          24.6048  -27.4373  -43.6851 C.2       4 UNK         0.4949 
     33 O          23.5907  -27.0981  -43.0714 O.2       4 UNK        -0.5039 
     34 N          25.8257  -26.9747  -43.3955 N.am      5 UNK        -0.4663 
     35 CA         26.1304  -26.0140  -42.3285 C.3       5 UNK         0.0242 
     36 CB         27.4230  -25.2604  -42.6965 C.3       5 UNK        -0.1982 
     37 C          26.2048  -26.6741  -40.9329 C.2       5 UNK         0.5017 
     38 O          27.1170  -26.3733  -40.1605 O.2       5 UNK        -0.5012 
     39 N          25.2557  -27.5669  -40.6319 N.am      6 UNK        -0.4439 
     40 CA         25.1249  -28.2934  -39.3740 C.3       6 UNK         0.0297 
     41 CB         26.1220  -29.4664  -39.3242 C.3       6 UNK        -0.2006 
     42 C          23.6877  -28.8059  -39.2638 C.2       6 UNK         0.4892 
     43 O          23.1264  -29.2513  -40.2668 O.2       6 UNK        -0.5089 
     44 N          23.1383  -28.7856  -38.0421 N.am      7 UNK        -0.4243 
     45 CA         21.7729  -29.2234  -37.7185 C.3       7 UNK         0.0196 
     46 CB         21.4527  -28.8319  -36.2664 C.3       7 UNK        -0.2007 
     47 C          21.5112  -30.7259  -37.9412 C.2       7 UNK         0.5020 
     48 O          20.3520  -31.1288  -38.0305 O.2       7 UNK        -0.5147 
     49 N          22.5828  -31.5241  -38.0403 N.am      8 UNK        -0.4734 
     50 CA         22.5466  -32.9427  -38.4049 C.3       8 UNK         0.0238 
     51 CB         23.8752  -33.5939  -37.9834 C.3       8 UNK        -0.1912 
     52 C          22.2743  -33.1905  -39.9032 C.2       8 UNK         0.5038 
     53 O          22.0396  -34.3411  -40.2752 O.2       8 UNK        -0.5046 
     54 N          22.3272  -32.1342  -40.7292 N.am      9 UNK        -0.4200 
     55 CA         22.1245  -32.1524  -42.1883 C.3       9 UNK         0.0839 
     56 C          23.2703  -32.8469  -42.9855 C.2       9 UNK         0.5513 
     57 N          24.4505  -33.0433  -42.4087 N.am      9 UNK        -0.7519 
     58 O          23.1038  -33.1890  -44.1533 O.2       9 UNK        -0.4960 
     59 C59        20.7164  -32.6536  -42.6249 C.3       10 UNK        -0.0876 
     60 S60        19.3320  -31.8119  -41.7852 S.3       10 UNK        -0.2414 
     61 C61        17.9252  -32.4091  -42.7725 C.3       10 UNK         0.0169 
     62 H62        16.0442  -22.3949  -40.4712 H         1 UNK         0.0903 
     63 H63        15.7702  -24.1047  -40.1321 H         1 UNK         0.0903 
     64 H64        17.3452  -23.3819  -39.7997 H         1 UNK         0.0903 
     65 H65        15.7899  -25.3582  -41.9823 H         1 UNK         0.3096 
     66 H66        16.9528  -24.4699  -44.4749 H         1 UNK         0.1121 
     67 H67        16.1013  -26.7373  -45.2993 H         1 UNK         0.0849 
     68 H68        14.9116  -25.5985  -44.7553 H         1 UNK         0.0849 
     69 H69        13.9223  -29.4877  -43.8539 H         1 UNK         0.0865 
     70 H70        14.2438  -28.5138  -45.2608 H         1 UNK         0.0865 
     71 H71        15.8929  -30.6088  -42.6311 H         1 UNK         0.1346 
     72 H72        18.9499  -32.0223  -45.2858 H         1 UNK         0.1412 
     73 H73        16.1997  -29.0080  -46.5970 H         1 UNK         0.1426 
     74 H74        17.5157  -30.7598  -48.1905 H         1 UNK         0.0716 
     75 H75        19.0456  -31.2924  -47.5531 H         1 UNK         0.0716 
     76 H76        21.3749  -29.1127  -48.2034 H         1 UNK         0.0695 
     77 H77        20.8585  -29.9692  -46.7764 H         1 UNK         0.0695 
     78 H78        20.8809  -26.9204  -47.0400 H         1 UNK         0.0983 
     79 H79        19.9270  -26.7691  -45.0713 H         1 UNK         0.3095 
     80 H80        18.9720  -29.0386  -42.5854 H         1 UNK         0.0454 
     81 H81        20.7817  -26.6010  -42.1977 H         1 UNK         0.0851 
     82 H82        21.1109  -28.2267  -41.6281 H         1 UNK         0.0851 
     83 H83        19.7504  -27.3355  -40.9667 H         1 UNK         0.0851 
     84 H84        17.3586  -27.6504  -43.0143 H         1 UNK         0.2976 
     85 H85        22.5034  -29.1632  -44.8136 H         1 UNK         0.3116 
     86 H86        25.2159  -28.2495  -45.5909 H         1 UNK         0.0646 
     87 H87        24.3092  -30.1164  -43.3280 H         1 UNK         0.0847 
     88 H88        25.9530  -29.8959  -43.9005 H         1 UNK         0.0847 
     89 H89        24.7691  -30.6737  -44.9383 H         1 UNK         0.0847 
     90 H90        26.6162  -27.3364  -43.9106 H         1 UNK         0.3040 
     91 H91        25.3244  -25.2780  -42.2799 H         1 UNK         0.1015 
     92 H92        28.2836  -25.9294  -42.7331 H         1 UNK         0.0786 
     93 H93        27.6454  -24.4812  -41.9660 H         1 UNK         0.0786 
     94 H94        27.3351  -24.7717  -43.6671 H         1 UNK         0.0786 
     95 H95        24.5052  -27.7259  -41.2999 H         1 UNK         0.3172 
     96 H96        25.3228  -27.6085  -38.5466 H         1 UNK         0.0595 
     97 H97        26.0208  -30.0297  -38.3958 H         1 UNK         0.0839 
     98 H98        27.1530  -29.1165  -39.3760 H         1 UNK         0.0839 
     99 H99        25.9644  -30.1624  -40.1495 H         1 UNK         0.0839 
    100 H100       23.6838  -28.4207  -37.2738 H         1 UNK         0.2998 
    101 H101       21.0900  -28.6829  -38.3779 H         1 UNK         0.0822 
    102 H102       20.4318  -29.1118  -36.0018 H         1 UNK         0.0787 
    103 H103       22.1195  -29.3264  -35.5588 H         1 UNK         0.0787 
    104 H104       21.5391  -27.7555  -36.1161 H         1 UNK         0.0787 
    105 H105       23.4945  -31.1044  -37.9331 H         1 UNK         0.3055 
    106 H106       21.7364  -33.4218  -37.8504 H         1 UNK         0.1106 
    107 H107       23.8754  -34.6620  -38.2056 H         1 UNK         0.0828 
    108 H108       24.7259  -33.1533  -38.5047 H         1 UNK         0.0828 
    109 H109       24.0461  -33.4900  -36.9118 H         1 UNK         0.0828 
    110 H110       22.5360  -31.2203  -40.3426 H         1 UNK         0.2931 
    111 H111       22.1888  -31.1040  -42.4782 H         1 UNK         0.0412 
    112 H112       25.1879  -33.4866  -42.9334 H         1 UNK         0.3472 
    113 H113       24.6063  -32.7628  -41.4547 H         1 UNK         0.3472 
    114 H114       20.6223  -33.7276  -42.4580 H         1 UNK         0.0970 
    115 H115       20.5945  -32.5010  -43.6979 H         1 UNK         0.0970 
    116 H116       17.0968  -32.6150  -42.0931 H         1 UNK         0.0612 
    117 H117       18.1705  -33.3648  -43.2379 H         1 UNK         0.0612 
@<TRIPOS>BOND
     1    1    2 1    
     2    1   62 1    
     3    1   63 1    
     4    1   64 1    
     5    2    3 2    
     6    2    4 am   BACKBONE|DICT|INTERRES
     7    4    5 1    
     8    4   65 1    
     9    5    6 1    
    10    5   25 1    
    11    5   66 1    
    12    6    7 1    
    13    6   67 1    
    14    6   68 1    
    15    7    8 1    
    16    8    9 1    
    17    8   69 1    
    18    8   70 1    
    19    9   10 ar   
    20    9   14 ar   
    21   10   11 ar   
    22   10   71 1    
    23   11   12 ar   
    24   11   61 1    
    25   12   13 ar   
    26   12   72 1    
    27   13   14 ar   
    28   13   15 1    
    29   14   73 1    
    30   15   16 1    
    31   15   74 1    
    32   15   75 1    
    33   16   17 1    
    34   17   18 1    
    35   17   76 1    
    36   17   77 1    
    37   18   19 1    
    38   18   27 1    
    39   18   78 1    
    40   19   20 am   BACKBONE|DICT|INTERRES
    41   19   79 1    
    42   20   21 2    
    43   20   22 1    
    44   22   23 1    
    45   22   24 1    
    46   22   80 1    
    47   23   81 1    
    48   23   82 1    
    49   23   83 1    
    50   24   25 am   BACKBONE|DICT|INTERRES
    51   24   84 1    
    52   25   26 2    
    53   27   28 2    
    54   27   29 am   BACKBONE|DICT|INTERRES
    55   29   30 1    
    56   29   85 1    
    57   30   31 1    
    58   30   32 1    
    59   30   86 1    
    60   31   87 1    
    61   31   88 1    
    62   31   89 1    
    63   32   33 2    
    64   32   34 am   BACKBONE|DICT|INTERRES
    65   34   35 1    
    66   34   90 1    
    67   35   36 1    
    68   35   37 1    
    69   35   91 1    
    70   36   92 1    
    71   36   93 1    
    72   36   94 1    
    73   37   38 2    
    74   37   39 am   BACKBONE|DICT|INTERRES
    75   39   40 1    
    76   39   95 1    
    77   40   41 1    
    78   40   42 1    
    79   40   96 1    
    80   41   97 1    
    81   41   98 1    
    82   41   99 1    
    83   42   43 2    
    84   42   44 am   BACKBONE|DICT|INTERRES
    85   44   45 1    
    86   44  100 1    
    87   45   46 1    
    88   45   47 1    
    89   45  101 1    
    90   46  102 1    
    91   46  103 1    
    92   46  104 1    
    93   47   48 2    
    94   47   49 am   BACKBONE|DICT|INTERRES
    95   49   50 1    
    96   49  105 1    
    97   50   51 1    
    98   50   52 1    
    99   50  106 1    
   100   51  107 1    
   101   51  108 1    
   102   51  109 1    
   103   52   53 2    
   104   52   54 am   BACKBONE|DICT|INTERRES
   105   54   55 1    
   106   54  110 1    
   107   55   56 1    
   108   55   59 1    
   109   55  111 1    
   110   56   57 am   BACKBONE|DICT|INTERRES
   111   56   58 2    
   112   57  112 1    
   113   57  113 1    
   114   59   60 1    
   115   59  114 1    
   116   59  115 1    
   117   60   61 1    
   118   61  116 1    
   119   61  117 1    
@<TRIPOS>SUBSTRUCTURE
     1 UNK         1 GROUP             0       ****    0 ROOT    
