@<TRIPOS>MOLECULE
3R8
117   119    1
SMALL
USER_CHARGES


@<TRIPOS>ATOM
      1 CA         18.1487  -27.3328  -39.5654 C.3       0 UNK        -0.2013 
      2 C          18.0684  -26.3789  -40.7474 C.2       0 UNK         0.4866 
      3 O          18.2781  -25.1771  -40.5841 O.2       0 UNK        -0.5176 
      4 N          17.7737  -26.9083  -41.9410 N.am      1 UNK        -0.4884 
      5 CA         17.6784  -26.1600  -43.2048 C.3       1 UNK         0.0853 
      6 C6         16.7826  -26.8821  -44.2488 C.3       10 UNK        -0.0849 
      7 S7         15.1790  -27.4466  -43.5693 S.3       10 UNK        -0.2776 
      8 C8         14.5587  -28.5681  -44.8689 C.3       10 UNK         0.0316 
      9 C9         15.4747  -29.7648  -45.0864 C.ar      10 UNK        -0.0863 
     10 C10        15.4486  -30.8553  -44.2108 C.ar      10 UNK        -0.1009 
     11 C11        16.3345  -31.9259  -44.3839 C.ar      10 UNK        -0.0712 
     12 C12        17.2374  -31.9077  -45.4529 C.ar      10 UNK        -0.0894 
     13 C13        17.2569  -30.8300  -46.3434 C.ar      10 UNK        -0.0745 
     14 C14        16.3648  -29.7710  -46.1625 C.ar      10 UNK        -0.0972 
     15 C15        18.2395  -30.7914  -47.5028 C.3       10 UNK         0.0209 
     16 S16        19.5047  -29.5055  -47.2596 S.3       10 UNK        -0.2568 
     17 C17        20.6423  -30.3443  -46.1133 C.3       10 UNK        -0.0983 
     18 CA         21.8233  -29.4223  -45.7296 C.3       3 UNK         0.0876 
     19 N          21.4288  -28.3735  -44.7911 N.am      3 UNK        -0.4424 
     20 C          21.8862  -27.1172  -44.8091 C.2       2 UNK         0.4918 
     21 O          22.5609  -26.6426  -45.7247 O.2       2 UNK        -0.4875 
     22 CA         21.5536  -26.2692  -43.5697 C.3       2 UNK         0.0481 
     23 CB         22.0439  -24.8086  -43.6597 C.3       2 UNK        -0.1831 
     24 N          20.1406  -26.3578  -43.1929 N.am      2 UNK        -0.4498 
     25 C          19.0684  -25.8357  -43.8094 C.2       1 UNK         0.5027 
     26 O          19.1317  -25.1327  -44.8186 O.2       1 UNK        -0.4969 
     27 C          22.9507  -30.2189  -45.0560 C.2       3 UNK         0.5005 
     28 O          22.7960  -30.6330  -43.9058 O.2       3 UNK        -0.5279 
     29 N          24.0710  -30.3958  -45.7705 N.am      4 UNK        -0.4463 
     30 CA         25.3462  -30.9891  -45.3373 C.3       4 UNK         0.0283 
     31 CB         25.1790  -32.4246  -44.7987 C.3       4 UNK        -0.1875 
     32 C          26.1323  -30.1046  -44.3514 C.2       4 UNK         0.4949 
     33 O          27.3206  -29.8732  -44.5755 O.2       4 UNK        -0.5039 
     34 N          25.4673  -29.6020  -43.3068 N.am      5 UNK        -0.4663 
     35 CA         26.0042  -28.6694  -42.3197 C.3       5 UNK         0.0242 
     36 CB         26.8516  -29.4284  -41.2806 C.3       5 UNK        -0.1982 
     37 C          24.8380  -27.9498  -41.6368 C.2       5 UNK         0.5017 
     38 O          23.7446  -28.5095  -41.5561 O.2       5 UNK        -0.5012 
     39 N          25.0982  -26.7530  -41.0939 N.am      6 UNK        -0.4439 
     40 CA         24.1282  -25.9656  -40.3185 C.3       6 UNK         0.0297 
     41 CB         24.7109  -24.5711  -40.0392 C.3       6 UNK        -0.2006 
     42 C          23.6861  -26.6413  -39.0045 C.2       6 UNK         0.4892 
     43 O          22.5861  -26.3684  -38.5248 O.2       6 UNK        -0.5089 
     44 N          24.5450  -27.5134  -38.4593 N.am      7 UNK        -0.4243 
     45 CA         24.2766  -28.3396  -37.2812 C.3       7 UNK         0.0196 
     46 CB         25.6149  -28.6498  -36.5882 C.3       7 UNK        -0.2007 
     47 C          23.5240  -29.6453  -37.6086 C.2       7 UNK         0.5020 
     48 O          23.1268  -30.3452  -36.6758 O.2       7 UNK        -0.5147 
     49 N          23.3618  -29.9732  -38.8983 N.am      8 UNK        -0.4734 
     50 CA         22.6541  -31.1602  -39.3810 C.3       8 UNK         0.0238 
     51 CB         23.4735  -31.7962  -40.5237 C.3       8 UNK        -0.1912 
     52 C          21.2113  -30.7909  -39.7799 C.2       8 UNK         0.5038 
     53 O          20.6128  -29.9102  -39.1565 O.2       8 UNK        -0.5046 
     54 N          20.6608  -31.4905  -40.7810 N.am      9 UNK        -0.4200 
     55 CA         19.3352  -31.2286  -41.3600 C.3       9 UNK         0.0839 
     56 C          19.3279  -29.9881  -42.2992 C.2       9 UNK         0.5513 
     57 N          18.2717  -29.7893  -43.0677 N.am      9 UNK        -0.7519 
     58 O          20.2522  -29.1830  -42.3424 O.2       9 UNK        -0.4960 
     59 C59        18.7399  -32.5127  -42.0127 C.3       10 UNK        -0.0876 
     60 S60        16.9340  -32.6420  -41.7599 S.3       10 UNK        -0.2414 
     61 C61        16.3172  -33.0980  -43.4132 C.3       10 UNK         0.0169 
     62 H62        17.4735  -27.0105  -38.7734 H         1 UNK         0.0903 
     63 H63        17.8828  -28.3524  -39.8442 H         1 UNK         0.0903 
     64 H64        19.1630  -27.3483  -39.1658 H         1 UNK         0.0903 
     65 H65        17.5923  -27.9012  -42.0142 H         1 UNK         0.3096 
     66 H66        17.2102  -25.1978  -42.9847 H         1 UNK         0.1121 
     67 H67        16.5765  -26.2187  -45.0911 H         1 UNK         0.0849 
     68 H68        17.3141  -27.7352  -44.6672 H         1 UNK         0.0849 
     69 H69        13.5648  -28.9191  -44.5877 H         1 UNK         0.0865 
     70 H70        14.4298  -28.0070  -45.7959 H         1 UNK         0.0865 
     71 H71        14.7584  -30.8584  -43.3778 H         1 UNK         0.1346 
     72 H72        17.9286  -32.7282  -45.5888 H         1 UNK         0.1412 
     73 H73        16.3896  -28.9332  -46.8464 H         1 UNK         0.1426 
     74 H74        18.7193  -31.7605  -47.6482 H         1 UNK         0.0716 
     75 H75        17.6946  -30.5783  -48.4235 H         1 UNK         0.0716 
     76 H76        21.0014  -31.2477  -46.6104 H         1 UNK         0.0695 
     77 H77        20.0948  -30.6733  -45.2283 H         1 UNK         0.0695 
     78 H78        22.2172  -28.9724  -46.6439 H         1 UNK         0.0983 
     79 H79        20.9783  -28.7015  -43.9379 H         1 UNK         0.3095 
     80 H80        22.0939  -26.7363  -42.7473 H         1 UNK         0.0454 
     81 H81        21.8029  -24.2525  -42.7540 H         1 UNK         0.0851 
     82 H82        21.6056  -24.2811  -44.5070 H         1 UNK         0.0851 
     83 H83        23.1269  -24.7722  -43.7827 H         1 UNK         0.0851 
     84 H84        19.9542  -26.9804  -42.4157 H         1 UNK         0.2976 
     85 H85        24.0947  -29.9986  -46.7003 H         1 UNK         0.3116 
     86 H86        25.9514  -31.0582  -46.2429 H         1 UNK         0.0646 
     87 H87        24.6440  -33.0558  -45.5080 H         1 UNK         0.0847 
     88 H88        26.1519  -32.8855  -44.6237 H         1 UNK         0.0847 
     89 H89        24.6396  -32.4513  -43.8516 H         1 UNK         0.0847 
     90 H90        24.4774  -29.8218  -43.2024 H         1 UNK         0.3040 
     91 H91        26.6212  -27.9272  -42.8314 H         1 UNK         0.1015 
     92 H92        26.2613  -30.1770  -40.7506 H         1 UNK         0.0786 
     93 H93        27.2652  -28.7487  -40.5349 H         1 UNK         0.0786 
     94 H94        27.6934  -29.9392  -41.7484 H         1 UNK         0.0786 
     95 H95        26.0241  -26.3602  -41.1939 H         1 UNK         0.3172 
     96 H96        23.2336  -25.8386  -40.9298 H         1 UNK         0.0595 
     97 H97        25.6245  -24.6247  -39.4458 H         1 UNK         0.0839 
     98 H98        23.9997  -23.9557  -39.4861 H         1 UNK         0.0839 
     99 H99        24.9395  -24.0428  -40.9650 H         1 UNK         0.0839 
    100 H100       25.4304  -27.6595  -38.9208 H         1 UNK         0.2998 
    101 H101       23.6546  -27.7737  -36.5840 H         1 UNK         0.0822 
    102 H102       26.1360  -27.7355  -36.3032 H         1 UNK         0.0787 
    103 H103       25.4592  -29.2280  -35.6763 H         1 UNK         0.0787 
    104 H104       26.2782  -29.2293  -37.2318 H         1 UNK         0.0787 
    105 H105       23.6227  -29.3041  -39.6139 H         1 UNK         0.3055 
    106 H106       22.5762  -31.8979  -38.5794 H         1 UNK         0.1106 
    107 H107       24.5043  -31.9727  -40.2167 H         1 UNK         0.0828 
    108 H108       23.0672  -32.7631  -40.8216 H         1 UNK         0.0828 
    109 H109       23.4980  -31.1589  -41.4074 H         1 UNK         0.0828 
    110 H110       21.2397  -32.1509  -41.2771 H         1 UNK         0.2931 
    111 H111       18.6917  -30.9538  -40.5221 H         1 UNK         0.0412 
    112 H112       17.5151  -30.4601  -43.0818 H         1 UNK         0.3472 
    113 H113       18.2847  -29.0485  -43.7461 H         1 UNK         0.3472 
    114 H114       18.9919  -32.5760  -43.0730 H         1 UNK         0.0970 
    115 H115       19.1721  -33.4056  -41.5583 H         1 UNK         0.0970 
    116 H116       16.8993  -33.9372  -43.7975 H         1 UNK         0.0612 
    117 H117       15.2923  -33.4582  -43.3146 H         1 UNK         0.0612 
@<TRIPOS>BOND
     1    1    2 1    
     2    1   62 1    
     3    1   63 1    
     4    1   64 1    
     5    2    3 2    
     6    2    4 am   BACKBONE|DICT|INTERRES
     7    4    5 1    
     8    4   65 1    
     9    5    6 1    
    10    5   25 1    
    11    5   66 1    
    12    6    7 1    
    13    6   67 1    
    14    6   68 1    
    15    7    8 1    
    16    8    9 1    
    17    8   69 1    
    18    8   70 1    
    19    9   10 ar   
    20    9   14 ar   
    21   10   11 ar   
    22   10   71 1    
    23   11   12 ar   
    24   11   61 1    
    25   12   13 ar   
    26   12   72 1    
    27   13   14 ar   
    28   13   15 1    
    29   14   73 1    
    30   15   16 1    
    31   15   74 1    
    32   15   75 1    
    33   16   17 1    
    34   17   18 1    
    35   17   76 1    
    36   17   77 1    
    37   18   19 1    
    38   18   27 1    
    39   18   78 1    
    40   19   20 am   BACKBONE|DICT|INTERRES
    41   19   79 1    
    42   20   21 2    
    43   20   22 1    
    44   22   23 1    
    45   22   24 1    
    46   22   80 1    
    47   23   81 1    
    48   23   82 1    
    49   23   83 1    
    50   24   25 am   BACKBONE|DICT|INTERRES
    51   24   84 1    
    52   25   26 2    
    53   27   28 2    
    54   27   29 am   BACKBONE|DICT|INTERRES
    55   29   30 1    
    56   29   85 1    
    57   30   31 1    
    58   30   32 1    
    59   30   86 1    
    60   31   87 1    
    61   31   88 1    
    62   31   89 1    
    63   32   33 2    
    64   32   34 am   BACKBONE|DICT|INTERRES
    65   34   35 1    
    66   34   90 1    
    67   35   36 1    
    68   35   37 1    
    69   35   91 1    
    70   36   92 1    
    71   36   93 1    
    72   36   94 1    
    73   37   38 2    
    74   37   39 am   BACKBONE|DICT|INTERRES
    75   39   40 1    
    76   39   95 1    
    77   40   41 1    
    78   40   42 1    
    79   40   96 1    
    80   41   97 1    
    81   41   98 1    
    82   41   99 1    
    83   42   43 2    
    84   42   44 am   BACKBONE|DICT|INTERRES
    85   44   45 1    
    86   44  100 1    
    87   45   46 1    
    88   45   47 1    
    89   45  101 1    
    90   46  102 1    
    91   46  103 1    
    92   46  104 1    
    93   47   48 2    
    94   47   49 am   BACKBONE|DICT|INTERRES
    95   49   50 1    
    96   49  105 1    
    97   50   51 1    
    98   50   52 1    
    99   50  106 1    
   100   51  107 1    
   101   51  108 1    
   102   51  109 1    
   103   52   53 2    
   104   52   54 am   BACKBONE|DICT|INTERRES
   105   54   55 1    
   106   54  110 1    
   107   55   56 1    
   108   55   59 1    
   109   55  111 1    
   110   56   57 am   BACKBONE|DICT|INTERRES
   111   56   58 2    
   112   57  112 1    
   113   57  113 1    
   114   59   60 1    
   115   59  114 1    
   116   59  115 1    
   117   60   61 1    
   118   61  116 1    
   119   61  117 1    
@<TRIPOS>SUBSTRUCTURE
     1 UNK         1 GROUP             0       ****    0 ROOT    
