@<TRIPOS>MOLECULE
3R8
117   119    1
SMALL
USER_CHARGES


@<TRIPOS>ATOM
      1 CA         16.1677  -29.6610  -40.1338 C.3       0 UNK        -0.2013 
      2 C          17.4560  -28.9348  -40.4907 C.2       0 UNK         0.4866 
      3 O          18.0779  -28.3338  -39.6161 O.2       0 UNK        -0.5176 
      4 N          17.8616  -29.0026  -41.7660 N.am      1 UNK        -0.4884 
      5 CA         19.0514  -28.3552  -42.3323 C.3       1 UNK         0.0853 
      6 C6         20.3836  -28.8357  -41.6951 C.3       10 UNK        -0.0849 
      7 S7         21.8299  -28.6315  -42.7897 S.3       10 UNK        -0.2776 
      8 C8         21.9665  -30.2787  -43.5529 C.3       10 UNK         0.0316 
      9 C9         20.8303  -30.4726  -44.5369 C.ar      10 UNK        -0.0863 
     10 C10        19.7050  -31.2112  -44.1766 C.ar      10 UNK        -0.1009 
     11 C11        18.5963  -31.2908  -45.0247 C.ar      10 UNK        -0.0712 
     12 C12        18.6199  -30.5803  -46.2340 C.ar      10 UNK        -0.0894 
     13 C13        19.7479  -29.8371  -46.6074 C.ar      10 UNK        -0.0745 
     14 C14        20.8664  -29.8309  -45.7731 C.ar      10 UNK        -0.0972 
     15 C15        19.7656  -29.0276  -47.8994 C.3       10 UNK         0.0209 
     16 S16        19.2178  -27.3002  -47.6509 S.3       10 UNK        -0.2568 
     17 C17        20.6765  -26.5122  -46.8714 C.3       10 UNK        -0.0983 
     18 CA         20.3602  -25.2234  -46.0652 C.3       3 UNK         0.0876 
     19 N          19.2211  -25.4192  -45.1662 N.am      3 UNK        -0.4424 
     20 C          18.5921  -24.4782  -44.4477 C.2       2 UNK         0.4918 
     21 O          18.8214  -23.2727  -44.5407 O.2       2 UNK        -0.4875 
     22 CA         17.5595  -24.9822  -43.4158 C.3       2 UNK         0.0481 
     23 CB         16.1328  -24.8369  -43.9677 C.3       2 UNK        -0.1831 
     24 N          17.7843  -26.3770  -43.0078 N.am      2 UNK        -0.4498 
     25 C          18.8961  -26.8241  -42.4018 C.2       1 UNK         0.5027 
     26 O          19.7874  -26.0800  -41.9901 O.2       1 UNK        -0.4969 
     27 C          21.6355  -24.7533  -45.3192 C.2       3 UNK         0.5005 
     28 O          22.4993  -24.1415  -45.9492 O.2       3 UNK        -0.5279 
     29 N          21.7374  -25.0580  -44.0111 N.am      4 UNK        -0.4463 
     30 CA         22.8428  -24.7484  -43.0922 C.3       4 UNK         0.0283 
     31 CB         22.9478  -23.2266  -42.8590 C.3       4 UNK        -0.1875 
     32 C          24.1854  -25.3891  -43.5006 C.2       4 UNK         0.4949 
     33 O          25.2406  -24.7768  -43.3277 O.2       4 UNK        -0.5039 
     34 N          24.1203  -26.6105  -44.0443 N.am      5 UNK        -0.4663 
     35 CA         25.2682  -27.3505  -44.5721 C.3       5 UNK         0.0242 
     36 CB         24.8181  -28.1205  -45.8250 C.3       5 UNK        -0.1982 
     37 C          25.9047  -28.3152  -43.5555 C.2       5 UNK         0.5017 
     38 O          27.0487  -28.7195  -43.7681 O.2       5 UNK        -0.5012 
     39 N          25.1764  -28.6927  -42.4963 N.am      6 UNK        -0.4439 
     40 CA         25.5919  -29.6768  -41.4959 C.3       6 UNK         0.0297 
     41 CB         25.4238  -31.1039  -42.0596 C.3       6 UNK        -0.2006 
     42 C          24.7840  -29.4928  -40.2033 C.2       6 UNK         0.4892 
     43 O          23.8715  -28.6647  -40.1509 O.2       6 UNK        -0.5089 
     44 N          25.1333  -30.2785  -39.1778 N.am      7 UNK        -0.4243 
     45 CA         24.4589  -30.3210  -37.8805 C.3       7 UNK         0.0196 
     46 CB         25.4443  -30.8591  -36.8256 C.3       7 UNK        -0.2007 
     47 C          23.1636  -31.1528  -37.9550 C.2       7 UNK         0.5020 
     48 O          23.1482  -32.3010  -37.5075 O.2       7 UNK        -0.5147 
     49 N          22.1120  -30.5410  -38.5175 N.am      8 UNK        -0.4734 
     50 CA         20.7488  -31.0590  -38.7191 C.3       8 UNK         0.0238 
     51 CB         20.1251  -31.5438  -37.3918 C.3       8 UNK        -0.1912 
     52 C          20.6442  -32.1307  -39.8242 C.2       8 UNK         0.5038 
     53 O          21.6553  -32.6381  -40.3143 O.2       8 UNK        -0.5046 
     54 N          19.3993  -32.4153  -40.2274 N.am      9 UNK        -0.4200 
     55 CA         19.0425  -33.4395  -41.2205 C.3       9 UNK         0.0839 
     56 C          18.9766  -34.8587  -40.5923 C.2       9 UNK         0.5513 
     57 N          19.1180  -35.8998  -41.4001 N.am      9 UNK        -0.7519 
     58 O          18.7701  -35.0263  -39.3917 O.2       9 UNK        -0.4960 
     59 C59        17.7243  -33.0567  -41.9569 C.3       10 UNK        -0.0876 
     60 S60        17.6752  -33.6265  -43.6959 S.3       10 UNK        -0.2414 
     61 C61        17.3482  -32.0852  -44.6331 C.3       10 UNK         0.0169 
     62 H62        16.3525  -30.3903  -39.3457 H         1 UNK         0.0903 
     63 H63        15.4271  -28.9494  -39.7698 H         1 UNK         0.0903 
     64 H64        15.7409  -30.1858  -40.9884 H         1 UNK         0.0903 
     65 H65        17.2892  -29.5027  -42.4318 H         1 UNK         0.3096 
     66 H66        19.0649  -28.6695  -43.3758 H         1 UNK         0.1121 
     67 H67        20.3044  -29.8922  -41.4538 H         1 UNK         0.0849 
     68 H68        20.5791  -28.3251  -40.7505 H         1 UNK         0.0849 
     69 H69        22.9230  -30.3639  -44.0695 H         1 UNK         0.0865 
     70 H70        21.9624  -31.0516  -42.7824 H         1 UNK         0.0865 
     71 H71        19.6893  -31.6882  -43.2127 H         1 UNK         0.1346 
     72 H72        17.7552  -30.5968  -46.8835 H         1 UNK         0.1412 
     73 H73        21.7503  -29.2794  -46.0563 H         1 UNK         0.1426 
     74 H74        19.1107  -29.4978  -48.6343 H         1 UNK         0.0716 
     75 H75        20.7647  -29.0332  -48.3382 H         1 UNK         0.0716 
     76 H76        21.4042  -26.2977  -47.6564 H         1 UNK         0.0695 
     77 H77        21.1515  -27.2318  -46.2103 H         1 UNK         0.0695 
     78 H78        20.0864  -24.4346  -46.7690 H         1 UNK         0.0983 
     79 H79        18.9108  -26.3739  -45.0702 H         1 UNK         0.3095 
     80 H80        17.6499  -24.3552  -42.5264 H         1 UNK         0.0454 
     81 H81        15.9284  -23.8035  -44.2513 H         1 UNK         0.0851 
     82 H82        15.3876  -25.1188  -43.2237 H         1 UNK         0.0851 
     83 H83        15.9759  -25.4539  -44.8534 H         1 UNK         0.0851 
     84 H84        17.0827  -27.0478  -43.2870 H         1 UNK         0.2976 
     85 H85        20.9615  -25.5421  -43.5710 H         1 UNK         0.3116 
     86 H86        22.5737  -25.2064  -42.1390 H         1 UNK         0.0646 
     87 H87        23.2701  -22.7006  -43.7581 H         1 UNK         0.0847 
     88 H88        21.9909  -22.8066  -42.5491 H         1 UNK         0.0847 
     89 H89        23.6694  -22.9994  -42.0735 H         1 UNK         0.0847 
     90 H90        23.2163  -27.0594  -44.1051 H         1 UNK         0.3040 
     91 H91        26.0456  -26.6453  -44.8759 H         1 UNK         0.1015 
     92 H92        25.6596  -28.6375  -46.2883 H         1 UNK         0.0786 
     93 H93        24.3996  -27.4488  -46.5751 H         1 UNK         0.0786 
     94 H94        24.0660  -28.8724  -45.5893 H         1 UNK         0.0786 
     95 H95        24.2610  -28.2869  -42.3357 H         1 UNK         0.3172 
     96 H96        26.6425  -29.5055  -41.2520 H         1 UNK         0.0595 
     97 H97        24.3750  -31.3486  -42.2271 H         1 UNK         0.0839 
     98 H98        25.8233  -31.8524  -41.3748 H         1 UNK         0.0839 
     99 H99        25.9515  -31.2299  -43.0050 H         1 UNK         0.0839 
    100 H100       25.8762  -30.9487  -39.3144 H         1 UNK         0.2998 
    101 H101       24.1869  -29.3044  -37.5866 H         1 UNK         0.0822 
    102 H102       24.9741  -30.9064  -35.8424 H         1 UNK         0.0787 
    103 H103       25.7930  -31.8637  -37.0688 H         1 UNK         0.0787 
    104 H104       26.3184  -30.2140  -36.7344 H         1 UNK         0.0787 
    105 H105       22.2966  -29.6350  -38.9346 H         1 UNK         0.3055 
    106 H106       20.1642  -30.2013  -39.0546 H         1 UNK         0.1106 
    107 H107       20.2401  -30.7999  -36.6035 H         1 UNK         0.0828 
    108 H108       19.0561  -31.7292  -37.5008 H         1 UNK         0.0828 
    109 H109       20.5756  -32.4739  -37.0442 H         1 UNK         0.0828 
    110 H110       18.6248  -32.0006  -39.7321 H         1 UNK         0.2931 
    111 H111       19.8518  -33.4689  -41.9521 H         1 UNK         0.0412 
    112 H112       19.0678  -36.8316  -41.0182 H         1 UNK         0.3472 
    113 H113       19.2512  -35.7683  -42.3913 H         1 UNK         0.3472 
    114 H114       16.8477  -33.4417  -41.4318 H         1 UNK         0.0970 
    115 H115       17.6003  -31.9739  -41.9596 H         1 UNK         0.0970 
    116 H116       16.8089  -32.3705  -45.5376 H         1 UNK         0.0612 
    117 H117       16.6712  -31.4432  -44.0689 H         1 UNK         0.0612 
@<TRIPOS>BOND
     1    1    2 1    
     2    1   62 1    
     3    1   63 1    
     4    1   64 1    
     5    2    3 2    
     6    2    4 am   BACKBONE|DICT|INTERRES
     7    4    5 1    
     8    4   65 1    
     9    5    6 1    
    10    5   25 1    
    11    5   66 1    
    12    6    7 1    
    13    6   67 1    
    14    6   68 1    
    15    7    8 1    
    16    8    9 1    
    17    8   69 1    
    18    8   70 1    
    19    9   10 ar   
    20    9   14 ar   
    21   10   11 ar   
    22   10   71 1    
    23   11   12 ar   
    24   11   61 1    
    25   12   13 ar   
    26   12   72 1    
    27   13   14 ar   
    28   13   15 1    
    29   14   73 1    
    30   15   16 1    
    31   15   74 1    
    32   15   75 1    
    33   16   17 1    
    34   17   18 1    
    35   17   76 1    
    36   17   77 1    
    37   18   19 1    
    38   18   27 1    
    39   18   78 1    
    40   19   20 am   BACKBONE|DICT|INTERRES
    41   19   79 1    
    42   20   21 2    
    43   20   22 1    
    44   22   23 1    
    45   22   24 1    
    46   22   80 1    
    47   23   81 1    
    48   23   82 1    
    49   23   83 1    
    50   24   25 am   BACKBONE|DICT|INTERRES
    51   24   84 1    
    52   25   26 2    
    53   27   28 2    
    54   27   29 am   BACKBONE|DICT|INTERRES
    55   29   30 1    
    56   29   85 1    
    57   30   31 1    
    58   30   32 1    
    59   30   86 1    
    60   31   87 1    
    61   31   88 1    
    62   31   89 1    
    63   32   33 2    
    64   32   34 am   BACKBONE|DICT|INTERRES
    65   34   35 1    
    66   34   90 1    
    67   35   36 1    
    68   35   37 1    
    69   35   91 1    
    70   36   92 1    
    71   36   93 1    
    72   36   94 1    
    73   37   38 2    
    74   37   39 am   BACKBONE|DICT|INTERRES
    75   39   40 1    
    76   39   95 1    
    77   40   41 1    
    78   40   42 1    
    79   40   96 1    
    80   41   97 1    
    81   41   98 1    
    82   41   99 1    
    83   42   43 2    
    84   42   44 am   BACKBONE|DICT|INTERRES
    85   44   45 1    
    86   44  100 1    
    87   45   46 1    
    88   45   47 1    
    89   45  101 1    
    90   46  102 1    
    91   46  103 1    
    92   46  104 1    
    93   47   48 2    
    94   47   49 am   BACKBONE|DICT|INTERRES
    95   49   50 1    
    96   49  105 1    
    97   50   51 1    
    98   50   52 1    
    99   50  106 1    
   100   51  107 1    
   101   51  108 1    
   102   51  109 1    
   103   52   53 2    
   104   52   54 am   BACKBONE|DICT|INTERRES
   105   54   55 1    
   106   54  110 1    
   107   55   56 1    
   108   55   59 1    
   109   55  111 1    
   110   56   57 am   BACKBONE|DICT|INTERRES
   111   56   58 2    
   112   57  112 1    
   113   57  113 1    
   114   59   60 1    
   115   59  114 1    
   116   59  115 1    
   117   60   61 1    
   118   61  116 1    
   119   61  117 1    
@<TRIPOS>SUBSTRUCTURE
     1 UNK         1 GROUP             0       ****    0 ROOT    
