@<TRIPOS>MOLECULE
3R8
117   119    1
SMALL
USER_CHARGES


@<TRIPOS>ATOM
      1 CA         15.0060  -24.4739  -48.3403 C.3       0 UNK        -0.2013 
      2 C          16.3693  -25.1116  -48.5627 C.2       0 UNK         0.4866 
      3 O          16.7225  -25.4231  -49.7006 O.2       0 UNK        -0.5176 
      4 N          17.1388  -25.3028  -47.4879 N.am      1 UNK        -0.4884 
      5 CA         18.4817  -25.8818  -47.4913 C.3       1 UNK         0.0853 
      6 C6         18.4782  -27.4257  -47.6878 C.3       10 UNK        -0.0849 
      7 S7         17.5656  -28.3496  -46.4019 S.3       10 UNK        -0.2776 
      8 C8         18.9521  -28.9873  -45.4049 C.3       10 UNK         0.0316 
      9 C9         18.5480  -29.3590  -43.9849 C.ar      10 UNK        -0.0863 
     10 C10        19.0132  -30.5492  -43.4227 C.ar      10 UNK        -0.1009 
     11 C11        18.7025  -30.8904  -42.1031 C.ar      10 UNK        -0.0712 
     12 C12        17.9104  -30.0245  -41.3416 C.ar      10 UNK        -0.0894 
     13 C13        17.4405  -28.8260  -41.8902 C.ar      10 UNK        -0.0745 
     14 C14        17.7653  -28.4983  -43.2091 C.ar      10 UNK        -0.0972 
     15 C15        16.5856  -27.8806  -41.0596 C.3       10 UNK         0.0209 
     16 S16        17.6004  -26.8082  -39.9943 S.3       10 UNK        -0.2568 
     17 C17        18.3965  -25.6863  -41.2005 C.3       10 UNK        -0.0983 
     18 CA         19.8342  -26.1264  -41.5961 C.3       3 UNK         0.0876 
     19 N          20.2043  -25.6012  -42.9135 N.am      3 UNK        -0.4424 
     20 C          21.0942  -26.1531  -43.7465 C.2       2 UNK         0.4918 
     21 O          21.6473  -27.2358  -43.5424 O.2       2 UNK        -0.4875 
     22 CA         21.4097  -25.3567  -45.0290 C.3       2 UNK         0.0481 
     23 CB         22.8672  -25.5550  -45.4832 C.3       2 UNK        -0.1831 
     24 N          20.5221  -25.7118  -46.1385 N.am      2 UNK        -0.4498 
     25 C          19.2167  -25.4185  -46.2171 C.2       1 UNK         0.5027 
     26 O          18.6003  -24.7980  -45.3441 O.2       1 UNK        -0.4969 
     27 C          20.9150  -25.7993  -40.5347 C.2       3 UNK         0.5005 
     28 O          22.0767  -25.5701  -40.8782 O.2       3 UNK        -0.5279 
     29 N          20.5351  -25.8380  -39.2484 N.am      4 UNK        -0.4463 
     30 CA         21.3980  -25.6850  -38.0654 C.3       4 UNK         0.0283 
     31 CB         21.9342  -24.2416  -37.9579 C.3       4 UNK        -0.1875 
     32 C          22.5186  -26.7453  -38.0086 C.2       4 UNK         0.4949 
     33 O          23.6233  -26.4583  -37.5464 O.2       4 UNK        -0.5039 
     34 N          22.2008  -27.9478  -38.5127 N.am      5 UNK        -0.4663 
     35 CA         23.0678  -29.1188  -38.6770 C.3       5 UNK         0.0242 
     36 CB         23.5459  -29.6510  -37.3088 C.3       5 UNK        -0.1982 
     37 C          24.2304  -28.9260  -39.6741 C.2       5 UNK         0.5017 
     38 O          25.1617  -29.7308  -39.6509 O.2       5 UNK        -0.5012 
     39 N          24.1596  -27.9170  -40.5593 N.am      6 UNK        -0.4439 
     40 CA         25.1614  -27.6793  -41.6065 C.3       6 UNK         0.0297 
     41 CB         24.9685  -26.2856  -42.2197 C.3       6 UNK        -0.2006 
     42 C          25.1537  -28.7739  -42.6886 C.2       6 UNK         0.4892 
     43 O          26.2157  -29.3015  -43.0201 O.2       6 UNK        -0.5089 
     44 N          23.9575  -29.1328  -43.1792 N.am      7 UNK        -0.4243 
     45 CA         23.7369  -30.2831  -44.0669 C.3       7 UNK         0.0196 
     46 CB         22.4223  -30.0789  -44.8327 C.3       7 UNK        -0.2007 
     47 C          23.7359  -31.6366  -43.3250 C.2       7 UNK         0.5020 
     48 O          23.7728  -32.6804  -43.9768 O.2       7 UNK        -0.5147 
     49 N          23.6949  -31.5965  -41.9856 N.am      8 UNK        -0.4734 
     50 CA         23.8384  -32.6802  -41.0007 C.3       8 UNK         0.0238 
     51 CB         25.2227  -33.3466  -41.1174 C.3       8 UNK        -0.1912 
     52 C          22.7252  -33.7430  -40.9712 C.2       8 UNK         0.5038 
     53 O          22.3783  -34.1914  -39.8782 O.2       8 UNK        -0.5046 
     54 N          22.1981  -34.1373  -42.1375 N.am      9 UNK        -0.4200 
     55 CA         21.2243  -35.2317  -42.3249 C.3       9 UNK         0.0839 
     56 C          21.7812  -36.6468  -41.9680 C.2       9 UNK         0.5513 
     57 N          23.0932  -36.8519  -41.9441 N.am      9 UNK        -0.7519 
     58 O          21.0207  -37.5850  -41.7421 O.2       9 UNK        -0.4960 
     59 C59        19.8368  -34.9393  -41.6742 C.3       10 UNK        -0.0876 
     60 S60        18.9234  -33.6245  -42.5438 S.3       10 UNK        -0.2414 
     61 C61        19.2574  -32.1731  -41.4954 C.3       10 UNK         0.0169 
     62 H62        14.8262  -24.2533  -47.2882 H         1 UNK         0.0903 
     63 H63        14.9313  -23.5420  -48.9002 H         1 UNK         0.0903 
     64 H64        14.2185  -25.1434  -48.6852 H         1 UNK         0.0903 
     65 H65        16.8427  -24.9893  -46.5707 H         1 UNK         0.3096 
     66 H66        19.0257  -25.4358  -48.3275 H         1 UNK         0.1121 
     67 H67        19.4970  -27.8089  -47.7657 H         1 UNK         0.0849 
     68 H68        18.0178  -27.6648  -48.6475 H         1 UNK         0.0849 
     69 H69        19.3816  -29.8458  -45.9237 H         1 UNK         0.0865 
     70 H70        19.7436  -28.2434  -45.3404 H         1 UNK         0.0865 
     71 H71        19.6309  -31.2147  -44.0098 H         1 UNK         0.1346 
     72 H72        17.6685  -30.2737  -40.3173 H         1 UNK         0.1412 
     73 H73        17.4181  -27.5648  -43.6309 H         1 UNK         0.1426 
     74 H74        15.9090  -28.4607  -40.4302 H         1 UNK         0.0716 
     75 H75        15.9503  -27.2674  -41.7007 H         1 UNK         0.0716 
     76 H76        18.3946  -24.6711  -40.7989 H         1 UNK         0.0695 
     77 H77        17.7598  -25.6447  -42.0858 H         1 UNK         0.0695 
     78 H78        19.8348  -27.2151  -41.6823 H         1 UNK         0.0983 
     79 H79        19.7753  -24.7283  -43.1860 H         1 UNK         0.3095 
     80 H80        21.2756  -24.2945  -44.8134 H         1 UNK         0.0454 
     81 H81        23.0947  -26.6022  -45.6876 H         1 UNK         0.0851 
     82 H82        23.5623  -25.2120  -44.7177 H         1 UNK         0.0851 
     83 H83        23.0842  -24.9830  -46.3853 H         1 UNK         0.0851 
     84 H84        20.9487  -26.2292  -46.8934 H         1 UNK         0.2976 
     85 H85        19.5602  -26.0476  -39.0635 H         1 UNK         0.3116 
     86 H86        20.7638  -25.8670  -37.1966 H         1 UNK         0.0646 
     87 H87        22.6342  -24.0079  -38.7607 H         1 UNK         0.0847 
     88 H88        22.4610  -24.0895  -37.0152 H         1 UNK         0.0847 
     89 H89        21.1246  -23.5131  -37.9960 H         1 UNK         0.0847 
     90 H90        21.2575  -28.0589  -38.8582 H         1 UNK         0.3040 
     91 H91        22.4364  -29.8921  -39.1177 H         1 UNK         0.1015 
     92 H92        24.2533  -28.9709  -36.8337 H         1 UNK         0.0786 
     93 H93        24.0460  -30.6147  -37.4144 H         1 UNK         0.0786 
     94 H94        22.7097  -29.7975  -36.6251 H         1 UNK         0.0786 
     95 H95        23.3818  -27.2668  -40.5158 H         1 UNK         0.3172 
     96 H96        26.1457  -27.6942  -41.1331 H         1 UNK         0.0595 
     97 H97        25.7014  -26.0954  -43.0049 H         1 UNK         0.0839 
     98 H98        25.0835  -25.5035  -41.4689 H         1 UNK         0.0839 
     99 H99        23.9791  -26.1774  -42.6596 H         1 UNK         0.0839 
    100 H100       23.1391  -28.5829  -42.9372 H         1 UNK         0.2998 
    101 H101       24.5482  -30.3227  -44.7969 H         1 UNK         0.0822 
    102 H102       22.1892  -30.9360  -45.4659 H         1 UNK         0.0787 
    103 H103       21.5907  -29.9352  -44.1458 H         1 UNK         0.0787 
    104 H104       22.4738  -29.2018  -45.4779 H         1 UNK         0.0787 
    105 H105       23.6593  -30.6711  -41.5844 H         1 UNK         0.3055 
    106 H106       23.8042  -32.1901  -40.0261 H         1 UNK         0.1106 
    107 H107       25.3646  -34.0934  -40.3349 H         1 UNK         0.0828 
    108 H108       25.3556  -33.8504  -42.0752 H         1 UNK         0.0828 
    109 H109       26.0219  -32.6127  -41.0112 H         1 UNK         0.0828 
    110 H110       22.5861  -33.7258  -42.9825 H         1 UNK         0.2931 
    111 H111       21.0659  -35.2850  -43.4026 H         1 UNK         0.0412 
    112 H112       23.7325  -36.1019  -42.1517 H         1 UNK         0.3472 
    113 H113       23.4450  -37.7707  -41.7244 H         1 UNK         0.3472 
    114 H114       19.9308  -34.7011  -40.6143 H         1 UNK         0.0970 
    115 H115       19.1954  -35.8210  -41.7180 H         1 UNK         0.0970 
    116 H116       18.8369  -32.3486  -40.5040 H         1 UNK         0.0612 
    117 H117       20.3332  -32.0555  -41.3669 H         1 UNK         0.0612 
@<TRIPOS>BOND
     1    1    2 1    
     2    1   62 1    
     3    1   63 1    
     4    1   64 1    
     5    2    3 2    
     6    2    4 am   BACKBONE|DICT|INTERRES
     7    4    5 1    
     8    4   65 1    
     9    5    6 1    
    10    5   25 1    
    11    5   66 1    
    12    6    7 1    
    13    6   67 1    
    14    6   68 1    
    15    7    8 1    
    16    8    9 1    
    17    8   69 1    
    18    8   70 1    
    19    9   10 ar   
    20    9   14 ar   
    21   10   11 ar   
    22   10   71 1    
    23   11   12 ar   
    24   11   61 1    
    25   12   13 ar   
    26   12   72 1    
    27   13   14 ar   
    28   13   15 1    
    29   14   73 1    
    30   15   16 1    
    31   15   74 1    
    32   15   75 1    
    33   16   17 1    
    34   17   18 1    
    35   17   76 1    
    36   17   77 1    
    37   18   19 1    
    38   18   27 1    
    39   18   78 1    
    40   19   20 am   BACKBONE|DICT|INTERRES
    41   19   79 1    
    42   20   21 2    
    43   20   22 1    
    44   22   23 1    
    45   22   24 1    
    46   22   80 1    
    47   23   81 1    
    48   23   82 1    
    49   23   83 1    
    50   24   25 am   BACKBONE|DICT|INTERRES
    51   24   84 1    
    52   25   26 2    
    53   27   28 2    
    54   27   29 am   BACKBONE|DICT|INTERRES
    55   29   30 1    
    56   29   85 1    
    57   30   31 1    
    58   30   32 1    
    59   30   86 1    
    60   31   87 1    
    61   31   88 1    
    62   31   89 1    
    63   32   33 2    
    64   32   34 am   BACKBONE|DICT|INTERRES
    65   34   35 1    
    66   34   90 1    
    67   35   36 1    
    68   35   37 1    
    69   35   91 1    
    70   36   92 1    
    71   36   93 1    
    72   36   94 1    
    73   37   38 2    
    74   37   39 am   BACKBONE|DICT|INTERRES
    75   39   40 1    
    76   39   95 1    
    77   40   41 1    
    78   40   42 1    
    79   40   96 1    
    80   41   97 1    
    81   41   98 1    
    82   41   99 1    
    83   42   43 2    
    84   42   44 am   BACKBONE|DICT|INTERRES
    85   44   45 1    
    86   44  100 1    
    87   45   46 1    
    88   45   47 1    
    89   45  101 1    
    90   46  102 1    
    91   46  103 1    
    92   46  104 1    
    93   47   48 2    
    94   47   49 am   BACKBONE|DICT|INTERRES
    95   49   50 1    
    96   49  105 1    
    97   50   51 1    
    98   50   52 1    
    99   50  106 1    
   100   51  107 1    
   101   51  108 1    
   102   51  109 1    
   103   52   53 2    
   104   52   54 am   BACKBONE|DICT|INTERRES
   105   54   55 1    
   106   54  110 1    
   107   55   56 1    
   108   55   59 1    
   109   55  111 1    
   110   56   57 am   BACKBONE|DICT|INTERRES
   111   56   58 2    
   112   57  112 1    
   113   57  113 1    
   114   59   60 1    
   115   59  114 1    
   116   59  115 1    
   117   60   61 1    
   118   61  116 1    
   119   61  117 1    
@<TRIPOS>SUBSTRUCTURE
     1 UNK         1 GROUP             0       ****    0 ROOT    
