@<TRIPOS>MOLECULE
3R8
117   119    1
SMALL
USER_CHARGES


@<TRIPOS>ATOM
      1 CA         12.4945  -23.3407  -44.3111 C.3       0 UNK        -0.2013 
      2 C          13.5622  -24.1026  -45.0820 C.2       0 UNK         0.4866 
      3 O          13.8110  -23.7972  -46.2485 O.2       0 UNK        -0.5176 
      4 N          14.1943  -25.0902  -44.4411 N.am      1 UNK        -0.4884 
      5 CA         15.2634  -25.9150  -44.9993 C.3       1 UNK         0.0853 
      6 C6         14.6970  -27.1262  -45.7837 C.3       10 UNK        -0.0849 
      7 S7         15.8540  -27.7609  -47.0414 S.3       10 UNK        -0.2776 
      8 C8         15.9426  -29.5301  -46.6170 C.3       10 UNK         0.0316 
      9 C9         17.0428  -29.8105  -45.6055 C.ar      10 UNK        -0.0863 
     10 C10        16.7577  -29.8992  -44.2396 C.ar      10 UNK        -0.1009 
     11 C11        17.7765  -30.1620  -43.3169 C.ar      10 UNK        -0.0712 
     12 C12        19.0861  -30.3425  -43.7742 C.ar      10 UNK        -0.0894 
     13 C13        19.3784  -30.2754  -45.1388 C.ar      10 UNK        -0.0745 
     14 C14        18.3541  -30.0016  -46.0477 C.ar      10 UNK        -0.0972 
     15 C15        20.7906  -30.5221  -45.6447 C.3       10 UNK         0.0209 
     16 S16        21.7662  -28.9878  -45.7073 S.3       10 UNK        -0.2568 
     17 C17        22.4661  -28.9152  -44.0267 C.3       10 UNK        -0.0983 
     18 CA         22.1387  -27.6027  -43.2652 C.3       3 UNK         0.0876 
     19 N          20.7137  -27.4557  -42.9583 N.am      3 UNK        -0.4424 
     20 C          19.8515  -26.6542  -43.5912 C.2       2 UNK         0.4918 
     21 O          20.1205  -25.9742  -44.5840 O.2       2 UNK        -0.4875 
     22 CA         18.4649  -26.5441  -42.9497 C.3       2 UNK         0.0481 
     23 CB         18.4725  -25.4766  -41.8368 C.3       2 UNK        -0.1831 
     24 N          17.4751  -26.2153  -43.9715 N.am      2 UNK        -0.4498 
     25 C          16.1519  -26.3385  -43.8205 C.2       1 UNK         0.5027 
     26 O          15.6129  -26.7501  -42.7887 O.2       1 UNK        -0.4969 
     27 C          22.9138  -27.5079  -41.9355 C.2       3 UNK         0.5005 
     28 O          23.8011  -28.3242  -41.6782 O.2       3 UNK        -0.5279 
     29 N          22.5414  -26.5397  -41.0834 N.am      4 UNK        -0.4463 
     30 CA         22.9982  -26.3981  -39.6934 C.3       4 UNK         0.0283 
     31 CB         22.2604  -25.2203  -39.0364 C.3       4 UNK        -0.1875 
     32 C          24.5193  -26.2442  -39.5123 C.2       4 UNK         0.4949 
     33 O          25.0425  -26.6414  -38.4717 O.2       4 UNK        -0.5039 
     34 N          25.2022  -25.6949  -40.5255 N.am      5 UNK        -0.4663 
     35 CA         26.6611  -25.5616  -40.5624 C.3       5 UNK         0.0242 
     36 CB         27.0466  -24.5642  -41.6670 C.3       5 UNK        -0.1982 
     37 C          27.3932  -26.9010  -40.7703 C.2       5 UNK         0.5017 
     38 O          28.5437  -27.0222  -40.3480 O.2       5 UNK        -0.5012 
     39 N          26.7287  -27.8666  -41.4200 N.am      6 UNK        -0.4439 
     40 CA         27.2636  -29.1978  -41.7170 C.3       6 UNK         0.0297 
     41 CB         26.9403  -29.5469  -43.1798 C.3       6 UNK        -0.2006 
     42 C          26.6945  -30.2799  -40.7854 C.2       6 UNK         0.4892 
     43 O          27.3590  -31.2967  -40.5844 O.2       6 UNK        -0.5089 
     44 N          25.4747  -30.0587  -40.2689 N.am      7 UNK        -0.4243 
     45 CA         24.6318  -31.0037  -39.5250 C.3       7 UNK         0.0196 
     46 CB         25.2782  -31.4057  -38.1822 C.3       7 UNK        -0.2007 
     47 C          24.2195  -32.2096  -40.3938 C.2       7 UNK         0.5020 
     48 O          24.1487  -33.3368  -39.9036 O.2       7 UNK        -0.5147 
     49 N          23.9583  -31.9441  -41.6817 N.am      8 UNK        -0.4734 
     50 CA         23.6711  -32.9497  -42.7117 C.3       8 UNK         0.0238 
     51 CB         24.2045  -32.4365  -44.0619 C.3       8 UNK        -0.1912 
     52 C          22.1842  -33.3463  -42.8093 C.2       8 UNK         0.5038 
     53 O          21.8267  -34.0943  -43.7204 O.2       8 UNK        -0.5046 
     54 N          21.3434  -32.8342  -41.9009 N.am      9 UNK        -0.4200 
     55 CA         19.9122  -33.1548  -41.7946 C.3       9 UNK         0.0839 
     56 C          19.6541  -34.6477  -41.4455 C.2       9 UNK         0.5513 
     57 N          18.6240  -35.2533  -42.0197 N.am      9 UNK        -0.7519 
     58 O          20.3562  -35.2449  -40.6321 O.2       9 UNK        -0.4960 
     59 C59        19.2119  -32.2020  -40.7882 C.3       10 UNK        -0.0876 
     60 S60        17.4501  -31.9241  -41.1857 S.3       10 UNK        -0.2414 
     61 C61        17.4610  -30.2191  -41.8277 C.3       10 UNK         0.0169 
     62 H62        12.3757  -23.7193  -43.2959 H         1 UNK         0.0903 
     63 H63        12.7566  -22.2848  -44.2507 H         1 UNK         0.0903 
     64 H64        11.5337  -23.4249  -44.8184 H         1 UNK         0.0903 
     65 H65        13.9866  -25.2934  -43.4704 H         1 UNK         0.3096 
     66 H66        15.8578  -25.2919  -45.6723 H         1 UNK         0.1121 
     67 H67        14.3755  -27.9205  -45.1074 H         1 UNK         0.0849 
     68 H68        13.7979  -26.8288  -46.3258 H         1 UNK         0.0849 
     69 H69        14.9776  -29.8859  -46.2526 H         1 UNK         0.0865 
     70 H70        16.1388  -30.0953  -47.5295 H         1 UNK         0.0865 
     71 H71        15.7440  -29.7522  -43.8926 H         1 UNK         0.1346 
     72 H72        19.8801  -30.5405  -43.0705 H         1 UNK         0.1412 
     73 H73        18.5775  -29.9398  -47.1043 H         1 UNK         0.1426 
     74 H74        21.2917  -31.2717  -45.0312 H         1 UNK         0.0716 
     75 H75        20.7503  -30.9441  -46.6500 H         1 UNK         0.0716 
     76 H76        22.1415  -29.7795  -43.4461 H         1 UNK         0.0695 
     77 H77        23.5454  -29.0218  -44.1485 H         1 UNK         0.0695 
     78 H78        22.4768  -26.7603  -43.8728 H         1 UNK         0.0983 
     79 H79        20.3992  -27.9504  -42.1361 H         1 UNK         0.3095 
     80 H80        18.2074  -27.5096  -42.5150 H         1 UNK         0.0454 
     81 H81        18.6995  -24.4860  -42.2328 H         1 UNK         0.0851 
     82 H82        17.5108  -25.4190  -41.3272 H         1 UNK         0.0851 
     83 H83        19.2195  -25.7038  -41.0756 H         1 UNK         0.0851 
     84 H84        17.8674  -25.9064  -44.8527 H         1 UNK         0.2976 
     85 H85        21.8279  -25.8927  -41.3867 H         1 UNK         0.3116 
     86 H86        22.7097  -27.3114  -39.1687 H         1 UNK         0.0646 
     87 H87        22.5597  -25.1046  -37.9935 H         1 UNK         0.0847 
     88 H88        21.1808  -25.3711  -39.0439 H         1 UNK         0.0847 
     89 H89        22.4734  -24.2775  -39.5416 H         1 UNK         0.0847 
     90 H90        24.6886  -25.3801  -41.3358 H         1 UNK         0.3040 
     91 H91        26.9927  -25.1556  -39.6038 H         1 UNK         0.1015 
     92 H92        26.5977  -23.5860  -41.4933 H         1 UNK         0.0786 
     93 H93        26.7318  -24.9096  -42.6526 H         1 UNK         0.0786 
     94 H94        28.1276  -24.4203  -41.7025 H         1 UNK         0.0786 
     95 H95        25.7659  -27.6951  -41.6866 H         1 UNK         0.3172 
     96 H96        28.3496  -29.2033  -41.6030 H         1 UNK         0.0595 
     97 H97        27.3339  -30.5297  -43.4431 H         1 UNK         0.0839 
     98 H98        27.3857  -28.8266  -43.8662 H         1 UNK         0.0839 
     99 H99        25.8659  -29.5656  -43.3650 H         1 UNK         0.0839 
    100 H100       24.9914  -29.2175  -40.5729 H         1 UNK         0.2998 
    101 H101       23.7097  -30.4672  -39.2960 H         1 UNK         0.0822 
    102 H102       25.5612  -30.5279  -37.6011 H         1 UNK         0.0787 
    103 H103       24.5834  -31.9866  -37.5744 H         1 UNK         0.0787 
    104 H104       26.1700  -32.0163  -38.3251 H         1 UNK         0.0787 
    105 H105       24.0228  -30.9831  -41.9885 H         1 UNK         0.3055 
    106 H106       24.2157  -33.8650  -42.4677 H         1 UNK         0.1106 
    107 H107       24.0745  -33.1832  -44.8465 H         1 UNK         0.0828 
    108 H108       23.6907  -31.5331  -44.3877 H         1 UNK         0.0828 
    109 H109       25.2705  -32.2153  -44.0079 H         1 UNK         0.0828 
    110 H110       21.7393  -32.2749  -41.1617 H         1 UNK         0.2931 
    111 H111       19.4965  -32.9734  -42.7878 H         1 UNK         0.0412 
    112 H112       18.4307  -36.2171  -41.7959 H         1 UNK         0.3472 
    113 H113       18.0272  -34.7571  -42.6637 H         1 UNK         0.3472 
    114 H114       19.7145  -31.2348  -40.7626 H         1 UNK         0.0970 
    115 H115       19.2861  -32.5827  -39.7674 H         1 UNK         0.0970 
    116 H116       18.1700  -29.6087  -41.2676 H         1 UNK         0.0612 
    117 H117       16.4805  -29.7787  -41.6392 H         1 UNK         0.0612 
@<TRIPOS>BOND
     1    1    2 1    
     2    1   62 1    
     3    1   63 1    
     4    1   64 1    
     5    2    3 2    
     6    2    4 am   BACKBONE|DICT|INTERRES
     7    4    5 1    
     8    4   65 1    
     9    5    6 1    
    10    5   25 1    
    11    5   66 1    
    12    6    7 1    
    13    6   67 1    
    14    6   68 1    
    15    7    8 1    
    16    8    9 1    
    17    8   69 1    
    18    8   70 1    
    19    9   10 ar   
    20    9   14 ar   
    21   10   11 ar   
    22   10   71 1    
    23   11   12 ar   
    24   11   61 1    
    25   12   13 ar   
    26   12   72 1    
    27   13   14 ar   
    28   13   15 1    
    29   14   73 1    
    30   15   16 1    
    31   15   74 1    
    32   15   75 1    
    33   16   17 1    
    34   17   18 1    
    35   17   76 1    
    36   17   77 1    
    37   18   19 1    
    38   18   27 1    
    39   18   78 1    
    40   19   20 am   BACKBONE|DICT|INTERRES
    41   19   79 1    
    42   20   21 2    
    43   20   22 1    
    44   22   23 1    
    45   22   24 1    
    46   22   80 1    
    47   23   81 1    
    48   23   82 1    
    49   23   83 1    
    50   24   25 am   BACKBONE|DICT|INTERRES
    51   24   84 1    
    52   25   26 2    
    53   27   28 2    
    54   27   29 am   BACKBONE|DICT|INTERRES
    55   29   30 1    
    56   29   85 1    
    57   30   31 1    
    58   30   32 1    
    59   30   86 1    
    60   31   87 1    
    61   31   88 1    
    62   31   89 1    
    63   32   33 2    
    64   32   34 am   BACKBONE|DICT|INTERRES
    65   34   35 1    
    66   34   90 1    
    67   35   36 1    
    68   35   37 1    
    69   35   91 1    
    70   36   92 1    
    71   36   93 1    
    72   36   94 1    
    73   37   38 2    
    74   37   39 am   BACKBONE|DICT|INTERRES
    75   39   40 1    
    76   39   95 1    
    77   40   41 1    
    78   40   42 1    
    79   40   96 1    
    80   41   97 1    
    81   41   98 1    
    82   41   99 1    
    83   42   43 2    
    84   42   44 am   BACKBONE|DICT|INTERRES
    85   44   45 1    
    86   44  100 1    
    87   45   46 1    
    88   45   47 1    
    89   45  101 1    
    90   46  102 1    
    91   46  103 1    
    92   46  104 1    
    93   47   48 2    
    94   47   49 am   BACKBONE|DICT|INTERRES
    95   49   50 1    
    96   49  105 1    
    97   50   51 1    
    98   50   52 1    
    99   50  106 1    
   100   51  107 1    
   101   51  108 1    
   102   51  109 1    
   103   52   53 2    
   104   52   54 am   BACKBONE|DICT|INTERRES
   105   54   55 1    
   106   54  110 1    
   107   55   56 1    
   108   55   59 1    
   109   55  111 1    
   110   56   57 am   BACKBONE|DICT|INTERRES
   111   56   58 2    
   112   57  112 1    
   113   57  113 1    
   114   59   60 1    
   115   59  114 1    
   116   59  115 1    
   117   60   61 1    
   118   61  116 1    
   119   61  117 1    
@<TRIPOS>SUBSTRUCTURE
     1 UNK         1 GROUP             0       ****    0 ROOT    
