@<TRIPOS>MOLECULE
3R8
117   119    1
SMALL
USER_CHARGES


@<TRIPOS>ATOM
      1 CA         19.0719  -23.1684  -49.5919 C.3       0 UNK        -0.2013 
      2 C          19.6747  -23.5119  -48.2379 C.2       0 UNK         0.4866 
      3 O          20.1972  -22.6283  -47.5574 O.2       0 UNK        -0.5176 
      4 N          19.6161  -24.7903  -47.8465 N.am      1 UNK        -0.4884 
      5 CA         20.0743  -25.2951  -46.5489 C.3       1 UNK         0.0853 
      6 C6         20.2872  -26.8364  -46.5541 C.3       10 UNK        -0.0849 
      7 S7         18.9936  -27.8203  -47.3996 S.3       10 UNK        -0.2776 
      8 C8         17.7954  -28.1910  -46.0665 C.3       10 UNK         0.0316 
      9 C9         18.2082  -29.2310  -45.0203 C.ar      10 UNK        -0.0863 
     10 C10        19.4823  -29.8147  -44.9673 C.ar      10 UNK        -0.1009 
     11 C11        19.8070  -30.7291  -43.9610 C.ar      10 UNK        -0.0712 
     12 C12        18.8413  -31.0870  -43.0174 C.ar      10 UNK        -0.0894 
     13 C13        17.5633  -30.5274  -43.0622 C.ar      10 UNK        -0.0745 
     14 C14        17.2569  -29.5996  -44.0618 C.ar      10 UNK        -0.0972 
     15 C15        16.5274  -30.9075  -42.0121 C.3       10 UNK         0.0209 
     16 S16        17.0157  -30.3670  -40.3399 S.3       10 UNK        -0.2568 
     17 C17        17.0144  -28.5522  -40.5213 C.3       10 UNK        -0.0983 
     18 CA         18.4144  -27.9928  -40.8776 C.3       3 UNK         0.0876 
     19 N          18.3149  -26.6967  -41.5524 N.am      3 UNK        -0.4424 
     20 C          19.3385  -26.0659  -42.1384 C.2       2 UNK         0.4918 
     21 O          20.5070  -26.4651  -42.1134 O.2       2 UNK        -0.4875 
     22 CA         19.0029  -24.7846  -42.9087 C.3       2 UNK         0.0481 
     23 CB         19.4664  -23.5393  -42.1376 C.3       2 UNK        -0.1831 
     24 N          19.7123  -24.8644  -44.1799 N.am      2 UNK        -0.4498 
     25 C          19.1483  -24.8643  -45.3922 C.2       1 UNK         0.5027 
     26 O          17.9605  -24.6038  -45.6034 O.2       1 UNK        -0.4969 
     27 C          19.3553  -27.9362  -39.6578 C.2       3 UNK         0.5005 
     28 O          19.3167  -26.9590  -38.9058 O.2       3 UNK        -0.5279 
     29 N          20.2113  -28.9602  -39.5194 N.am      4 UNK        -0.4463 
     30 CA         21.2908  -29.1380  -38.5345 C.3       4 UNK         0.0283 
     31 CB         20.7535  -29.1273  -37.0901 C.3       4 UNK        -0.1875 
     32 C          22.4728  -28.1610  -38.6942 C.2       4 UNK         0.4949 
     33 O          23.6129  -28.5565  -38.4521 O.2       4 UNK        -0.5039 
     34 N          22.1949  -26.9144  -39.0937 N.am      5 UNK        -0.4663 
     35 CA         23.1801  -25.8606  -39.3290 C.3       5 UNK         0.0242 
     36 CB         22.4619  -24.5048  -39.4126 C.3       5 UNK        -0.1982 
     37 C          24.0309  -26.1074  -40.5844 C.2       5 UNK         0.5017 
     38 O          25.2429  -25.8944  -40.5342 O.2       5 UNK        -0.5012 
     39 N          23.3920  -26.5427  -41.6815 N.am      6 UNK        -0.4439 
     40 CA         24.0601  -26.8413  -42.9519 C.3       6 UNK         0.0297 
     41 CB         23.0196  -26.9639  -44.0768 C.3       6 UNK        -0.2006 
     42 C          24.9309  -28.1056  -42.8850 C.2       6 UNK         0.4892 
     43 O          26.0612  -28.0874  -43.3736 O.2       6 UNK        -0.5089 
     44 N          24.3869  -29.1686  -42.2831 N.am      7 UNK        -0.4243 
     45 CA         24.9951  -30.4854  -42.1156 C.3       7 UNK         0.0196 
     46 CB         25.1947  -31.1774  -43.4832 C.3       7 UNK        -0.2007 
     47 C          24.0767  -31.3262  -41.2215 C.2       7 UNK         0.5020 
     48 O          22.9445  -30.9214  -40.9459 O.2       7 UNK        -0.5147 
     49 N          24.5592  -32.5080  -40.8265 N.am      8 UNK        -0.4734 
     50 CA         23.7774  -33.5377  -40.1430 C.3       8 UNK         0.0238 
     51 CB         24.6566  -34.1999  -39.0648 C.3       8 UNK        -0.1912 
     52 C          23.2571  -34.5439  -41.1847 C.2       8 UNK         0.5038 
     53 O          23.7620  -35.6661  -41.2592 O.2       8 UNK        -0.5046 
     54 N          22.2932  -34.1028  -42.0043 N.am      9 UNK        -0.4200 
     55 CA         21.6247  -34.9115  -43.0387 C.3       9 UNK         0.0839 
     56 C          20.8630  -36.1279  -42.4424 C.2       9 UNK         0.5513 
     57 N          20.8724  -37.2629  -43.1275 N.am      9 UNK        -0.7519 
     58 O          20.2283  -36.0347  -41.3936 O.2       9 UNK        -0.4960 
     59 C59        20.6621  -34.0618  -43.9114 C.3       10 UNK        -0.0876 
     60 S60        21.5042  -32.7563  -44.8713 S.3       10 UNK        -0.2414 
     61 C61        21.2211  -31.2767  -43.8521 C.3       10 UNK         0.0169 
     62 H62        18.6591  -24.0463  -50.0890 H         1 UNK         0.0903 
     63 H63        18.2711  -22.4393  -49.4714 H         1 UNK         0.0903 
     64 H64        19.8318  -22.7364  -50.2427 H         1 UNK         0.0903 
     65 H65        19.1516  -25.4755  -48.4269 H         1 UNK         0.3096 
     66 H66        21.0456  -24.8329  -46.3549 H         1 UNK         0.1121 
     67 H67        20.4356  -27.2187  -45.5433 H         1 UNK         0.0849 
     68 H68        21.2225  -27.0515  -47.0732 H         1 UNK         0.0849 
     69 H69        17.5262  -27.2664  -45.5568 H         1 UNK         0.0865 
     70 H70        16.8810  -28.5420  -46.5471 H         1 UNK         0.0865 
     71 H71        20.2399  -29.5558  -45.6920 H         1 UNK         0.1346 
     72 H72        19.0870  -31.7793  -42.2243 H         1 UNK         0.1412 
     73 H73        16.2713  -29.1544  -44.0901 H         1 UNK         0.1426 
     74 H74        16.4048  -31.9914  -42.0101 H         1 UNK         0.0716 
     75 H75        15.5492  -30.4895  -42.2550 H         1 UNK         0.0716 
     76 H76        16.6316  -28.1017  -39.6033 H         1 UNK         0.0695 
     77 H77        16.2925  -28.2953  -41.2982 H         1 UNK         0.0695 
     78 H78        18.8772  -28.6536  -41.6115 H         1 UNK         0.0983 
     79 H79        17.3972  -26.2786  -41.5858 H         1 UNK         0.3095 
     80 H80        17.9232  -24.7288  -43.0626 H         1 UNK         0.0454 
     81 H81        20.5489  -23.5207  -42.0105 H         1 UNK         0.0851 
     82 H82        19.0167  -23.5012  -41.1445 H         1 UNK         0.0851 
     83 H83        19.1796  -22.6264  -42.6596 H         1 UNK         0.0851 
     84 H84        20.6799  -25.1411  -44.0903 H         1 UNK         0.2976 
     85 H85        20.1678  -29.6946  -40.2128 H         1 UNK         0.3116 
     86 H86        21.6899  -30.1363  -38.7197 H         1 UNK         0.0646 
     87 H87        20.3718  -28.1479  -36.8010 H         1 UNK         0.0847 
     88 H88        21.5425  -29.3856  -36.3827 H         1 UNK         0.0847 
     89 H89        19.9509  -29.8530  -36.9596 H         1 UNK         0.0847 
     90 H90        21.2153  -26.6749  -39.2159 H         1 UNK         0.3040 
     91 H91        23.8582  -25.8346  -38.4729 H         1 UNK         0.1015 
     92 H92        21.7244  -24.4914  -40.2145 H         1 UNK         0.0786 
     93 H93        23.1695  -23.6964  -39.6022 H         1 UNK         0.0786 
     94 H94        21.9459  -24.2724  -38.4808 H         1 UNK         0.0786 
     95 H95        22.3807  -26.6475  -41.6545 H         1 UNK         0.3172 
     96 H96        24.7149  -26.0014  -43.1944 H         1 UNK         0.0595 
     97 H97        22.2854  -27.7432  -43.8674 H         1 UNK         0.0839 
     98 H98        23.4964  -27.2109  -45.0265 H         1 UNK         0.0839 
     99 H99        22.4871  -26.0250  -44.2188 H         1 UNK         0.0839 
    100 H100       23.4672  -29.0929  -41.8651 H         1 UNK         0.2998 
    101 H101       25.9562  -30.3656  -41.6118 H         1 UNK         0.0822 
    102 H102       25.8773  -30.6205  -44.1243 H         1 UNK         0.0787 
    103 H103       25.6203  -32.1748  -43.3686 H         1 UNK         0.0787 
    104 H104       24.2525  -31.2880  -44.0198 H         1 UNK         0.0787 
    105 H105       25.4861  -32.7785  -41.1249 H         1 UNK         0.3055 
    106 H106       22.9120  -33.0970  -39.6418 H         1 UNK         0.1106 
    107 H107       24.1073  -34.9842  -38.5422 H         1 UNK         0.0828 
    108 H108       25.5515  -34.6558  -39.4902 H         1 UNK         0.0828 
    109 H109       24.9752  -33.4748  -38.3158 H         1 UNK         0.0828 
    110 H110       21.9546  -33.1605  -41.8828 H         1 UNK         0.2931 
    111 H111       22.4123  -35.2982  -43.6890 H         1 UNK         0.0412 
    112 H112       20.3699  -38.0589  -42.7657 H         1 UNK         0.3472 
    113 H113       21.3824  -37.3450  -43.9938 H         1 UNK         0.3472 
    114 H114       20.1578  -34.7010  -44.6389 H         1 UNK         0.0970 
    115 H115       19.8663  -33.6356  -43.3024 H         1 UNK         0.0970 
    116 H116       21.4374  -31.5170  -42.8151 H         1 UNK         0.0612 
    117 H117       21.9348  -30.5043  -44.1424 H         1 UNK         0.0612 
@<TRIPOS>BOND
     1    1    2 1    
     2    1   62 1    
     3    1   63 1    
     4    1   64 1    
     5    2    3 2    
     6    2    4 am   BACKBONE|DICT|INTERRES
     7    4    5 1    
     8    4   65 1    
     9    5    6 1    
    10    5   25 1    
    11    5   66 1    
    12    6    7 1    
    13    6   67 1    
    14    6   68 1    
    15    7    8 1    
    16    8    9 1    
    17    8   69 1    
    18    8   70 1    
    19    9   10 ar   
    20    9   14 ar   
    21   10   11 ar   
    22   10   71 1    
    23   11   12 ar   
    24   11   61 1    
    25   12   13 ar   
    26   12   72 1    
    27   13   14 ar   
    28   13   15 1    
    29   14   73 1    
    30   15   16 1    
    31   15   74 1    
    32   15   75 1    
    33   16   17 1    
    34   17   18 1    
    35   17   76 1    
    36   17   77 1    
    37   18   19 1    
    38   18   27 1    
    39   18   78 1    
    40   19   20 am   BACKBONE|DICT|INTERRES
    41   19   79 1    
    42   20   21 2    
    43   20   22 1    
    44   22   23 1    
    45   22   24 1    
    46   22   80 1    
    47   23   81 1    
    48   23   82 1    
    49   23   83 1    
    50   24   25 am   BACKBONE|DICT|INTERRES
    51   24   84 1    
    52   25   26 2    
    53   27   28 2    
    54   27   29 am   BACKBONE|DICT|INTERRES
    55   29   30 1    
    56   29   85 1    
    57   30   31 1    
    58   30   32 1    
    59   30   86 1    
    60   31   87 1    
    61   31   88 1    
    62   31   89 1    
    63   32   33 2    
    64   32   34 am   BACKBONE|DICT|INTERRES
    65   34   35 1    
    66   34   90 1    
    67   35   36 1    
    68   35   37 1    
    69   35   91 1    
    70   36   92 1    
    71   36   93 1    
    72   36   94 1    
    73   37   38 2    
    74   37   39 am   BACKBONE|DICT|INTERRES
    75   39   40 1    
    76   39   95 1    
    77   40   41 1    
    78   40   42 1    
    79   40   96 1    
    80   41   97 1    
    81   41   98 1    
    82   41   99 1    
    83   42   43 2    
    84   42   44 am   BACKBONE|DICT|INTERRES
    85   44   45 1    
    86   44  100 1    
    87   45   46 1    
    88   45   47 1    
    89   45  101 1    
    90   46  102 1    
    91   46  103 1    
    92   46  104 1    
    93   47   48 2    
    94   47   49 am   BACKBONE|DICT|INTERRES
    95   49   50 1    
    96   49  105 1    
    97   50   51 1    
    98   50   52 1    
    99   50  106 1    
   100   51  107 1    
   101   51  108 1    
   102   51  109 1    
   103   52   53 2    
   104   52   54 am   BACKBONE|DICT|INTERRES
   105   54   55 1    
   106   54  110 1    
   107   55   56 1    
   108   55   59 1    
   109   55  111 1    
   110   56   57 am   BACKBONE|DICT|INTERRES
   111   56   58 2    
   112   57  112 1    
   113   57  113 1    
   114   59   60 1    
   115   59  114 1    
   116   59  115 1    
   117   60   61 1    
   118   61  116 1    
   119   61  117 1    
@<TRIPOS>SUBSTRUCTURE
     1 UNK         1 GROUP             0       ****    0 ROOT    
