@<TRIPOS>MOLECULE
3R8
117   119    1
SMALL
USER_CHARGES


@<TRIPOS>ATOM
      1 CA         14.1143  -24.3915  -44.9686 C.3       0 UNK        -0.2013 
      2 C          14.6781  -25.7212  -44.4890 C.2       0 UNK         0.4866 
      3 O          14.0049  -26.4286  -43.7386 O.2       0 UNK        -0.5176 
      4 N          15.9014  -26.0553  -44.9252 N.am      1 UNK        -0.4884 
      5 CA         16.6732  -27.2623  -44.5852 C.3       1 UNK         0.0853 
      6 C6         15.9739  -28.5856  -45.0184 C.3       10 UNK        -0.0849 
      7 S7         15.9975  -28.7537  -46.8345 S.3       10 UNK        -0.2776 
      8 C8         17.2471  -30.0628  -47.0814 C.3       10 UNK         0.0316 
      9 C9         18.5614  -29.7905  -46.3548 C.ar      10 UNK        -0.0863 
     10 C10        19.0307  -30.6940  -45.3955 C.ar      10 UNK        -0.1009 
     11 C11        20.2507  -30.4739  -44.7454 C.ar      10 UNK        -0.0712 
     12 C12        20.9820  -29.3195  -45.0386 C.ar      10 UNK        -0.0894 
     13 C13        20.5159  -28.3979  -45.9783 C.ar      10 UNK        -0.0745 
     14 C14        19.3145  -28.6489  -46.6481 C.ar      10 UNK        -0.0972 
     15 C15        21.3166  -27.1415  -46.2856 C.3       10 UNK         0.0209 
     16 S16        20.9428  -25.7962  -45.1148 S.3       10 UNK        -0.2568 
     17 C17        22.1562  -26.0706  -43.7749 C.3       10 UNK        -0.0983 
     18 CA         21.4930  -26.0983  -42.3757 C.3       3 UNK         0.0876 
     19 N          20.5381  -27.2047  -42.2601 N.am      3 UNK        -0.4424 
     20 C          19.6703  -27.3948  -41.2578 C.2       2 UNK         0.4918 
     21 O          19.6372  -26.7154  -40.2308 O.2       2 UNK        -0.4875 
     22 CA         18.6367  -28.5113  -41.4928 C.3       2 UNK         0.0481 
     23 CB         17.6496  -28.6838  -40.3194 C.3       2 UNK        -0.1831 
     24 N          17.9257  -28.3246  -42.7652 N.am      2 UNK        -0.4498 
     25 C          17.1647  -27.2745  -43.1197 C.2       1 UNK         0.5027 
     26 O          16.9095  -26.3304  -42.3673 O.2       1 UNK        -0.4969 
     27 C          22.5626  -26.0545  -41.2614 C.2       3 UNK         0.5005 
     28 O          23.1405  -24.9892  -41.0385 O.2       3 UNK        -0.5279 
     29 N          22.8305  -27.1913  -40.5997 N.am      4 UNK        -0.4463 
     30 CA         23.7714  -27.4194  -39.4913 C.3       4 UNK         0.0283 
     31 CB         23.4996  -26.4945  -38.2894 C.3       4 UNK        -0.1875 
     32 C          25.2432  -27.3725  -39.9281 C.2       4 UNK         0.4949 
     33 O          25.9848  -28.3154  -39.6535 O.2       4 UNK        -0.5039 
     34 N          25.6239  -26.3188  -40.6614 N.am      5 UNK        -0.4663 
     35 CA         26.9259  -26.1673  -41.3211 C.3       5 UNK         0.0242 
     36 CB         27.0575  -24.7284  -41.8448 C.3       5 UNK        -0.1982 
     37 C          27.1448  -27.1792  -42.4625 C.2       5 UNK         0.5017 
     38 O          28.2919  -27.4802  -42.7925 O.2       5 UNK        -0.5012 
     39 N          26.0419  -27.6968  -43.0174 N.am      6 UNK        -0.4439 
     40 CA         25.9936  -28.7789  -43.9981 C.3       6 UNK         0.0297 
     41 CB         25.5350  -28.2172  -45.3570 C.3       6 UNK        -0.2006 
     42 C          25.0885  -29.9079  -43.4722 C.2       6 UNK         0.4892 
     43 O          24.2781  -30.4393  -44.2301 O.2       6 UNK        -0.5089 
     44 N          25.2585  -30.2374  -42.1812 N.am      7 UNK        -0.4243 
     45 CA         24.5340  -31.2268  -41.3710 C.3       7 UNK         0.0196 
     46 CB         24.5215  -32.6194  -42.0372 C.3       7 UNK        -0.2007 
     47 C          23.1173  -30.7797  -40.9688 C.2       7 UNK         0.5020 
     48 O          22.5525  -29.8476  -41.5463 O.2       7 UNK        -0.5147 
     49 N          22.5748  -31.4499  -39.9448 N.am      8 UNK        -0.4734 
     50 CA         21.2332  -31.2000  -39.4071 C.3       8 UNK         0.0238 
     51 CB         21.2410  -31.4636  -37.8927 C.3       8 UNK        -0.1912 
     52 C          20.1438  -32.0444  -40.0911 C.2       8 UNK         0.5038 
     53 O          18.9773  -31.6576  -40.0332 O.2       8 UNK        -0.5046 
     54 N          20.5324  -33.1566  -40.7341 N.am      9 UNK        -0.4200 
     55 CA         19.6503  -34.0997  -41.4475 C.3       9 UNK         0.0839 
     56 C          18.5699  -34.7484  -40.5238 C.2       9 UNK         0.5513 
     57 N          17.4600  -35.2372  -41.0624 N.am      9 UNK        -0.7519 
     58 O          18.7580  -34.8751  -39.3150 O.2       9 UNK        -0.4960 
     59 C59        19.0984  -33.4994  -42.7786 C.3       10 UNK        -0.0876 
     60 S60        20.4301  -33.1991  -43.9906 S.3       10 UNK        -0.2414 
     61 C61        20.8067  -31.4394  -43.7051 C.3       10 UNK         0.0169 
     62 H62        13.1797  -24.5523  -45.5055 H         1 UNK         0.0903 
     63 H63        13.9110  -23.7421  -44.1174 H         1 UNK         0.0903 
     64 H64        14.8020  -23.8711  -45.6349 H         1 UNK         0.0903 
     65 H65        16.3899  -25.4038  -45.5236 H         1 UNK         0.3096 
     66 H66        17.5947  -27.1659  -45.1595 H         1 UNK         0.1121 
     67 H67        16.4429  -29.4692  -44.5854 H         1 UNK         0.0849 
     68 H68        14.9399  -28.6221  -44.6754 H         1 UNK         0.0849 
     69 H69        16.8195  -31.0151  -46.7635 H         1 UNK         0.0865 
     70 H70        17.4468  -30.1628  -48.1491 H         1 UNK         0.0865 
     71 H71        18.4516  -31.5780  -45.1673 H         1 UNK         0.1346 
     72 H72        21.9240  -29.1451  -44.5357 H         1 UNK         0.1412 
     73 H73        18.9537  -27.9476  -47.3887 H         1 UNK         0.1426 
     74 H74        22.3850  -27.3586  -46.2882 H         1 UNK         0.0716 
     75 H75        21.0827  -26.7939  -47.2930 H         1 UNK         0.0716 
     76 H76        22.7093  -26.9940  -43.9489 H         1 UNK         0.0695 
     77 H77        22.8883  -25.2629  -43.8389 H         1 UNK         0.0695 
     78 H78        20.9154  -25.1780  -42.2627 H         1 UNK         0.0983 
     79 H79        20.4719  -27.8055  -43.0683 H         1 UNK         0.3095 
     80 H80        19.2016  -29.4381  -41.5887 H         1 UNK         0.0454 
     81 H81        17.0650  -27.7821  -40.1362 H         1 UNK         0.0851 
     82 H82        16.9563  -29.5040  -40.5046 H         1 UNK         0.0851 
     83 H83        18.1831  -28.9172  -39.3972 H         1 UNK         0.0851 
     84 H84        18.1052  -29.0327  -43.4638 H         1 UNK         0.2976 
     85 H85        22.3872  -28.0403  -40.9453 H         1 UNK         0.3116 
     86 H86        23.5782  -28.4385  -39.1536 H         1 UNK         0.0646 
     87 H87        24.1248  -26.7715  -37.4397 H         1 UNK         0.0847 
     88 H88        22.4614  -26.5642  -37.9647 H         1 UNK         0.0847 
     89 H89        23.7103  -25.4489  -38.5149 H         1 UNK         0.0847 
     90 H90        24.9234  -25.6004  -40.8338 H         1 UNK         0.3040 
     91 H91        27.7064  -26.3405  -40.5767 H         1 UNK         0.1015 
     92 H92        26.9792  -24.0031  -41.0347 H         1 UNK         0.0786 
     93 H93        26.2867  -24.4944  -42.5805 H         1 UNK         0.0786 
     94 H94        28.0252  -24.5736  -42.3244 H         1 UNK         0.0786 
     95 H95        25.1524  -27.3925  -42.6491 H         1 UNK         0.3172 
     96 H96        26.9856  -29.2159  -44.1294 H         1 UNK         0.0595 
     97 H97        24.5315  -27.7977  -45.3016 H         1 UNK         0.0839 
     98 H98        25.5221  -28.9968  -46.1198 H         1 UNK         0.0839 
     99 H99        26.2067  -27.4337  -45.7080 H         1 UNK         0.0839 
    100 H100       25.9355  -29.6946  -41.6607 H         1 UNK         0.2998 
    101 H101       25.1095  -31.3063  -40.4471 H         1 UNK         0.0822 
    102 H102       25.5209  -32.9154  -42.3561 H         1 UNK         0.0787 
    103 H103       24.1666  -33.3846  -41.3464 H         1 UNK         0.0787 
    104 H104       23.8690  -32.6506  -42.9102 H         1 UNK         0.0787 
    105 H105       23.1127  -32.1804  -39.4991 H         1 UNK         0.3055 
    106 H106       20.9702  -30.1507  -39.5618 H         1 UNK         0.1106 
    107 H107       20.2622  -31.2582  -37.4566 H         1 UNK         0.0828 
    108 H108       21.4880  -32.5007  -37.6622 H         1 UNK         0.0828 
    109 H109       21.9611  -30.8237  -37.3824 H         1 UNK         0.0828 
    110 H110       21.5098  -33.4019  -40.7159 H         1 UNK         0.2931 
    111 H111       20.2953  -34.9374  -41.7159 H         1 UNK         0.0412 
    112 H112       16.7803  -35.6757  -40.4602 H         1 UNK         0.3472 
    113 H113       17.2859  -35.1833  -42.0531 H         1 UNK         0.3472 
    114 H114       18.5308  -32.5854  -42.5965 H         1 UNK         0.0970 
    115 H115       18.4084  -34.1889  -43.2652 H         1 UNK         0.0970 
    116 H116       21.8922  -31.3567  -43.6814 H         1 UNK         0.0612 
    117 H117       20.4543  -31.1275  -42.7252 H         1 UNK         0.0612 
@<TRIPOS>BOND
     1    1    2 1    
     2    1   62 1    
     3    1   63 1    
     4    1   64 1    
     5    2    3 2    
     6    2    4 am   BACKBONE|DICT|INTERRES
     7    4    5 1    
     8    4   65 1    
     9    5    6 1    
    10    5   25 1    
    11    5   66 1    
    12    6    7 1    
    13    6   67 1    
    14    6   68 1    
    15    7    8 1    
    16    8    9 1    
    17    8   69 1    
    18    8   70 1    
    19    9   10 ar   
    20    9   14 ar   
    21   10   11 ar   
    22   10   71 1    
    23   11   12 ar   
    24   11   61 1    
    25   12   13 ar   
    26   12   72 1    
    27   13   14 ar   
    28   13   15 1    
    29   14   73 1    
    30   15   16 1    
    31   15   74 1    
    32   15   75 1    
    33   16   17 1    
    34   17   18 1    
    35   17   76 1    
    36   17   77 1    
    37   18   19 1    
    38   18   27 1    
    39   18   78 1    
    40   19   20 am   BACKBONE|DICT|INTERRES
    41   19   79 1    
    42   20   21 2    
    43   20   22 1    
    44   22   23 1    
    45   22   24 1    
    46   22   80 1    
    47   23   81 1    
    48   23   82 1    
    49   23   83 1    
    50   24   25 am   BACKBONE|DICT|INTERRES
    51   24   84 1    
    52   25   26 2    
    53   27   28 2    
    54   27   29 am   BACKBONE|DICT|INTERRES
    55   29   30 1    
    56   29   85 1    
    57   30   31 1    
    58   30   32 1    
    59   30   86 1    
    60   31   87 1    
    61   31   88 1    
    62   31   89 1    
    63   32   33 2    
    64   32   34 am   BACKBONE|DICT|INTERRES
    65   34   35 1    
    66   34   90 1    
    67   35   36 1    
    68   35   37 1    
    69   35   91 1    
    70   36   92 1    
    71   36   93 1    
    72   36   94 1    
    73   37   38 2    
    74   37   39 am   BACKBONE|DICT|INTERRES
    75   39   40 1    
    76   39   95 1    
    77   40   41 1    
    78   40   42 1    
    79   40   96 1    
    80   41   97 1    
    81   41   98 1    
    82   41   99 1    
    83   42   43 2    
    84   42   44 am   BACKBONE|DICT|INTERRES
    85   44   45 1    
    86   44  100 1    
    87   45   46 1    
    88   45   47 1    
    89   45  101 1    
    90   46  102 1    
    91   46  103 1    
    92   46  104 1    
    93   47   48 2    
    94   47   49 am   BACKBONE|DICT|INTERRES
    95   49   50 1    
    96   49  105 1    
    97   50   51 1    
    98   50   52 1    
    99   50  106 1    
   100   51  107 1    
   101   51  108 1    
   102   51  109 1    
   103   52   53 2    
   104   52   54 am   BACKBONE|DICT|INTERRES
   105   54   55 1    
   106   54  110 1    
   107   55   56 1    
   108   55   59 1    
   109   55  111 1    
   110   56   57 am   BACKBONE|DICT|INTERRES
   111   56   58 2    
   112   57  112 1    
   113   57  113 1    
   114   59   60 1    
   115   59  114 1    
   116   59  115 1    
   117   60   61 1    
   118   61  116 1    
   119   61  117 1    
@<TRIPOS>SUBSTRUCTURE
     1 UNK         1 GROUP             0       ****    0 ROOT    
