@<TRIPOS>MOLECULE
3R8
117   119    1
SMALL
USER_CHARGES


@<TRIPOS>ATOM
      1 CA         18.3516  -21.9369  -42.6894 C.3       0 UNK        -0.2013 
      2 C          18.5726  -23.0562  -43.6959 C.2       0 UNK         0.4866 
      3 O          19.3117  -22.8710  -44.6635 O.2       0 UNK        -0.5176 
      4 N          17.9356  -24.2141  -43.4753 N.am      1 UNK        -0.4884 
      5 CA         18.1155  -25.4328  -44.2745 C.3       1 UNK         0.0853 
      6 C6         16.8715  -26.3543  -44.1805 C.3       10 UNK        -0.0849 
      7 S7         16.5505  -27.2059  -45.7592 S.3       10 UNK        -0.2776 
      8 C8         15.5776  -28.6376  -45.2037 C.3       10 UNK         0.0316 
      9 C9         16.4628  -29.7694  -44.7035 C.ar      10 UNK        -0.0863 
     10 C10        17.2048  -30.5239  -45.6182 C.ar      10 UNK        -0.1009 
     11 C11        17.9724  -31.6139  -45.1966 C.ar      10 UNK        -0.0712 
     12 C12        17.9743  -31.9453  -43.8373 C.ar      10 UNK        -0.0894 
     13 C13        17.2657  -31.1835  -42.9061 C.ar      10 UNK        -0.0745 
     14 C14        16.5103  -30.0918  -43.3432 C.ar      10 UNK        -0.0972 
     15 C15        17.2922  -31.5846  -41.4386 C.3       10 UNK         0.0209 
     16 S16        18.9794  -31.5510  -40.7490 S.3       10 UNK        -0.2568 
     17 C17        19.1359  -29.8238  -40.1926 C.3       10 UNK        -0.0983 
     18 CA         20.4106  -29.1488  -40.7544 C.3       3 UNK         0.0876 
     19 N          20.2738  -28.8186  -42.1785 N.am      3 UNK        -0.4424 
     20 C          21.2984  -28.4942  -42.9781 C.2       2 UNK         0.4918 
     21 O          22.4698  -28.4804  -42.6083 O.2       2 UNK        -0.4875 
     22 CA         20.9666  -28.0526  -44.4156 C.3       2 UNK         0.0481 
     23 CB         20.9311  -29.2707  -45.3452 C.3       2 UNK        -0.1831 
     24 N          19.7237  -27.2809  -44.5625 N.am      2 UNK        -0.4498 
     25 C          19.4208  -26.1632  -43.8867 C.2       1 UNK         0.5027 
     26 O          20.1217  -25.7249  -42.9722 O.2       1 UNK        -0.4969 
     27 C          20.8189  -27.9449  -39.8722 C.2       3 UNK         0.5005 
     28 O          21.3322  -28.1708  -38.7757 O.2       3 UNK        -0.5279 
     29 N          20.5831  -26.7086  -40.3349 N.am      4 UNK        -0.4463 
     30 CA         20.9691  -25.4740  -39.6468 C.3       4 UNK         0.0283 
     31 CB         19.8299  -24.4464  -39.7590 C.3       4 UNK        -0.1875 
     32 C          22.2697  -24.8981  -40.2267 C.2       4 UNK         0.4949 
     33 O          23.1121  -24.4238  -39.4648 O.2       4 UNK        -0.5039 
     34 N          22.4079  -24.9393  -41.5597 N.am      5 UNK        -0.4663 
     35 CA         23.5738  -24.4499  -42.3003 C.3       5 UNK         0.0242 
     36 CB         23.2152  -24.3511  -43.7917 C.3       5 UNK        -0.1982 
     37 C          24.8256  -25.3212  -42.0997 C.2       5 UNK         0.5017 
     38 O          25.9355  -24.7878  -42.0742 O.2       5 UNK        -0.5012 
     39 N          24.6202  -26.6335  -41.9541 N.am      6 UNK        -0.4439 
     40 CA         25.6299  -27.6337  -41.6330 C.3       6 UNK         0.0297 
     41 CB         26.0214  -28.3992  -42.9151 C.3       6 UNK        -0.2006 
     42 C          25.0463  -28.5064  -40.5116 C.2       6 UNK         0.4892 
     43 O          24.7622  -27.9773  -39.4361 O.2       6 UNK        -0.5089 
     44 N          24.8584  -29.8038  -40.7706 N.am      7 UNK        -0.4243 
     45 CA         24.2111  -30.7671  -39.8880 C.3       7 UNK         0.0196 
     46 CB         25.1636  -31.1771  -38.7478 C.3       7 UNK        -0.2007 
     47 C          23.8122  -31.9902  -40.7197 C.2       7 UNK         0.5020 
     48 O          24.4175  -32.2348  -41.7668 O.2       7 UNK        -0.5147 
     49 N          22.8301  -32.7495  -40.2135 N.am      8 UNK        -0.4734 
     50 CA         22.4300  -34.0983  -40.6470 C.3       8 UNK         0.0238 
     51 CB         23.4521  -35.1270  -40.1175 C.3       8 UNK        -0.1912 
     52 C          22.1744  -34.2554  -42.1611 C.2       8 UNK         0.5038 
     53 O          22.5764  -35.2622  -42.7480 O.2       8 UNK        -0.5046 
     54 N          21.5110  -33.2594  -42.7640 N.am      9 UNK        -0.4200 
     55 CA         21.1975  -33.1893  -44.2030 C.3       9 UNK         0.0839 
     56 C          22.4282  -32.9276  -45.1252 C.2       9 UNK         0.5513 
     57 N          23.5893  -32.5536  -44.6000 N.am      9 UNK        -0.7519 
     58 O          22.3241  -33.0307  -46.3439 O.2       9 UNK        -0.4960 
     59 C59        20.3212  -34.4015  -44.6676 C.3       10 UNK        -0.0876 
     60 S60        18.9977  -34.1655  -45.9197 S.3       10 UNK        -0.2414 
     61 C61        18.8111  -32.3748  -46.2278 C.3       10 UNK         0.0169 
     62 H62        17.9402  -21.0594  -43.1874 H         1 UNK         0.0903 
     63 H63        17.6643  -22.2303  -41.8960 H         1 UNK         0.0903 
     64 H64        19.2989  -21.6560  -42.2297 H         1 UNK         0.0903 
     65 H65        17.3624  -24.3117  -42.6496 H         1 UNK         0.3096 
     66 H66        18.2384  -25.1151  -45.3129 H         1 UNK         0.1121 
     67 H67        15.9771  -25.7678  -43.9629 H         1 UNK         0.0849 
     68 H68        16.9575  -27.0740  -43.3636 H         1 UNK         0.0849 
     69 H69        14.8632  -28.3263  -44.4397 H         1 UNK         0.0865 
     70 H70        14.9808  -29.0003  -46.0421 H         1 UNK         0.0865 
     71 H71        17.1793  -30.2588  -46.6668 H         1 UNK         0.1346 
     72 H72        18.5340  -32.7947  -43.4799 H         1 UNK         0.1412 
     73 H73        15.9379  -29.5132  -42.6308 H         1 UNK         0.1426 
     74 H74        16.9048  -32.6006  -41.3519 H         1 UNK         0.0716 
     75 H75        16.6304  -30.9570  -40.8397 H         1 UNK         0.0716 
     76 H76        19.1546  -29.8576  -39.1011 H         1 UNK         0.0695 
     77 H77        18.2470  -29.2496  -40.4598 H         1 UNK         0.0695 
     78 H78        21.2334  -29.8611  -40.6683 H         1 UNK         0.0983 
     79 H79        19.3396  -28.8268  -42.5604 H         1 UNK         0.3095 
     80 H80        21.7800  -27.4050  -44.7475 H         1 UNK         0.0454 
     81 H81        20.7798  -28.9807  -46.3850 H         1 UNK         0.0851 
     82 H82        20.1305  -29.9502  -45.0626 H         1 UNK         0.0851 
     83 H83        21.8678  -29.8280  -45.2973 H         1 UNK         0.0851 
     84 H84        19.0739  -27.5974  -45.2704 H         1 UNK         0.2976 
     85 H85        20.2057  -26.5956  -41.2706 H         1 UNK         0.3116 
     86 H86        21.1351  -25.6705  -38.5854 H         1 UNK         0.0646 
     87 H87        19.6182  -24.1828  -40.7954 H         1 UNK         0.0847 
     88 H88        20.0854  -23.5242  -39.2355 H         1 UNK         0.0847 
     89 H89        18.9095  -24.8259  -39.3153 H         1 UNK         0.0847 
     90 H90        21.6294  -25.2880  -42.1159 H         1 UNK         0.3040 
     91 H91        23.8089  -23.4472  -41.9361 H         1 UNK         0.1015 
     92 H92        22.9668  -25.3261  -44.2118 H         1 UNK         0.0786 
     93 H93        24.0493  -23.9490  -44.3684 H         1 UNK         0.0786 
     94 H94        22.3611  -23.6920  -43.9519 H         1 UNK         0.0786 
     95 H95        23.6695  -26.9886  -41.9916 H         1 UNK         0.3172 
     96 H96        26.5229  -27.1548  -41.2265 H         1 UNK         0.0595 
     97 H97        25.1629  -28.8852  -43.3812 H         1 UNK         0.0839 
     98 H98        26.7713  -29.1636  -42.7075 H         1 UNK         0.0839 
     99 H99        26.4533  -27.7233  -43.6532 H         1 UNK         0.0839 
    100 H100       25.0825  -30.1731  -41.6869 H         1 UNK         0.2998 
    101 H101       23.3105  -30.3131  -39.4695 H         1 UNK         0.0822 
    102 H102       24.7012  -31.9195  -38.0960 H         1 UNK         0.0787 
    103 H103       26.0868  -31.6113  -39.1339 H         1 UNK         0.0787 
    104 H104       25.4310  -30.3252  -38.1226 H         1 UNK         0.0787 
    105 H105       22.3809  -32.4280  -39.3663 H         1 UNK         0.3055 
    106 H106       21.4732  -34.3073  -40.1651 H         1 UNK         0.1106 
    107 H107       23.1264  -36.1484  -40.3191 H         1 UNK         0.0828 
    108 H108       24.4295  -34.9974  -40.5840 H         1 UNK         0.0828 
    109 H109       23.5820  -35.0401  -39.0388 H         1 UNK         0.0828 
    110 H110       21.2318  -32.4642  -42.2078 H         1 UNK         0.2931 
    111 H111       20.6179  -32.2747  -44.2744 H         1 UNK         0.0412 
    112 H112       23.7182  -32.4823  -43.5956 H         1 UNK         0.3472 
    113 H113       24.3689  -32.3807  -45.2139 H         1 UNK         0.3472 
    114 H114       19.8051  -34.8240  -43.8043 H         1 UNK         0.0970 
    115 H115       20.9638  -35.2125  -45.0156 H         1 UNK         0.0970 
    116 H116       18.3297  -32.2832  -47.2026 H         1 UNK         0.0612 
    117 H117       19.7868  -31.9064  -46.3458 H         1 UNK         0.0612 
@<TRIPOS>BOND
     1    1    2 1    
     2    1   62 1    
     3    1   63 1    
     4    1   64 1    
     5    2    3 2    
     6    2    4 am   BACKBONE|DICT|INTERRES
     7    4    5 1    
     8    4   65 1    
     9    5    6 1    
    10    5   25 1    
    11    5   66 1    
    12    6    7 1    
    13    6   67 1    
    14    6   68 1    
    15    7    8 1    
    16    8    9 1    
    17    8   69 1    
    18    8   70 1    
    19    9   10 ar   
    20    9   14 ar   
    21   10   11 ar   
    22   10   71 1    
    23   11   12 ar   
    24   11   61 1    
    25   12   13 ar   
    26   12   72 1    
    27   13   14 ar   
    28   13   15 1    
    29   14   73 1    
    30   15   16 1    
    31   15   74 1    
    32   15   75 1    
    33   16   17 1    
    34   17   18 1    
    35   17   76 1    
    36   17   77 1    
    37   18   19 1    
    38   18   27 1    
    39   18   78 1    
    40   19   20 am   BACKBONE|DICT|INTERRES
    41   19   79 1    
    42   20   21 2    
    43   20   22 1    
    44   22   23 1    
    45   22   24 1    
    46   22   80 1    
    47   23   81 1    
    48   23   82 1    
    49   23   83 1    
    50   24   25 am   BACKBONE|DICT|INTERRES
    51   24   84 1    
    52   25   26 2    
    53   27   28 2    
    54   27   29 am   BACKBONE|DICT|INTERRES
    55   29   30 1    
    56   29   85 1    
    57   30   31 1    
    58   30   32 1    
    59   30   86 1    
    60   31   87 1    
    61   31   88 1    
    62   31   89 1    
    63   32   33 2    
    64   32   34 am   BACKBONE|DICT|INTERRES
    65   34   35 1    
    66   34   90 1    
    67   35   36 1    
    68   35   37 1    
    69   35   91 1    
    70   36   92 1    
    71   36   93 1    
    72   36   94 1    
    73   37   38 2    
    74   37   39 am   BACKBONE|DICT|INTERRES
    75   39   40 1    
    76   39   95 1    
    77   40   41 1    
    78   40   42 1    
    79   40   96 1    
    80   41   97 1    
    81   41   98 1    
    82   41   99 1    
    83   42   43 2    
    84   42   44 am   BACKBONE|DICT|INTERRES
    85   44   45 1    
    86   44  100 1    
    87   45   46 1    
    88   45   47 1    
    89   45  101 1    
    90   46  102 1    
    91   46  103 1    
    92   46  104 1    
    93   47   48 2    
    94   47   49 am   BACKBONE|DICT|INTERRES
    95   49   50 1    
    96   49  105 1    
    97   50   51 1    
    98   50   52 1    
    99   50  106 1    
   100   51  107 1    
   101   51  108 1    
   102   51  109 1    
   103   52   53 2    
   104   52   54 am   BACKBONE|DICT|INTERRES
   105   54   55 1    
   106   54  110 1    
   107   55   56 1    
   108   55   59 1    
   109   55  111 1    
   110   56   57 am   BACKBONE|DICT|INTERRES
   111   56   58 2    
   112   57  112 1    
   113   57  113 1    
   114   59   60 1    
   115   59  114 1    
   116   59  115 1    
   117   60   61 1    
   118   61  116 1    
   119   61  117 1    
@<TRIPOS>SUBSTRUCTURE
     1 UNK         1 GROUP             0       ****    0 ROOT    
