@<TRIPOS>MOLECULE
3R8
117   119    1
SMALL
USER_CHARGES


@<TRIPOS>ATOM
      1 CA         19.1475  -25.0621  -39.2180 C.3       0 UNK        -0.2013 
      2 C          18.5301  -25.1962  -40.6025 C.2       0 UNK         0.4866 
      3 O          17.6957  -24.3754  -40.9858 O.2       0 UNK        -0.5176 
      4 N          18.9276  -26.2321  -41.3495 N.am      1 UNK        -0.4884 
      5 CA         18.4940  -26.4927  -42.7251 C.3       1 UNK         0.0853 
      6 C6         18.7790  -27.9603  -43.1308 C.3       10 UNK        -0.0849 
      7 S7         17.6824  -29.1307  -42.2621 S.3       10 UNK        -0.2776 
      8 C8         17.0434  -30.1386  -43.6389 C.3       10 UNK         0.0316 
      9 C9         18.1279  -31.0199  -44.2451 C.ar      10 UNK        -0.0863 
     10 C10        18.4799  -32.2209  -43.6234 C.ar      10 UNK        -0.1009 
     11 C11        19.4600  -33.0541  -44.1798 C.ar      10 UNK        -0.0712 
     12 C12        20.1019  -32.6482  -45.3545 C.ar      10 UNK        -0.0894 
     13 C13        19.7650  -31.4501  -45.9922 C.ar      10 UNK        -0.0745 
     14 C14        18.7621  -30.6475  -45.4344 C.ar      10 UNK        -0.0972 
     15 C15        20.4669  -31.0988  -47.3068 C.3       10 UNK         0.0209 
     16 S16        20.4696  -29.3288  -47.7583 S.3       10 UNK        -0.2568 
     17 C17        21.7642  -28.6693  -46.6579 C.3       10 UNK        -0.0983 
     18 CA         21.8988  -27.1310  -46.7954 C.3       3 UNK         0.0876 
     19 N          20.6565  -26.4376  -46.4385 N.am      3 UNK        -0.4424 
     20 C          20.4144  -25.1286  -46.6024 C.2       2 UNK         0.4918 
     21 O          21.1805  -24.3521  -47.1733 O.2       2 UNK        -0.4875 
     22 CA         19.0935  -24.5861  -46.0215 C.3       2 UNK         0.0481 
     23 CB         18.0251  -24.4918  -47.1225 C.3       2 UNK        -0.1831 
     24 N          18.5678  -25.3776  -44.9021 N.am      2 UNK        -0.4498 
     25 C          19.1737  -25.5238  -43.7137 C.2       1 UNK         0.5027 
     26 O          20.2414  -24.9806  -43.4200 O.2       1 UNK        -0.4969 
     27 C          23.0868  -26.5965  -45.9689 C.2       3 UNK         0.5005 
     28 O          24.1022  -26.2042  -46.5454 O.2       3 UNK        -0.5279 
     29 N          22.8976  -26.5530  -44.6445 N.am      4 UNK        -0.4463 
     30 CA         23.7528  -25.9857  -43.6042 C.3       4 UNK         0.0283 
     31 CB         25.2024  -26.5145  -43.6716 C.3       4 UNK        -0.1875 
     32 C          23.1277  -26.3669  -42.2580 C.2       4 UNK         0.4949 
     33 O          22.4271  -27.3794  -42.1752 O.2       4 UNK        -0.5039 
     34 N          23.4355  -25.5943  -41.2090 N.am      5 UNK        -0.4663 
     35 CA         23.0233  -25.8956  -39.8328 C.3       5 UNK         0.0242 
     36 CB         23.2982  -24.6828  -38.9305 C.3       5 UNK        -0.1982 
     37 C          23.6998  -27.1606  -39.2749 C.2       5 UNK         0.5017 
     38 O          23.0693  -27.9051  -38.5265 O.2       5 UNK        -0.5012 
     39 N          24.9529  -27.4007  -39.6866 N.am      6 UNK        -0.4439 
     40 CA         25.7232  -28.6046  -39.3634 C.3       6 UNK         0.0297 
     41 CB         27.2128  -28.3353  -39.6320 C.3       6 UNK        -0.2006 
     42 C          25.2585  -29.8533  -40.1372 C.2       6 UNK         0.4892 
     43 O          25.4959  -30.9674  -39.6704 O.2       6 UNK        -0.5089 
     44 N          24.6176  -29.6537  -41.2981 N.am      7 UNK        -0.4243 
     45 CA         24.0885  -30.7209  -42.1519 C.3       7 UNK         0.0196 
     46 CB         24.1133  -30.2549  -43.6186 C.3       7 UNK        -0.2007 
     47 C          22.6658  -31.1524  -41.7602 C.2       7 UNK         0.5020 
     48 O          22.1909  -32.1567  -42.2863 O.2       7 UNK        -0.5147 
     49 N          22.0018  -30.3878  -40.8827 N.am      8 UNK        -0.4734 
     50 CA         20.6140  -30.5780  -40.4660 C.3       8 UNK         0.0238 
     51 CB         20.1712  -29.3501  -39.6515 C.3       8 UNK        -0.1912 
     52 C          20.4048  -31.8833  -39.6788 C.2       8 UNK         0.5038 
     53 O          20.6368  -31.9139  -38.4686 O.2       8 UNK        -0.5046 
     54 N          19.9712  -32.9335  -40.3838 N.am      9 UNK        -0.4200 
     55 CA         19.6176  -34.2462  -39.8233 C.3       9 UNK         0.0839 
     56 C          18.2624  -34.2933  -39.0562 C.2       9 UNK         0.5513 
     57 N          17.4381  -33.2524  -39.0874 N.am      9 UNK        -0.7519 
     58 O          17.9609  -35.2919  -38.4075 O.2       9 UNK        -0.4960 
     59 C59        19.7321  -35.3682  -40.8898 C.3       10 UNK        -0.0876 
     60 S60        18.6829  -35.1031  -42.3652 S.3       10 UNK        -0.2414 
     61 C61        19.8746  -34.3884  -43.5540 C.3       10 UNK         0.0169 
     62 H62        19.6353  -25.9833  -38.8997 H         1 UNK         0.0903 
     63 H63        19.8864  -24.2611  -39.2126 H         1 UNK         0.0903 
     64 H64        18.3785  -24.8216  -38.4844 H         1 UNK         0.0903 
     65 H65        19.6437  -26.8516  -41.0030 H         1 UNK         0.3096 
     66 H66        17.4174  -26.3137  -42.7818 H         1 UNK         0.1121 
     67 H67        19.8170  -28.2319  -42.9263 H         1 UNK         0.0849 
     68 H68        18.6413  -28.0945  -44.2036 H         1 UNK         0.0849 
     69 H69        16.2318  -30.7661  -43.2675 H         1 UNK         0.0865 
     70 H70        16.5986  -29.4903  -44.3956 H         1 UNK         0.0865 
     71 H71        17.9737  -32.4985  -42.7101 H         1 UNK         0.1346 
     72 H72        20.8652  -33.2821  -45.7856 H         1 UNK         0.1412 
     73 H73        18.4640  -29.7338  -45.9276 H         1 UNK         0.1426 
     74 H74        19.9727  -31.6499  -48.1078 H         1 UNK         0.0716 
     75 H75        21.4996  -31.4508  -47.2849 H         1 UNK         0.0716 
     76 H76        22.7061  -29.1605  -46.9103 H         1 UNK         0.0695 
     77 H77        21.5306  -28.9539  -45.6298 H         1 UNK         0.0695 
     78 H78        22.1101  -26.9013  -47.8424 H         1 UNK         0.0983 
     79 H79        19.9412  -27.0031  -46.0108 H         1 UNK         0.3095 
     80 H80        19.2899  -23.5779  -45.6509 H         1 UNK         0.0454 
     81 H81        18.3772  -23.8824  -47.9561 H         1 UNK         0.0851 
     82 H82        17.1105  -24.0290  -46.7515 H         1 UNK         0.0851 
     83 H83        17.7683  -25.4730  -47.5237 H         1 UNK         0.0851 
     84 H84        17.6878  -25.8475  -45.0629 H         1 UNK         0.2976 
     85 H85        22.0284  -26.9105  -44.2677 H         1 UNK         0.3116 
     86 H86        23.7445  -24.8991  -43.7054 H         1 UNK         0.0646 
     87 H87        25.7865  -26.1827  -42.8126 H         1 UNK         0.0847 
     88 H88        25.2389  -27.6024  -43.6895 H         1 UNK         0.0847 
     89 H89        25.7247  -26.1503  -44.5554 H         1 UNK         0.0847 
     90 H90        24.0030  -24.7702  -41.3507 H         1 UNK         0.3040 
     91 H91        21.9474  -26.0805  -39.8379 H         1 UNK         0.1015 
     92 H92        22.9767  -24.8788  -37.9064 H         1 UNK         0.0786 
     93 H93        22.7560  -23.8018  -39.2747 H         1 UNK         0.0786 
     94 H94        24.3595  -24.4334  -38.8970 H         1 UNK         0.0786 
     95 H95        25.3963  -26.7182  -40.2837 H         1 UNK         0.3172 
     96 H96        25.6021  -28.8139  -38.2982 H         1 UNK         0.0595 
     97 H97        27.4021  -28.1115  -40.6827 H         1 UNK         0.0839 
     98 H98        27.8190  -29.2041  -39.3709 H         1 UNK         0.0839 
     99 H99        27.5795  -27.4982  -39.0374 H         1 UNK         0.0839 
    100 H100       24.4179  -28.7072  -41.5865 H         1 UNK         0.2998 
    101 H101       24.7287  -31.6017  -42.0669 H         1 UNK         0.0822 
    102 H102       23.7467  -31.0382  -44.2837 H         1 UNK         0.0787 
    103 H103       23.4822  -29.3798  -43.7752 H         1 UNK         0.0787 
    104 H104       25.1251  -30.0097  -43.9409 H         1 UNK         0.0787 
    105 H105       22.4797  -29.5870  -40.4949 H         1 UNK         0.3055 
    106 H106       20.0064  -30.6209  -41.3718 H         1 UNK         0.1106 
    107 H107       20.3222  -28.4313  -40.2151 H         1 UNK         0.0828 
    108 H108       19.1119  -29.4106  -39.3989 H         1 UNK         0.0828 
    109 H109       20.7255  -29.2599  -38.7166 H         1 UNK         0.0828 
    110 H110       19.8741  -32.8430  -41.3854 H         1 UNK         0.2931 
    111 H111       20.3717  -34.4723  -39.0668 H         1 UNK         0.0412 
    112 H112       16.5678  -33.2978  -38.5807 H         1 UNK         0.3472 
    113 H113       17.6735  -32.4271  -39.6132 H         1 UNK         0.3472 
    114 H114       20.7736  -35.4789  -41.1942 H         1 UNK         0.0970 
    115 H115       19.4671  -36.3338  -40.4546 H         1 UNK         0.0970 
    116 H116       20.0230  -35.1243  -44.3458 H         1 UNK         0.0612 
    117 H117       20.8476  -34.2547  -43.0832 H         1 UNK         0.0612 
@<TRIPOS>BOND
     1    1    2 1    
     2    1   62 1    
     3    1   63 1    
     4    1   64 1    
     5    2    3 2    
     6    2    4 am   BACKBONE|DICT|INTERRES
     7    4    5 1    
     8    4   65 1    
     9    5    6 1    
    10    5   25 1    
    11    5   66 1    
    12    6    7 1    
    13    6   67 1    
    14    6   68 1    
    15    7    8 1    
    16    8    9 1    
    17    8   69 1    
    18    8   70 1    
    19    9   10 ar   
    20    9   14 ar   
    21   10   11 ar   
    22   10   71 1    
    23   11   12 ar   
    24   11   61 1    
    25   12   13 ar   
    26   12   72 1    
    27   13   14 ar   
    28   13   15 1    
    29   14   73 1    
    30   15   16 1    
    31   15   74 1    
    32   15   75 1    
    33   16   17 1    
    34   17   18 1    
    35   17   76 1    
    36   17   77 1    
    37   18   19 1    
    38   18   27 1    
    39   18   78 1    
    40   19   20 am   BACKBONE|DICT|INTERRES
    41   19   79 1    
    42   20   21 2    
    43   20   22 1    
    44   22   23 1    
    45   22   24 1    
    46   22   80 1    
    47   23   81 1    
    48   23   82 1    
    49   23   83 1    
    50   24   25 am   BACKBONE|DICT|INTERRES
    51   24   84 1    
    52   25   26 2    
    53   27   28 2    
    54   27   29 am   BACKBONE|DICT|INTERRES
    55   29   30 1    
    56   29   85 1    
    57   30   31 1    
    58   30   32 1    
    59   30   86 1    
    60   31   87 1    
    61   31   88 1    
    62   31   89 1    
    63   32   33 2    
    64   32   34 am   BACKBONE|DICT|INTERRES
    65   34   35 1    
    66   34   90 1    
    67   35   36 1    
    68   35   37 1    
    69   35   91 1    
    70   36   92 1    
    71   36   93 1    
    72   36   94 1    
    73   37   38 2    
    74   37   39 am   BACKBONE|DICT|INTERRES
    75   39   40 1    
    76   39   95 1    
    77   40   41 1    
    78   40   42 1    
    79   40   96 1    
    80   41   97 1    
    81   41   98 1    
    82   41   99 1    
    83   42   43 2    
    84   42   44 am   BACKBONE|DICT|INTERRES
    85   44   45 1    
    86   44  100 1    
    87   45   46 1    
    88   45   47 1    
    89   45  101 1    
    90   46  102 1    
    91   46  103 1    
    92   46  104 1    
    93   47   48 2    
    94   47   49 am   BACKBONE|DICT|INTERRES
    95   49   50 1    
    96   49  105 1    
    97   50   51 1    
    98   50   52 1    
    99   50  106 1    
   100   51  107 1    
   101   51  108 1    
   102   51  109 1    
   103   52   53 2    
   104   52   54 am   BACKBONE|DICT|INTERRES
   105   54   55 1    
   106   54  110 1    
   107   55   56 1    
   108   55   59 1    
   109   55  111 1    
   110   56   57 am   BACKBONE|DICT|INTERRES
   111   56   58 2    
   112   57  112 1    
   113   57  113 1    
   114   59   60 1    
   115   59  114 1    
   116   59  115 1    
   117   60   61 1    
   118   61  116 1    
   119   61  117 1    
@<TRIPOS>SUBSTRUCTURE
     1 UNK         1 GROUP             0       ****    0 ROOT    
