@<TRIPOS>MOLECULE
3R8
117   119    1
SMALL
USER_CHARGES


@<TRIPOS>ATOM
      1 CA         21.6490  -26.5258  -49.9649 C.3       0 UNK        -0.2013 
      2 C          21.8803  -26.2727  -48.4827 C.2       0 UNK         0.4866 
      3 O          22.2912  -25.1750  -48.1050 O.2       0 UNK        -0.5176 
      4 N          21.6320  -27.2846  -47.6425 N.am      1 UNK        -0.4884 
      5 CA         21.7388  -27.2248  -46.1811 C.3       1 UNK         0.0853 
      6 C6         21.6549  -28.6238  -45.4847 C.3       10 UNK        -0.0849 
      7 S7         21.0083  -30.0195  -46.4770 S.3       10 UNK        -0.2776 
      8 C8         19.2309  -29.6282  -46.6402 C.3       10 UNK         0.0316 
      9 C9         18.3868  -29.8340  -45.3827 C.ar      10 UNK        -0.0863 
     10 C10        18.6408  -30.8734  -44.4791 C.ar      10 UNK        -0.1009 
     11 C11        17.7963  -31.0967  -43.3813 C.ar      10 UNK        -0.0712 
     12 C12        16.6811  -30.2703  -43.2059 C.ar      10 UNK        -0.0894 
     13 C13        16.4061  -29.2362  -44.1057 C.ar      10 UNK        -0.0745 
     14 C14        17.2685  -29.0194  -45.1834 C.ar      10 UNK        -0.0972 
     15 C15        15.1539  -28.3822  -43.9458 C.3       10 UNK         0.0209 
     16 S16        15.5383  -26.6490  -43.5399 S.3       10 UNK        -0.2568 
     17 C17        16.1232  -26.7937  -41.8190 C.3       10 UNK        -0.0983 
     18 CA         17.6535  -27.0016  -41.7314 C.3       3 UNK         0.0876 
     19 N          18.4091  -25.9459  -42.4076 N.am      3 UNK        -0.4424 
     20 C          19.7289  -25.9761  -42.6161 C.2       2 UNK         0.4918 
     21 O          20.4862  -26.8335  -42.1503 O.2       2 UNK        -0.4875 
     22 CA         20.3041  -24.8861  -43.5333 C.3       2 UNK         0.0481 
     23 CB         21.1243  -23.8681  -42.7263 C.3       2 UNK        -0.1831 
     24 N          21.1657  -25.5246  -44.5241 N.am      2 UNK        -0.4498 
     25 C          20.7187  -26.2494  -45.5585 C.2       1 UNK         0.5027 
     26 O          19.5552  -26.2235  -45.9666 O.2       1 UNK        -0.4969 
     27 C          18.1094  -27.1853  -40.2737 C.2       3 UNK         0.5005 
     28 O          17.9784  -26.2570  -39.4729 O.2       3 UNK        -0.5279 
     29 N          18.6575  -28.3749  -39.9841 N.am      4 UNK        -0.4463 
     30 CA         19.2473  -28.7943  -38.7075 C.3       4 UNK         0.0283 
     31 CB         18.1730  -28.8612  -37.6006 C.3       4 UNK        -0.1875 
     32 C          20.4850  -27.9718  -38.2866 C.2       4 UNK         0.4949 
     33 O          20.7871  -27.9117  -37.0933 O.2       4 UNK        -0.5039 
     34 N          21.1746  -27.3450  -39.2523 N.am      5 UNK        -0.4663 
     35 CA         22.2870  -26.4261  -38.9956 C.3       5 UNK         0.0242 
     36 CB         21.7405  -24.9862  -38.9600 C.3       5 UNK        -0.1982 
     37 C          23.4541  -26.5666  -39.9876 C.2       5 UNK         0.5017 
     38 O          24.4200  -25.8116  -39.8629 O.2       5 UNK        -0.5012 
     39 N          23.3809  -27.5035  -40.9419 N.am      6 UNK        -0.4439 
     40 CA         24.4180  -27.7472  -41.9431 C.3       6 UNK         0.0297 
     41 CB         24.3120  -26.7080  -43.0734 C.3       6 UNK        -0.2006 
     42 C          24.2848  -29.1669  -42.5025 C.2       6 UNK         0.4892 
     43 O          23.2234  -29.7818  -42.3703 O.2       6 UNK        -0.5089 
     44 N          25.3670  -29.6330  -43.1434 N.am      7 UNK        -0.4243 
     45 CA         25.5406  -30.9569  -43.7534 C.3       7 UNK         0.0196 
     46 CB         24.6118  -31.1182  -44.9798 C.3       7 UNK        -0.2007 
     47 C          25.4076  -32.0886  -42.7150 C.2       7 UNK         0.5020 
     48 O          25.7836  -31.8992  -41.5558 O.2       7 UNK        -0.5147 
     49 N          24.8658  -33.2415  -43.1307 N.am      8 UNK        -0.4734 
     50 CA         24.5805  -34.3927  -42.2645 C.3       8 UNK         0.0238 
     51 CB         24.1552  -35.5861  -43.1357 C.3       8 UNK        -0.1912 
     52 C          23.5166  -34.1061  -41.1870 C.2       8 UNK         0.5038 
     53 O          23.4809  -34.8082  -40.1756 O.2       8 UNK        -0.5046 
     54 N          22.6869  -33.0817  -41.4193 N.am      9 UNK        -0.4200 
     55 CA         21.6966  -32.5597  -40.4706 C.3       9 UNK         0.0839 
     56 C          22.3105  -31.6658  -39.3535 C.2       9 UNK         0.5513 
     57 N          23.5789  -31.2755  -39.4177 N.am      9 UNK        -0.7519 
     58 O          21.6234  -31.3409  -38.3905 O.2       9 UNK        -0.4960 
     59 C59        20.5308  -31.8469  -41.2073 C.3       10 UNK        -0.0876 
     60 S60        19.6729  -32.9769  -42.3559 S.3       10 UNK        -0.2414 
     61 C61        17.9909  -32.2688  -42.4158 C.3       10 UNK         0.0169 
     62 H62        20.9032  -25.8316  -50.3516 H         1 UNK         0.0903 
     63 H63        22.5745  -26.3763  -50.5203 H         1 UNK         0.0903 
     64 H64        21.2989  -27.5402  -50.1558 H         1 UNK         0.0903 
     65 H65        21.3038  -28.1702  -48.0024 H         1 UNK         0.3096 
     66 H66        22.7317  -26.8169  -45.9778 H         1 UNK         0.1121 
     67 H67        21.1011  -28.5938  -44.5424 H         1 UNK         0.0849 
     68 H68        22.6629  -28.9125  -45.1873 H         1 UNK         0.0849 
     69 H69        19.1248  -28.6074  -47.0075 H         1 UNK         0.0865 
     70 H70        18.8187  -30.2687  -47.4209 H         1 UNK         0.0865 
     71 H71        19.4811  -31.5286  -44.6567 H         1 UNK         0.1346 
     72 H72        16.0063  -30.4523  -42.3802 H         1 UNK         0.1412 
     73 H73        17.0491  -28.2252  -45.8848 H         1 UNK         0.1426 
     74 H74        14.4891  -28.7952  -43.1856 H         1 UNK         0.0716 
     75 H75        14.5928  -28.4034  -44.8811 H         1 UNK         0.0716 
     76 H76        15.8310  -25.8856  -41.2881 H         1 UNK         0.0695 
     77 H77        15.5929  -27.6140  -41.3315 H         1 UNK         0.0695 
     78 H78        17.8925  -27.9205  -42.2676 H         1 UNK         0.0983 
     79 H79        17.8583  -25.2096  -42.8237 H         1 UNK         0.3095 
     80 H80        19.4929  -24.3619  -44.0433 H         1 UNK         0.0454 
     81 H81        21.9606  -24.3397  -42.2083 H         1 UNK         0.0851 
     82 H82        20.5057  -23.3789  -41.9728 H         1 UNK         0.0851 
     83 H83        21.5280  -23.0862  -43.3696 H         1 UNK         0.0851 
     84 H84        22.1350  -25.6086  -44.2596 H         1 UNK         0.2976 
     85 H85        18.7363  -29.0477  -40.7337 H         1 UNK         0.3116 
     86 H86        19.6037  -29.8100  -38.8645 H         1 UNK         0.0646 
     87 H87        17.8172  -27.8694  -37.3201 H         1 UNK         0.0847 
     88 H88        18.5698  -29.3290  -36.6988 H         1 UNK         0.0847 
     89 H89        17.3125  -29.4510  -37.9156 H         1 UNK         0.0847 
     90 H90        20.8428  -27.3911  -40.2110 H         1 UNK         0.3040 
     91 H91        22.7258  -26.6433  -38.0193 H         1 UNK         0.1015 
     92 H92        21.2446  -24.7243  -39.8940 H         1 UNK         0.0786 
     93 H93        22.5356  -24.2588  -38.7916 H         1 UNK         0.0786 
     94 H94        21.0155  -24.8613  -38.1554 H         1 UNK         0.0786 
     95 H95        22.5941  -28.1386  -40.9875 H         1 UNK         0.3172 
     96 H96        25.3970  -27.6676  -41.4652 H         1 UNK         0.0595 
     97 H97        25.0881  -26.8552  -43.8254 H         1 UNK         0.0839 
     98 H98        24.4169  -25.6901  -42.6975 H         1 UNK         0.0839 
     99 H99        23.3504  -26.7874  -43.5738 H         1 UNK         0.0839 
    100 H100       26.1887  -29.0452  -43.1620 H         1 UNK         0.2998 
    101 H101       26.5710  -30.9954  -44.1099 H         1 UNK         0.0822 
    102 H102       24.8641  -32.0065  -45.5598 H         1 UNK         0.0787 
    103 H103       23.5624  -31.1956  -44.6916 H         1 UNK         0.0787 
    104 H104       24.7058  -30.2688  -45.6565 H         1 UNK         0.0787 
    105 H105       24.5856  -33.3193  -44.0982 H         1 UNK         0.3055 
    106 H106       25.5027  -34.6567  -41.7418 H         1 UNK         0.1106 
    107 H107       23.9648  -36.4682  -42.5225 H         1 UNK         0.0828 
    108 H108       23.2416  -35.3744  -43.6928 H         1 UNK         0.0828 
    109 H109       24.9328  -35.8543  -43.8511 H         1 UNK         0.0828 
    110 H110       22.8080  -32.5454  -42.2657 H         1 UNK         0.2931 
    111 H111       21.2647  -33.4162  -39.9489 H         1 UNK         0.0412 
    112 H112       24.1646  -31.5321  -40.2026 H         1 UNK         0.3472 
    113 H113       23.9565  -30.7131  -38.6727 H         1 UNK         0.3472 
    114 H114       20.8893  -30.9792  -41.7640 H         1 UNK         0.0970 
    115 H115       19.8038  -31.4758  -40.4849 H         1 UNK         0.0970 
    116 H116       17.3093  -33.0636  -42.7210 H         1 UNK         0.0612 
    117 H117       17.6885  -31.9815  -41.4077 H         1 UNK         0.0612 
@<TRIPOS>BOND
     1    1    2 1    
     2    1   62 1    
     3    1   63 1    
     4    1   64 1    
     5    2    3 2    
     6    2    4 am   BACKBONE|DICT|INTERRES
     7    4    5 1    
     8    4   65 1    
     9    5    6 1    
    10    5   25 1    
    11    5   66 1    
    12    6    7 1    
    13    6   67 1    
    14    6   68 1    
    15    7    8 1    
    16    8    9 1    
    17    8   69 1    
    18    8   70 1    
    19    9   10 ar   
    20    9   14 ar   
    21   10   11 ar   
    22   10   71 1    
    23   11   12 ar   
    24   11   61 1    
    25   12   13 ar   
    26   12   72 1    
    27   13   14 ar   
    28   13   15 1    
    29   14   73 1    
    30   15   16 1    
    31   15   74 1    
    32   15   75 1    
    33   16   17 1    
    34   17   18 1    
    35   17   76 1    
    36   17   77 1    
    37   18   19 1    
    38   18   27 1    
    39   18   78 1    
    40   19   20 am   BACKBONE|DICT|INTERRES
    41   19   79 1    
    42   20   21 2    
    43   20   22 1    
    44   22   23 1    
    45   22   24 1    
    46   22   80 1    
    47   23   81 1    
    48   23   82 1    
    49   23   83 1    
    50   24   25 am   BACKBONE|DICT|INTERRES
    51   24   84 1    
    52   25   26 2    
    53   27   28 2    
    54   27   29 am   BACKBONE|DICT|INTERRES
    55   29   30 1    
    56   29   85 1    
    57   30   31 1    
    58   30   32 1    
    59   30   86 1    
    60   31   87 1    
    61   31   88 1    
    62   31   89 1    
    63   32   33 2    
    64   32   34 am   BACKBONE|DICT|INTERRES
    65   34   35 1    
    66   34   90 1    
    67   35   36 1    
    68   35   37 1    
    69   35   91 1    
    70   36   92 1    
    71   36   93 1    
    72   36   94 1    
    73   37   38 2    
    74   37   39 am   BACKBONE|DICT|INTERRES
    75   39   40 1    
    76   39   95 1    
    77   40   41 1    
    78   40   42 1    
    79   40   96 1    
    80   41   97 1    
    81   41   98 1    
    82   41   99 1    
    83   42   43 2    
    84   42   44 am   BACKBONE|DICT|INTERRES
    85   44   45 1    
    86   44  100 1    
    87   45   46 1    
    88   45   47 1    
    89   45  101 1    
    90   46  102 1    
    91   46  103 1    
    92   46  104 1    
    93   47   48 2    
    94   47   49 am   BACKBONE|DICT|INTERRES
    95   49   50 1    
    96   49  105 1    
    97   50   51 1    
    98   50   52 1    
    99   50  106 1    
   100   51  107 1    
   101   51  108 1    
   102   51  109 1    
   103   52   53 2    
   104   52   54 am   BACKBONE|DICT|INTERRES
   105   54   55 1    
   106   54  110 1    
   107   55   56 1    
   108   55   59 1    
   109   55  111 1    
   110   56   57 am   BACKBONE|DICT|INTERRES
   111   56   58 2    
   112   57  112 1    
   113   57  113 1    
   114   59   60 1    
   115   59  114 1    
   116   59  115 1    
   117   60   61 1    
   118   61  116 1    
   119   61  117 1    
@<TRIPOS>SUBSTRUCTURE
     1 UNK         1 GROUP             0       ****    0 ROOT    
