@<TRIPOS>MOLECULE
3R8
117   119    1
SMALL
USER_CHARGES


@<TRIPOS>ATOM
      1 CA         15.4800  -24.8695  -44.9447 C.3       0 UNK        -0.2013 
      2 C          16.7882  -24.8526  -45.7198 C.2       0 UNK         0.4866 
      3 O          17.4257  -23.8042  -45.8178 O.2       0 UNK        -0.5176 
      4 N          17.1838  -26.0012  -46.2840 N.am      1 UNK        -0.4884 
      5 CA         18.3821  -26.1708  -47.1153 C.3       1 UNK         0.0853 
      6 C6         18.3937  -27.5124  -47.9058 C.3       10 UNK        -0.0849 
      7 S7         17.6620  -28.9527  -47.0452 S.3       10 UNK        -0.2776 
      8 C8         19.0684  -29.6265  -46.0911 C.3       10 UNK         0.0316 
      9 C9         18.7757  -29.8388  -44.6024 C.ar      10 UNK        -0.0863 
     10 C10        19.5261  -30.7837  -43.8959 C.ar      10 UNK        -0.1009 
     11 C11        19.2771  -31.0333  -42.5429 C.ar      10 UNK        -0.0712 
     12 C12        18.2843  -30.3074  -41.8788 C.ar      10 UNK        -0.0894 
     13 C13        17.5305  -29.3498  -42.5627 C.ar      10 UNK        -0.0745 
     14 C14        17.7800  -29.1254  -43.9206 C.ar      10 UNK        -0.0972 
     15 C15        16.4058  -28.6040  -41.8516 C.3       10 UNK         0.0209 
     16 S16        16.4683  -26.8026  -42.1227 S.3       10 UNK        -0.2568 
     17 C17        17.5751  -26.2386  -40.7896 C.3       10 UNK        -0.0983 
     18 CA         19.0693  -26.5903  -40.9979 C.3       3 UNK         0.0876 
     19 N          19.5552  -26.2655  -42.3469 N.am      3 UNK        -0.4424 
     20 C          20.7521  -26.6334  -42.8258 C.2       2 UNK         0.4918 
     21 O          21.6210  -27.1639  -42.1329 O.2       2 UNK        -0.4875 
     22 CA         21.0365  -26.3729  -44.3128 C.3       2 UNK         0.0481 
     23 CB         22.1142  -27.3350  -44.8609 C.3       2 UNK        -0.1831 
     24 N          19.8171  -26.4448  -45.1248 N.am      2 UNK        -0.4498 
     25 C          19.7055  -25.9340  -46.3590 C.2       1 UNK         0.5027 
     26 O          20.6013  -25.2966  -46.9158 O.2       1 UNK        -0.4969 
     27 C          19.9180  -25.9588  -39.8751 C.2       3 UNK         0.5005 
     28 O          20.1441  -26.6032  -38.8502 O.2       3 UNK        -0.5279 
     29 N          20.3789  -24.7181  -40.0940 N.am      4 UNK        -0.4463 
     30 CA         21.2329  -23.9764  -39.1615 C.3       4 UNK         0.0283 
     31 CB         21.2057  -22.4818  -39.5202 C.3       4 UNK        -0.1875 
     32 C          22.6807  -24.4955  -39.1335 C.2       4 UNK         0.4949 
     33 O          23.3197  -24.4438  -38.0826 O.2       4 UNK        -0.5039 
     34 N          23.1717  -24.9787  -40.2830 N.am      5 UNK        -0.4663 
     35 CA         24.5080  -25.5608  -40.4299 C.3       5 UNK         0.0242 
     36 CB         24.9337  -25.4838  -41.9055 C.3       5 UNK        -0.1982 
     37 C          24.5737  -27.0133  -39.9312 C.2       5 UNK         0.5017 
     38 O          25.6276  -27.4366  -39.4561 O.2       5 UNK        -0.5012 
     39 N          23.4554  -27.7417  -40.0704 N.am      6 UNK        -0.4439 
     40 CA         23.2740  -29.1708  -39.7991 C.3       6 UNK         0.0297 
     41 CB         23.4347  -29.4809  -38.2958 C.3       6 UNK        -0.2006 
     42 C          24.1539  -30.0538  -40.7061 C.2       6 UNK         0.4892 
     43 O          24.6881  -31.0667  -40.2510 O.2       6 UNK        -0.5089 
     44 N          24.2930  -29.6444  -41.9751 N.am      7 UNK        -0.4243 
     45 CA         24.9812  -30.4047  -43.0178 C.3       7 UNK         0.0196 
     46 CB         25.4238  -29.4508  -44.1389 C.3       7 UNK        -0.2007 
     47 C          24.0437  -31.4907  -43.5633 C.2       7 UNK         0.5020 
     48 O          22.8579  -31.2175  -43.7505 O.2       7 UNK        -0.5147 
     49 N          24.5961  -32.6829  -43.8230 N.am      8 UNK        -0.4734 
     50 CA         23.8830  -33.9264  -44.1509 C.3       8 UNK         0.0238 
     51 CB         23.0466  -33.7885  -45.4460 C.3       8 UNK        -0.1912 
     52 C          23.0916  -34.4574  -42.9352 C.2       8 UNK         0.5038 
     53 O          23.5272  -34.2490  -41.8007 O.2       8 UNK        -0.5046 
     54 N          21.9841  -35.1711  -43.1836 N.am      9 UNK        -0.4200 
     55 CA         21.1416  -35.8436  -42.1736 C.3       9 UNK         0.0839 
     56 C          21.8446  -37.0177  -41.4220 C.2       9 UNK         0.5513 
     57 N          22.9111  -37.5991  -41.9589 N.am      9 UNK        -0.7519 
     58 O          21.4030  -37.4350  -40.3541 O.2       9 UNK        -0.4960 
     59 C59        20.4231  -34.8526  -41.2093 C.3       10 UNK        -0.0876 
     60 S60        19.2758  -33.7390  -42.0858 S.3       10 UNK        -0.2414 
     61 C61        20.0526  -32.1185  -41.8129 C.3       10 UNK         0.0169 
     62 H62        15.6280  -24.4550  -43.9479 H         1 UNK         0.0903 
     63 H63        14.7333  -24.2634  -45.4568 H         1 UNK         0.0903 
     64 H64        15.0832  -25.8788  -44.8360 H         1 UNK         0.0903 
     65 H65        16.6127  -26.8303  -46.1906 H         1 UNK         0.3096 
     66 H66        18.3427  -25.3733  -47.8617 H         1 UNK         0.1121 
     67 H67        17.8022  -27.3763  -48.8127 H         1 UNK         0.0849 
     68 H68        19.3931  -27.7662  -48.2662 H         1 UNK         0.0849 
     69 H69        19.9420  -28.9844  -46.1932 H         1 UNK         0.0865 
     70 H70        19.3455  -30.5795  -46.5446 H         1 UNK         0.0865 
     71 H71        20.2955  -31.3493  -44.4042 H         1 UNK         0.1346 
     72 H72        18.0825  -30.5091  -40.8356 H         1 UNK         0.1412 
     73 H73        17.1751  -28.3977  -44.4402 H         1 UNK         0.1426 
     74 H74        16.4072  -28.8116  -40.7805 H         1 UNK         0.0716 
     75 H75        15.4550  -28.9769  -42.2345 H         1 UNK         0.0716 
     76 H76        17.2151  -26.6503  -39.8447 H         1 UNK         0.0695 
     77 H77        17.4475  -25.1569  -40.7128 H         1 UNK         0.0695 
     78 H78        19.1732  -27.6714  -40.8852 H         1 UNK         0.0983 
     79 H79        18.8981  -25.7991  -42.9542 H         1 UNK         0.3095 
     80 H80        21.4252  -25.3543  -44.3705 H         1 UNK         0.0454 
     81 H81        22.3145  -27.1709  -45.9191 H         1 UNK         0.0851 
     82 H82        21.8256  -28.3789  -44.7300 H         1 UNK         0.0851 
     83 H83        23.0598  -27.1928  -44.3386 H         1 UNK         0.0851 
     84 H84        19.0464  -26.9765  -44.7441 H         1 UNK         0.2976 
     85 H85        20.1335  -24.2597  -40.9599 H         1 UNK         0.3116 
     86 H86        20.8219  -24.0898  -38.1558 H         1 UNK         0.0646 
     87 H87        21.8149  -21.9037  -38.8239 H         1 UNK         0.0847 
     88 H88        20.1936  -22.0796  -39.4718 H         1 UNK         0.0847 
     89 H89        21.5944  -22.2967  -40.5224 H         1 UNK         0.0847 
     90 H90        22.5707  -24.9996  -41.0935 H         1 UNK         0.3040 
     91 H91        25.2165  -24.9756  -39.8386 H         1 UNK         0.1015 
     92 H92        24.9606  -24.4523  -42.2572 H         1 UNK         0.0786 
     93 H93        24.2564  -26.0418  -42.5523 H         1 UNK         0.0786 
     94 H94        25.9329  -25.8990  -42.0454 H         1 UNK         0.0786 
     95 H95        22.6770  -27.3042  -40.5566 H         1 UNK         0.3172 
     96 H96        22.2416  -29.3967  -40.0712 H         1 UNK         0.0595 
     97 H97        24.4617  -29.3387  -37.9586 H         1 UNK         0.0839 
     98 H98        23.1635  -30.5151  -38.0805 H         1 UNK         0.0839 
     99 H99        22.7899  -28.8442  -37.6899 H         1 UNK         0.0839 
    100 H100       23.7620  -28.8393  -42.2753 H         1 UNK         0.2998 
    101 H101       25.8699  -30.8713  -42.5870 H         1 UNK         0.0822 
    102 H102       24.5711  -29.0127  -44.6574 H         1 UNK         0.0787 
    103 H103       26.0387  -28.6378  -43.7520 H         1 UNK         0.0787 
    104 H104       26.0171  -29.9804  -44.8853 H         1 UNK         0.0787 
    105 H105       25.5802  -32.7977  -43.6220 H         1 UNK         0.3055 
    106 H106       24.6582  -34.6697  -44.3439 H         1 UNK         0.1106 
    107 H107       22.7353  -34.7632  -45.8228 H         1 UNK         0.0828 
    108 H108       22.1460  -33.1924  -45.2936 H         1 UNK         0.0828 
    109 H109       23.6252  -33.3152  -46.2393 H         1 UNK         0.0828 
    110 H110       21.6997  -35.3022  -44.1430 H         1 UNK         0.2931 
    111 H111       20.3597  -36.3400  -42.7496 H         1 UNK         0.0412 
    112 H112       23.2765  -37.2857  -42.8436 H         1 UNK         0.3472 
    113 H113       23.3526  -38.3640  -41.4727 H         1 UNK         0.3472 
    114 H114       19.8243  -35.3962  -40.4766 H         1 UNK         0.0970 
    115 H115       21.1465  -34.2768  -40.6304 H         1 UNK         0.0970 
    116 H116       20.0909  -31.9071  -40.7432 H         1 UNK         0.0612 
    117 H117       21.0844  -32.1480  -42.1606 H         1 UNK         0.0612 
@<TRIPOS>BOND
     1    1    2 1    
     2    1   62 1    
     3    1   63 1    
     4    1   64 1    
     5    2    3 2    
     6    2    4 am   BACKBONE|DICT|INTERRES
     7    4    5 1    
     8    4   65 1    
     9    5    6 1    
    10    5   25 1    
    11    5   66 1    
    12    6    7 1    
    13    6   67 1    
    14    6   68 1    
    15    7    8 1    
    16    8    9 1    
    17    8   69 1    
    18    8   70 1    
    19    9   10 ar   
    20    9   14 ar   
    21   10   11 ar   
    22   10   71 1    
    23   11   12 ar   
    24   11   61 1    
    25   12   13 ar   
    26   12   72 1    
    27   13   14 ar   
    28   13   15 1    
    29   14   73 1    
    30   15   16 1    
    31   15   74 1    
    32   15   75 1    
    33   16   17 1    
    34   17   18 1    
    35   17   76 1    
    36   17   77 1    
    37   18   19 1    
    38   18   27 1    
    39   18   78 1    
    40   19   20 am   BACKBONE|DICT|INTERRES
    41   19   79 1    
    42   20   21 2    
    43   20   22 1    
    44   22   23 1    
    45   22   24 1    
    46   22   80 1    
    47   23   81 1    
    48   23   82 1    
    49   23   83 1    
    50   24   25 am   BACKBONE|DICT|INTERRES
    51   24   84 1    
    52   25   26 2    
    53   27   28 2    
    54   27   29 am   BACKBONE|DICT|INTERRES
    55   29   30 1    
    56   29   85 1    
    57   30   31 1    
    58   30   32 1    
    59   30   86 1    
    60   31   87 1    
    61   31   88 1    
    62   31   89 1    
    63   32   33 2    
    64   32   34 am   BACKBONE|DICT|INTERRES
    65   34   35 1    
    66   34   90 1    
    67   35   36 1    
    68   35   37 1    
    69   35   91 1    
    70   36   92 1    
    71   36   93 1    
    72   36   94 1    
    73   37   38 2    
    74   37   39 am   BACKBONE|DICT|INTERRES
    75   39   40 1    
    76   39   95 1    
    77   40   41 1    
    78   40   42 1    
    79   40   96 1    
    80   41   97 1    
    81   41   98 1    
    82   41   99 1    
    83   42   43 2    
    84   42   44 am   BACKBONE|DICT|INTERRES
    85   44   45 1    
    86   44  100 1    
    87   45   46 1    
    88   45   47 1    
    89   45  101 1    
    90   46  102 1    
    91   46  103 1    
    92   46  104 1    
    93   47   48 2    
    94   47   49 am   BACKBONE|DICT|INTERRES
    95   49   50 1    
    96   49  105 1    
    97   50   51 1    
    98   50   52 1    
    99   50  106 1    
   100   51  107 1    
   101   51  108 1    
   102   51  109 1    
   103   52   53 2    
   104   52   54 am   BACKBONE|DICT|INTERRES
   105   54   55 1    
   106   54  110 1    
   107   55   56 1    
   108   55   59 1    
   109   55  111 1    
   110   56   57 am   BACKBONE|DICT|INTERRES
   111   56   58 2    
   112   57  112 1    
   113   57  113 1    
   114   59   60 1    
   115   59  114 1    
   116   59  115 1    
   117   60   61 1    
   118   61  116 1    
   119   61  117 1    
@<TRIPOS>SUBSTRUCTURE
     1 UNK         1 GROUP             0       ****    0 ROOT    
