@<TRIPOS>MOLECULE
3R8
117   119    1
SMALL
USER_CHARGES


@<TRIPOS>ATOM
      1 CA         17.3858  -22.8118  -47.3437 C.3       0 UNK        -0.2013 
      2 C          18.6078  -23.5385  -46.8024 C.2       0 UNK         0.4866 
      3 O          19.6287  -22.9038  -46.5380 O.2       0 UNK        -0.5176 
      4 N          18.5111  -24.8650  -46.6453 N.am      1 UNK        -0.4884 
      5 CA         19.5577  -25.7463  -46.1112 C.3       1 UNK         0.0853 
      6 C6         19.2616  -27.2649  -46.3323 C.3       10 UNK        -0.0849 
      7 S7         17.4994  -27.7220  -46.5450 S.3       10 UNK        -0.2776 
      8 C8         16.9687  -28.1803  -44.8579 C.3       10 UNK         0.0316 
      9 C9         17.4388  -29.5336  -44.3224 C.ar      10 UNK        -0.0863 
     10 C10        18.1623  -30.4618  -45.0837 C.ar      10 UNK        -0.1009 
     11 C11        18.5245  -31.7000  -44.5423 C.ar      10 UNK        -0.0712 
     12 C12        18.1673  -32.0079  -43.2253 C.ar      10 UNK        -0.0894 
     13 C13        17.4319  -31.1003  -42.4583 C.ar      10 UNK        -0.0745 
     14 C14        17.0761  -29.8692  -43.0147 C.ar      10 UNK        -0.0972 
     15 C15        16.9540  -31.4810  -41.0616 C.3       10 UNK         0.0209 
     16 S16        18.1044  -30.9647  -39.7475 S.3       10 UNK        -0.2568 
     17 C17        17.8075  -29.1662  -39.6432 C.3       10 UNK        -0.0983 
     18 CA         19.0604  -28.3515  -40.0698 C.3       3 UNK         0.0876 
     19 N          18.6894  -27.1291  -40.8034 N.am      3 UNK        -0.4424 
     20 C          19.4777  -26.4524  -41.6508 C.2       2 UNK         0.4918 
     21 O          20.6587  -26.7497  -41.8503 O.2       2 UNK        -0.4875 
     22 CA         18.8601  -25.2180  -42.3367 C.3       2 UNK         0.0481 
     23 CB         19.5404  -23.9198  -41.8645 C.3       2 UNK        -0.1831 
     24 N          18.8564  -25.3251  -43.8021 N.am      2 UNK        -0.4498 
     25 C          19.9002  -25.4391  -44.6397 C.2       1 UNK         0.5027 
     26 O          21.0811  -25.3094  -44.3178 O.2       1 UNK        -0.4969 
     27 C          20.0498  -28.0851  -38.9027 C.2       3 UNK         0.5005 
     28 O          19.8369  -28.5295  -37.7731 O.2       3 UNK        -0.5279 
     29 N          21.1193  -27.3483  -39.2069 N.am      4 UNK        -0.4463 
     30 CA         22.2310  -26.9900  -38.3363 C.3       4 UNK         0.0283 
     31 CB         21.8518  -25.8347  -37.3913 C.3       4 UNK        -0.1875 
     32 C          23.4270  -26.6378  -39.2230 C.2       4 UNK         0.4949 
     33 O          24.4736  -27.2719  -39.1029 O.2       4 UNK        -0.5039 
     34 N          23.2292  -25.6884  -40.1519 N.am      5 UNK        -0.4663 
     35 CA         24.2242  -25.2865  -41.1532 C.3       5 UNK         0.0242 
     36 CB         23.7471  -24.0215  -41.8830 C.3       5 UNK        -0.1982 
     37 C          24.5422  -26.4041  -42.1609 C.2       5 UNK         0.5017 
     38 O          25.7064  -26.5752  -42.5230 O.2       5 UNK        -0.5012 
     39 N          23.5155  -27.1716  -42.5560 N.am      6 UNK        -0.4439 
     40 CA         23.6502  -28.3687  -43.3902 C.3       6 UNK         0.0297 
     41 CB         22.2943  -28.6814  -44.0470 C.3       6 UNK        -0.2006 
     42 C          24.1616  -29.6023  -42.6226 C.2       6 UNK         0.4892 
     43 O          24.4119  -30.6241  -43.2605 O.2       6 UNK        -0.5089 
     44 N          24.2563  -29.5223  -41.2834 N.am      7 UNK        -0.4243 
     45 CA         24.6084  -30.6066  -40.3517 C.3       7 UNK         0.0196 
     46 CB         26.1021  -30.9690  -40.4860 C.3       7 UNK        -0.2007 
     47 C          23.6813  -31.8333  -40.4873 C.2       7 UNK         0.5020 
     48 O          24.1439  -32.9740  -40.4279 O.2       7 UNK        -0.5147 
     49 N          22.3910  -31.5618  -40.7418 N.am      8 UNK        -0.4734 
     50 CA         21.3244  -32.5163  -41.0815 C.3       8 UNK         0.0238 
     51 CB         20.9774  -33.4009  -39.8661 C.3       8 UNK        -0.1912 
     52 C          21.6027  -33.3458  -42.3547 C.2       8 UNK         0.5038 
     53 O          21.0063  -34.4101  -42.5261 O.2       8 UNK        -0.5046 
     54 N          22.4964  -32.8443  -43.2187 N.am      9 UNK        -0.4200 
     55 CA         22.9968  -33.4835  -44.4439 C.3       9 UNK         0.0839 
     56 C          23.8872  -34.7363  -44.1856 C.2       9 UNK         0.5513 
     57 N          24.4246  -34.9296  -42.9854 N.am      9 UNK        -0.7519 
     58 O          24.1207  -35.5331  -45.0912 O.2       9 UNK        -0.4960 
     59 C59        21.8989  -33.7185  -45.5200 C.3       10 UNK        -0.0876 
     60 S60        20.9196  -32.2115  -45.8673 S.3       10 UNK        -0.2414 
     61 C61        19.2372  -32.7344  -45.4024 C.3       10 UNK         0.0169 
     62 H62        17.6332  -22.3044  -48.2757 H         1 UNK         0.0903 
     63 H63        16.5582  -23.4938  -47.5387 H         1 UNK         0.0903 
     64 H64        17.0468  -22.0636  -46.6278 H         1 UNK         0.0903 
     65 H65        17.6545  -25.3390  -46.9006 H         1 UNK         0.3096 
     66 H66        20.4672  -25.5146  -46.6711 H         1 UNK         0.1121 
     67 H67        19.7012  -27.8903  -45.5524 H         1 UNK         0.0849 
     68 H68        19.7634  -27.5801  -47.2485 H         1 UNK         0.0849 
     69 H69        17.2669  -27.4011  -44.1599 H         1 UNK         0.0865 
     70 H70        15.8777  -28.1828  -44.8532 H         1 UNK         0.0865 
     71 H71        18.4338  -30.2442  -46.1066 H         1 UNK         0.1346 
     72 H72        18.4281  -32.9715  -42.8086 H         1 UNK         0.1412 
     73 H73        16.4840  -29.1737  -42.4374 H         1 UNK         0.1426 
     74 H74        15.9659  -31.0596  -40.8704 H         1 UNK         0.0716 
     75 H75        16.8302  -32.5634  -41.0012 H         1 UNK         0.0716 
     76 H76        17.4766  -28.9158  -38.6336 H         1 UNK         0.0695 
     77 H77        16.9548  -28.9211  -40.2742 H         1 UNK         0.0695 
     78 H78        19.6150  -28.9623  -40.7867 H         1 UNK         0.0983 
     79 H79        17.7540  -26.7866  -40.6379 H         1 UNK         0.3095 
     80 H80        17.8109  -25.1599  -42.0431 H         1 UNK         0.0454 
     81 H81        19.0707  -23.0433  -42.3104 H         1 UNK         0.0851 
     82 H82        20.5981  -23.8952  -42.1209 H         1 UNK         0.0851 
     83 H83        19.4673  -23.8118  -40.7817 H         1 UNK         0.0851 
     84 H84        17.9410  -25.4019  -44.2212 H         1 UNK         0.2976 
     85 H85        21.1941  -27.0526  -40.1788 H         1 UNK         0.3116 
     86 H86        22.5024  -27.8615  -37.7364 H         1 UNK         0.0646 
     87 H87        21.0553  -26.1290  -36.7078 H         1 UNK         0.0847 
     88 H88        22.7048  -25.5346  -36.7813 H         1 UNK         0.0847 
     89 H89        21.5121  -24.9537  -37.9366 H         1 UNK         0.0847 
     90 H90        22.3426  -25.2065  -40.1805 H         1 UNK         0.3040 
     91 H91        25.1495  -25.0468  -40.6241 H         1 UNK         0.1015 
     92 H92        22.8577  -24.2142  -42.4829 H         1 UNK         0.0786 
     93 H93        24.5178  -23.6532  -42.5616 H         1 UNK         0.0786 
     94 H94        23.5194  -23.2161  -41.1846 H         1 UNK         0.0786 
     95 H95        22.5724  -26.9193  -42.2718 H         1 UNK         0.3172 
     96 H96        24.3696  -28.1611  -44.1849 H         1 UNK         0.0595 
     97 H97        21.5189  -28.8884  -43.3087 H         1 UNK         0.0839 
     98 H98        22.3617  -29.5533  -44.6994 H         1 UNK         0.0839 
     99 H99        21.9594  -27.8483  -44.6628 H         1 UNK         0.0839 
    100 H100       24.0791  -28.6246  -40.8511 H         1 UNK         0.2998 
    101 H101       24.4513  -30.2143  -39.3457 H         1 UNK         0.0822 
    102 H102       26.4015  -31.6864  -39.7209 H         1 UNK         0.0787 
    103 H103       26.3246  -31.4155  -41.4558 H         1 UNK         0.0787 
    104 H104       26.7343  -30.0888  -40.3688 H         1 UNK         0.0787 
    105 H105       22.1294  -30.5876  -40.7848 H         1 UNK         0.3055 
    106 H106       20.4449  -31.9158  -41.3157 H         1 UNK         0.1106 
    107 H107       20.7655  -32.7965  -38.9841 H         1 UNK         0.0828 
    108 H108       20.0896  -34.0036  -40.0613 H         1 UNK         0.0828 
    109 H109       21.7886  -34.0862  -39.6188 H         1 UNK         0.0828 
    110 H110       22.9719  -31.9801  -42.9843 H         1 UNK         0.2931 
    111 H111       23.6870  -32.7532  -44.8672 H         1 UNK         0.0412 
    112 H112       25.0073  -35.7369  -42.8297 H         1 UNK         0.3472 
    113 H113       24.2560  -34.2751  -42.2315 H         1 UNK         0.3472 
    114 H114       21.2529  -34.5464  -45.2267 H         1 UNK         0.0970 
    115 H115       22.3596  -34.0281  -46.4596 H         1 UNK         0.0970 
    116 H116       18.6604  -32.9030  -46.3127 H         1 UNK         0.0612 
    117 H117       19.2617  -33.6916  -44.8810 H         1 UNK         0.0612 
@<TRIPOS>BOND
     1    1    2 1    
     2    1   62 1    
     3    1   63 1    
     4    1   64 1    
     5    2    3 2    
     6    2    4 am   BACKBONE|DICT|INTERRES
     7    4    5 1    
     8    4   65 1    
     9    5    6 1    
    10    5   25 1    
    11    5   66 1    
    12    6    7 1    
    13    6   67 1    
    14    6   68 1    
    15    7    8 1    
    16    8    9 1    
    17    8   69 1    
    18    8   70 1    
    19    9   10 ar   
    20    9   14 ar   
    21   10   11 ar   
    22   10   71 1    
    23   11   12 ar   
    24   11   61 1    
    25   12   13 ar   
    26   12   72 1    
    27   13   14 ar   
    28   13   15 1    
    29   14   73 1    
    30   15   16 1    
    31   15   74 1    
    32   15   75 1    
    33   16   17 1    
    34   17   18 1    
    35   17   76 1    
    36   17   77 1    
    37   18   19 1    
    38   18   27 1    
    39   18   78 1    
    40   19   20 am   BACKBONE|DICT|INTERRES
    41   19   79 1    
    42   20   21 2    
    43   20   22 1    
    44   22   23 1    
    45   22   24 1    
    46   22   80 1    
    47   23   81 1    
    48   23   82 1    
    49   23   83 1    
    50   24   25 am   BACKBONE|DICT|INTERRES
    51   24   84 1    
    52   25   26 2    
    53   27   28 2    
    54   27   29 am   BACKBONE|DICT|INTERRES
    55   29   30 1    
    56   29   85 1    
    57   30   31 1    
    58   30   32 1    
    59   30   86 1    
    60   31   87 1    
    61   31   88 1    
    62   31   89 1    
    63   32   33 2    
    64   32   34 am   BACKBONE|DICT|INTERRES
    65   34   35 1    
    66   34   90 1    
    67   35   36 1    
    68   35   37 1    
    69   35   91 1    
    70   36   92 1    
    71   36   93 1    
    72   36   94 1    
    73   37   38 2    
    74   37   39 am   BACKBONE|DICT|INTERRES
    75   39   40 1    
    76   39   95 1    
    77   40   41 1    
    78   40   42 1    
    79   40   96 1    
    80   41   97 1    
    81   41   98 1    
    82   41   99 1    
    83   42   43 2    
    84   42   44 am   BACKBONE|DICT|INTERRES
    85   44   45 1    
    86   44  100 1    
    87   45   46 1    
    88   45   47 1    
    89   45  101 1    
    90   46  102 1    
    91   46  103 1    
    92   46  104 1    
    93   47   48 2    
    94   47   49 am   BACKBONE|DICT|INTERRES
    95   49   50 1    
    96   49  105 1    
    97   50   51 1    
    98   50   52 1    
    99   50  106 1    
   100   51  107 1    
   101   51  108 1    
   102   51  109 1    
   103   52   53 2    
   104   52   54 am   BACKBONE|DICT|INTERRES
   105   54   55 1    
   106   54  110 1    
   107   55   56 1    
   108   55   59 1    
   109   55  111 1    
   110   56   57 am   BACKBONE|DICT|INTERRES
   111   56   58 2    
   112   57  112 1    
   113   57  113 1    
   114   59   60 1    
   115   59  114 1    
   116   59  115 1    
   117   60   61 1    
   118   61  116 1    
   119   61  117 1    
@<TRIPOS>SUBSTRUCTURE
     1 UNK         1 GROUP             0       ****    0 ROOT    
