@<TRIPOS>MOLECULE
3R8
117   119    1
SMALL
USER_CHARGES


@<TRIPOS>ATOM
      1 CA         23.0225  -23.1726  -48.9376 C.3       0 UNK        -0.2013 
      2 C          22.6113  -23.9703  -47.7090 C.2       0 UNK         0.4866 
      3 O          22.8664  -23.5373  -46.5847 O.2       0 UNK        -0.5176 
      4 N          21.9844  -25.1358  -47.9136 N.am      1 UNK        -0.4884 
      5 CA         21.4559  -25.9956  -46.8500 C.3       1 UNK         0.0853 
      6 C6         21.2040  -27.4313  -47.3771 C.3       10 UNK        -0.0849 
      7 S7         21.0355  -28.6513  -46.0304 S.3       10 UNK        -0.2776 
      8 C8         19.2742  -29.1147  -46.1849 C.3       10 UNK         0.0316 
      9 C9         18.6720  -29.7613  -44.9364 C.ar      10 UNK        -0.0863 
     10 C10        19.4422  -30.4953  -44.0249 C.ar      10 UNK        -0.1009 
     11 C11        18.8602  -31.0502  -42.8817 C.ar      10 UNK        -0.0712 
     12 C12        17.4897  -30.8925  -42.6578 C.ar      10 UNK        -0.0894 
     13 C13        16.7059  -30.1643  -43.5578 C.ar      10 UNK        -0.0745 
     14 C14        17.3015  -29.6152  -44.6981 C.ar      10 UNK        -0.0972 
     15 C15        15.2219  -29.9469  -43.2888 C.3       10 UNK         0.0209 
     16 S16        14.8033  -28.1780  -43.1263 S.3       10 UNK        -0.2568 
     17 C17        15.5165  -27.7392  -41.5020 C.3       10 UNK        -0.0983 
     18 CA         17.0320  -27.4153  -41.5462 C.3       3 UNK         0.0876 
     19 N          17.3860  -26.4509  -42.5894 N.am      3 UNK        -0.4424 
     20 C          18.6340  -26.2679  -43.0322 C.2       2 UNK         0.4918 
     21 O          19.6158  -26.8740  -42.5940 O.2       2 UNK        -0.4875 
     22 CA         18.8204  -25.2331  -44.1456 C.3       2 UNK         0.0481 
     23 CB         19.0235  -23.8236  -43.5640 C.3       2 UNK        -0.1831 
     24 N          19.9883  -25.6228  -44.9262 N.am      2 UNK        -0.4498 
     25 C          20.1853  -25.3773  -46.2246 C.2       1 UNK         0.5027 
     26 O          19.4057  -24.7275  -46.9273 O.2       1 UNK        -0.4969 
     27 C          17.5444  -26.9457  -40.1713 C.2       3 UNK         0.5005 
     28 O          17.4648  -25.7534  -39.8654 O.2       3 UNK        -0.5279 
     29 N          18.0647  -27.8971  -39.3816 N.am      4 UNK        -0.4463 
     30 CA         18.6834  -27.7288  -38.0575 C.3       4 UNK         0.0283 
     31 CB         17.6910  -27.1250  -37.0404 C.3       4 UNK        -0.1875 
     32 C          20.0374  -26.9853  -38.0632 C.2       4 UNK         0.4949 
     33 O          20.5706  -26.7109  -36.9869 O.2       4 UNK        -0.5039 
     34 N          20.5948  -26.7048  -39.2485 N.am      5 UNK        -0.4663 
     35 CA         21.9560  -26.1985  -39.4301 C.3       5 UNK         0.0242 
     36 CB         21.9888  -25.3138  -40.6894 C.3       5 UNK        -0.1982 
     37 C          22.9451  -27.3698  -39.5633 C.2       5 UNK         0.5017 
     38 O          22.5257  -28.5220  -39.7082 O.2       5 UNK        -0.5012 
     39 N          24.2472  -27.0529  -39.5414 N.am      6 UNK        -0.4439 
     40 CA         25.3285  -27.9936  -39.8452 C.3       6 UNK         0.0297 
     41 CB         26.6825  -27.3588  -39.4857 C.3       6 UNK        -0.2006 
     42 C          25.2729  -28.3906  -41.3302 C.2       6 UNK         0.4892 
     43 O          25.4257  -27.5235  -42.1937 O.2       6 UNK        -0.5089 
     44 N          25.0146  -29.6743  -41.5924 N.am      7 UNK        -0.4243 
     45 CA         24.7532  -30.2365  -42.9138 C.3       7 UNK         0.0196 
     46 CB         23.3415  -29.8235  -43.3856 C.3       7 UNK        -0.2007 
     47 C          24.9147  -31.7623  -42.8550 C.2       7 UNK         0.5020 
     48 O          25.2936  -32.3060  -41.8133 O.2       7 UNK        -0.5147 
     49 N          24.6012  -32.4295  -43.9742 N.am      8 UNK        -0.4734 
     50 CA         24.7215  -33.8779  -44.1947 C.3       8 UNK         0.0238 
     51 CB         24.3249  -34.1908  -45.6475 C.3       8 UNK        -0.1912 
     52 C          23.9339  -34.7777  -43.2207 C.2       8 UNK         0.5038 
     53 O          24.2337  -35.9704  -43.1454 O.2       8 UNK        -0.5046 
     54 N          22.9644  -34.2088  -42.4915 N.am      9 UNK        -0.4200 
     55 CA         22.2447  -34.8728  -41.3925 C.3       9 UNK         0.0839 
     56 C          23.1411  -35.2297  -40.1690 C.2       9 UNK         0.5513 
     57 N          24.2990  -34.6023  -39.9882 N.am      9 UNK        -0.7519 
     58 O          22.7743  -36.0883  -39.3711 O.2       9 UNK        -0.4960 
     59 C59        21.0076  -34.0658  -40.9161 C.3       10 UNK        -0.0876 
     60 S60        19.8902  -33.5469  -42.2642 S.3       10 UNK        -0.2414 
     61 C61        19.7235  -31.7812  -41.8674 C.3       10 UNK         0.0169 
     62 H62        22.7486  -23.6781  -49.8635 H         1 UNK         0.0903 
     63 H63        22.5393  -22.1959  -48.9292 H         1 UNK         0.0903 
     64 H64        24.1013  -23.0191  -48.9418 H         1 UNK         0.0903 
     65 H65        21.7708  -25.4232  -48.8583 H         1 UNK         0.3096 
     66 H66        22.2222  -26.0484  -46.0723 H         1 UNK         0.1121 
     67 H67        20.3387  -27.4644  -48.0422 H         1 UNK         0.0849 
     68 H68        22.0527  -27.7544  -47.9824 H         1 UNK         0.0849 
     69 H69        18.7031  -28.2171  -46.4280 H         1 UNK         0.0865 
     70 H70        19.1587  -29.7964  -47.0285 H         1 UNK         0.0865 
     71 H71        20.5014  -30.6283  -44.1909 H         1 UNK         0.1346 
     72 H72        17.0396  -31.3187  -41.7715 H         1 UNK         0.1412 
     73 H73        16.6925  -29.0501  -45.3909 H         1 UNK         0.1426 
     74 H74        14.8988  -30.4792  -42.3928 H         1 UNK         0.0716 
     75 H75        14.6509  -30.3670  -44.1179 H         1 UNK         0.0716 
     76 H76        15.3200  -28.5537  -40.8023 H         1 UNK         0.0695 
     77 H77        14.9588  -26.8787  -41.1269 H         1 UNK         0.0695 
     78 H78        17.5644  -28.3351  -41.7853 H         1 UNK         0.0983 
     79 H79        16.6278  -25.9078  -42.9745 H         1 UNK         0.3095 
     80 H80        17.9334  -25.2454  -44.7827 H         1 UNK         0.0454 
     81 H81        19.9048  -23.7774  -42.9229 H         1 UNK         0.0851 
     82 H82        18.1659  -23.5200  -42.9625 H         1 UNK         0.0851 
     83 H83        19.1449  -23.0821  -44.3537 H         1 UNK         0.0851 
     84 H84        20.6237  -26.2357  -44.4283 H         1 UNK         0.2976 
     85 H85        18.0872  -28.8435  -39.7369 H         1 UNK         0.3116 
     86 H86        18.9129  -28.7398  -37.7174 H         1 UNK         0.0646 
     87 H87        17.4754  -26.0778  -37.2531 H         1 UNK         0.0847 
     88 H88        18.0943  -27.1691  -36.0280 H         1 UNK         0.0847 
     89 H89        16.7466  -27.6689  -37.0337 H         1 UNK         0.0847 
     90 H90        20.1179  -27.0015  -40.0891 H         1 UNK         0.3040 
     91 H91        22.2439  -25.5943  -38.5667 H         1 UNK         0.1015 
     92 H92        21.8427  -25.8990  -41.5979 H         1 UNK         0.0786 
     93 H93        22.9467  -24.8021  -40.7876 H         1 UNK         0.0786 
     94 H94        21.2153  -24.5461  -40.6575 H         1 UNK         0.0786 
     95 H95        24.5091  -26.0819  -39.4504 H         1 UNK         0.3172 
     96 H96        25.1952  -28.8842  -39.2267 H         1 UNK         0.0595 
     97 H97        26.8694  -26.4485  -40.0570 H         1 UNK         0.0839 
     98 H98        27.5018  -28.0477  -39.6957 H         1 UNK         0.0839 
     99 H99        26.7353  -27.1076  -38.4262 H         1 UNK         0.0839 
    100 H100       24.9597  -30.3466  -40.8370 H         1 UNK         0.2998 
    101 H101       25.4986  -29.8543  -43.6144 H         1 UNK         0.0822 
    102 H102       23.2443  -28.7400  -43.4568 H         1 UNK         0.0787 
    103 H103       23.1089  -30.2207  -44.3736 H         1 UNK         0.0787 
    104 H104       22.5729  -30.1741  -42.6974 H         1 UNK         0.0787 
    105 H105       24.2889  -31.8911  -44.7698 H         1 UNK         0.3055 
    106 H106       25.7751  -34.1350  -44.0651 H         1 UNK         0.1106 
    107 H107       24.4352  -35.2544  -45.8644 H         1 UNK         0.0828 
    108 H108       23.2861  -33.9246  -45.8476 H         1 UNK         0.0828 
    109 H109       24.9540  -33.6537  -46.3576 H         1 UNK         0.0828 
    110 H110       22.7765  -33.2275  -42.6242 H         1 UNK         0.2931 
    111 H111       21.8770  -35.8205  -41.7910 H         1 UNK         0.0412 
    112 H112       24.6077  -33.8851  -40.6350 H         1 UNK         0.3472 
    113 H113       24.8713  -34.8419  -39.1941 H         1 UNK         0.3472 
    114 H114       20.4202  -34.6617  -40.2147 H         1 UNK         0.0970 
    115 H115       21.3325  -33.1867  -40.3559 H         1 UNK         0.0970 
    116 H116       19.2963  -31.6774  -40.8687 H         1 UNK         0.0612 
    117 H117       20.7121  -31.3232  -41.8257 H         1 UNK         0.0612 
@<TRIPOS>BOND
     1    1    2 1    
     2    1   62 1    
     3    1   63 1    
     4    1   64 1    
     5    2    3 2    
     6    2    4 am   BACKBONE|DICT|INTERRES
     7    4    5 1    
     8    4   65 1    
     9    5    6 1    
    10    5   25 1    
    11    5   66 1    
    12    6    7 1    
    13    6   67 1    
    14    6   68 1    
    15    7    8 1    
    16    8    9 1    
    17    8   69 1    
    18    8   70 1    
    19    9   10 ar   
    20    9   14 ar   
    21   10   11 ar   
    22   10   71 1    
    23   11   12 ar   
    24   11   61 1    
    25   12   13 ar   
    26   12   72 1    
    27   13   14 ar   
    28   13   15 1    
    29   14   73 1    
    30   15   16 1    
    31   15   74 1    
    32   15   75 1    
    33   16   17 1    
    34   17   18 1    
    35   17   76 1    
    36   17   77 1    
    37   18   19 1    
    38   18   27 1    
    39   18   78 1    
    40   19   20 am   BACKBONE|DICT|INTERRES
    41   19   79 1    
    42   20   21 2    
    43   20   22 1    
    44   22   23 1    
    45   22   24 1    
    46   22   80 1    
    47   23   81 1    
    48   23   82 1    
    49   23   83 1    
    50   24   25 am   BACKBONE|DICT|INTERRES
    51   24   84 1    
    52   25   26 2    
    53   27   28 2    
    54   27   29 am   BACKBONE|DICT|INTERRES
    55   29   30 1    
    56   29   85 1    
    57   30   31 1    
    58   30   32 1    
    59   30   86 1    
    60   31   87 1    
    61   31   88 1    
    62   31   89 1    
    63   32   33 2    
    64   32   34 am   BACKBONE|DICT|INTERRES
    65   34   35 1    
    66   34   90 1    
    67   35   36 1    
    68   35   37 1    
    69   35   91 1    
    70   36   92 1    
    71   36   93 1    
    72   36   94 1    
    73   37   38 2    
    74   37   39 am   BACKBONE|DICT|INTERRES
    75   39   40 1    
    76   39   95 1    
    77   40   41 1    
    78   40   42 1    
    79   40   96 1    
    80   41   97 1    
    81   41   98 1    
    82   41   99 1    
    83   42   43 2    
    84   42   44 am   BACKBONE|DICT|INTERRES
    85   44   45 1    
    86   44  100 1    
    87   45   46 1    
    88   45   47 1    
    89   45  101 1    
    90   46  102 1    
    91   46  103 1    
    92   46  104 1    
    93   47   48 2    
    94   47   49 am   BACKBONE|DICT|INTERRES
    95   49   50 1    
    96   49  105 1    
    97   50   51 1    
    98   50   52 1    
    99   50  106 1    
   100   51  107 1    
   101   51  108 1    
   102   51  109 1    
   103   52   53 2    
   104   52   54 am   BACKBONE|DICT|INTERRES
   105   54   55 1    
   106   54  110 1    
   107   55   56 1    
   108   55   59 1    
   109   55  111 1    
   110   56   57 am   BACKBONE|DICT|INTERRES
   111   56   58 2    
   112   57  112 1    
   113   57  113 1    
   114   59   60 1    
   115   59  114 1    
   116   59  115 1    
   117   60   61 1    
   118   61  116 1    
   119   61  117 1    
@<TRIPOS>SUBSTRUCTURE
     1 UNK         1 GROUP             0       ****    0 ROOT    
