@<TRIPOS>MOLECULE
3R8
117   119    1
SMALL
USER_CHARGES


@<TRIPOS>ATOM
      1 CA         19.7534  -26.5665  -42.4433 C.3       0 UNK        -0.2013 
      2 C          18.3740  -26.0167  -42.7699 C.2       0 UNK         0.4866 
      3 O          18.0507  -24.9009  -42.3637 O.2       0 UNK        -0.5176 
      4 N          17.5556  -26.7901  -43.4979 N.am      1 UNK        -0.4884 
      5 CA         16.1845  -26.4195  -43.8867 C.3       1 UNK         0.0853 
      6 C6         15.3826  -27.6207  -44.4442 C.3       10 UNK        -0.0849 
      7 S7         15.2719  -28.9948  -43.2486 S.3       10 UNK        -0.2776 
      8 C8         16.1076  -30.3465  -44.1408 C.3       10 UNK         0.0316 
      9 C9         17.6044  -30.1100  -44.2973 C.ar      10 UNK        -0.0863 
     10 C10        18.4455  -30.1820  -43.1823 C.ar      10 UNK        -0.1009 
     11 C11        19.8260  -30.0120  -43.3220 C.ar      10 UNK        -0.0712 
     12 C12        20.3635  -29.7675  -44.5886 C.ar      10 UNK        -0.0894 
     13 C13        19.5341  -29.6895  -45.7115 C.ar      10 UNK        -0.0745 
     14 C14        18.1543  -29.8588  -45.5592 C.ar      10 UNK        -0.0972 
     15 C15        20.1341  -29.4588  -47.0931 C.3       10 UNK         0.0209 
     16 S16        19.9912  -27.7273  -47.6395 S.3       10 UNK        -0.2568 
     17 C17        21.1319  -26.8935  -46.4855 C.3       10 UNK        -0.0983 
     18 CA         21.0733  -25.3372  -46.4943 C.3       3 UNK         0.0876 
     19 N          19.7111  -24.8425  -46.3167 N.am      3 UNK        -0.4424 
     20 C          18.8655  -24.4513  -47.2756 C.2       2 UNK         0.4918 
     21 O          19.1775  -24.3176  -48.4599 O.2       2 UNK        -0.4875 
     22 CA         17.4081  -24.2540  -46.8248 C.3       2 UNK         0.0481 
     23 CB         16.4022  -24.2717  -47.9927 C.3       2 UNK        -0.1831 
     24 N          17.0876  -25.3036  -45.8575 N.am      2 UNK        -0.4498 
     25 C          16.1680  -25.2476  -44.8894 C.2       1 UNK         0.5027 
     26 O          15.3626  -24.3258  -44.7514 O.2       1 UNK        -0.4969 
     27 C          21.9207  -24.7874  -45.3314 C.2       3 UNK         0.5005 
     28 O          21.3784  -24.1637  -44.4128 O.2       3 UNK        -0.5279 
     29 N          23.2237  -25.0966  -45.3409 N.am      4 UNK        -0.4463 
     30 CA         24.0742  -25.0196  -44.1513 C.3       4 UNK         0.0283 
     31 CB         25.5490  -25.1375  -44.5679 C.3       4 UNK        -0.1875 
     32 C          23.6996  -26.1423  -43.1657 C.2       4 UNK         0.4949 
     33 O          23.3943  -27.2558  -43.6003 O.2       4 UNK        -0.5039 
     34 N          23.7286  -25.8339  -41.8650 N.am      5 UNK        -0.4663 
     35 CA         23.4491  -26.7916  -40.7933 C.3       5 UNK         0.0242 
     36 CB         23.1420  -26.0210  -39.4991 C.3       5 UNK        -0.1982 
     37 C          24.6225  -27.7631  -40.5802 C.2       5 UNK         0.5017 
     38 O          25.7791  -27.3820  -40.7786 O.2       5 UNK        -0.5012 
     39 N          24.3038  -28.9819  -40.1368 N.am      6 UNK        -0.4439 
     40 CA         25.2469  -30.0355  -39.7791 C.3       6 UNK         0.0297 
     41 CB         25.7030  -30.7909  -41.0414 C.3       6 UNK        -0.2006 
     42 C          24.5455  -30.9791  -38.7979 C.2       6 UNK         0.4892 
     43 O          23.3150  -31.0492  -38.7989 O.2       6 UNK        -0.5089 
     44 N          25.3349  -31.7095  -38.0000 N.am      7 UNK        -0.4243 
     45 CA         24.8496  -32.6734  -37.0026 C.3       7 UNK         0.0196 
     46 CB         26.0186  -33.0829  -36.0914 C.3       7 UNK        -0.2007 
     47 C          24.1773  -33.9215  -37.6074 C.2       7 UNK         0.5020 
     48 O          23.4362  -34.6093  -36.9055 O.2       7 UNK        -0.5147 
     49 N          24.4433  -34.1940  -38.8913 N.am      8 UNK        -0.4734 
     50 CA         23.8729  -35.3036  -39.6587 C.3       8 UNK         0.0238 
     51 CB         24.7861  -35.5800  -40.8660 C.3       8 UNK        -0.1912 
     52 C          22.4216  -35.0682  -40.1241 C.2       8 UNK         0.5038 
     53 O          21.8285  -35.9901  -40.6871 O.2       8 UNK        -0.5046 
     54 N          21.8798  -33.8629  -39.9160 N.am      9 UNK        -0.4200 
     55 CA         20.5489  -33.4429  -40.3706 C.3       9 UNK         0.0839 
     56 C          19.8488  -32.5030  -39.3522 C.2       9 UNK         0.5513 
     57 N          18.6199  -32.0878  -39.6316 N.am      9 UNK        -0.7519 
     58 O          20.3830  -32.1703  -38.2969 O.2       9 UNK        -0.4960 
     59 C59        20.5805  -32.8975  -41.8274 C.3       10 UNK        -0.0876 
     60 S60        21.7930  -31.5562  -42.1032 S.3       10 UNK        -0.2414 
     61 C61        20.7399  -30.0727  -42.1062 C.3       10 UNK         0.0169 
     62 H62        20.1392  -27.1781  -43.2562 H         1 UNK         0.0903 
     63 H63        20.4602  -25.7533  -42.2784 H         1 UNK         0.0903 
     64 H64        19.7136  -27.1715  -41.5383 H         1 UNK         0.0903 
     65 H65        17.8490  -27.7218  -43.7636 H         1 UNK         0.3096 
     66 H66        15.6753  -26.0684  -42.9859 H         1 UNK         0.1121 
     67 H67        14.3626  -27.3148  -44.6857 H         1 UNK         0.0849 
     68 H68        15.8176  -27.9772  -45.3797 H         1 UNK         0.0849 
     69 H69        15.9527  -31.2760  -43.5909 H         1 UNK         0.0865 
     70 H70        15.6294  -30.4893  -45.1113 H         1 UNK         0.0865 
     71 H71        18.0220  -30.3734  -42.2055 H         1 UNK         0.1346 
     72 H72        21.4325  -29.6390  -44.6960 H         1 UNK         0.1412 
     73 H73        17.5134  -29.8100  -46.4293 H         1 UNK         0.1426 
     74 H74        21.1838  -29.7562  -47.1109 H         1 UNK         0.0716 
     75 H75        19.6273  -30.0971  -47.8182 H         1 UNK         0.0716 
     76 H76        22.1402  -27.2406  -46.7172 H         1 UNK         0.0695 
     77 H77        20.9121  -27.2590  -45.4828 H         1 UNK         0.0695 
     78 H78        21.4885  -24.9540  -47.4289 H         1 UNK         0.0983 
     79 H79        19.4229  -24.7748  -45.3498 H         1 UNK         0.3095 
     80 H80        17.3555  -23.2832  -46.3281 H         1 UNK         0.0454 
     81 H81        15.3817  -24.1158  -47.6433 H         1 UNK         0.0851 
     82 H82        16.4315  -25.2195  -48.5314 H         1 UNK         0.0851 
     83 H83        16.6208  -23.4797  -48.7098 H         1 UNK         0.0851 
     84 H84        17.6960  -26.1114  -45.8865 H         1 UNK         0.2976 
     85 H85        23.5879  -25.6373  -46.1121 H         1 UNK         0.3116 
     86 H86        23.9234  -24.0505  -43.6704 H         1 UNK         0.0646 
     87 H87        25.8331  -24.3419  -45.2568 H         1 UNK         0.0847 
     88 H88        26.2054  -25.0637  -43.6997 H         1 UNK         0.0847 
     89 H89        25.7581  -26.0929  -45.0513 H         1 UNK         0.0847 
     90 H90        24.0288  -24.9115  -41.5838 H         1 UNK         0.3040 
     91 H91        22.5641  -27.3680  -41.0702 H         1 UNK         0.1015 
     92 H92        23.9930  -25.4204  -39.1750 H         1 UNK         0.0786 
     93 H93        22.8973  -26.7046  -38.6848 H         1 UNK         0.0786 
     94 H94        22.2887  -25.3545  -39.6271 H         1 UNK         0.0786 
     95 H95        23.3397  -29.2244  -39.9385 H         1 UNK         0.3172 
     96 H96        26.1111  -29.5928  -39.2791 H         1 UNK         0.0595 
     97 H97        24.8620  -31.2562  -41.5572 H         1 UNK         0.0839 
     98 H98        26.4138  -31.5802  -40.7945 H         1 UNK         0.0839 
     99 H99        26.1971  -30.1232  -41.7474 H         1 UNK         0.0839 
    100 H100       26.3366  -31.5948  -38.0676 H         1 UNK         0.2998 
    101 H101       24.0977  -32.1709  -36.3899 H         1 UNK         0.0822 
    102 H102       26.4509  -32.2188  -35.5864 H         1 UNK         0.0787 
    103 H103       25.6860  -33.7747  -35.3160 H         1 UNK         0.0787 
    104 H104       26.8125  -33.5789  -36.6512 H         1 UNK         0.0787 
    105 H105       25.0643  -33.5717  -39.3872 H         1 UNK         0.3055 
    106 H106       23.8624  -36.1938  -39.0256 H         1 UNK         0.1106 
    107 H107       25.8040  -35.8103  -40.5509 H         1 UNK         0.0828 
    108 H108       24.4283  -36.4350  -41.4414 H         1 UNK         0.0828 
    109 H109       24.8275  -34.7266  -41.5442 H         1 UNK         0.0828 
    110 H110       22.4000  -33.1542  -39.4127 H         1 UNK         0.2931 
    111 H111       19.9144  -34.3314  -40.3746 H         1 UNK         0.0412 
    112 H112       18.1408  -32.3891  -40.4647 H         1 UNK         0.3472 
    113 H113       18.1475  -31.4905  -38.9711 H         1 UNK         0.3472 
    114 H114       19.5893  -32.5850  -42.1553 H         1 UNK         0.0970 
    115 H115       20.8509  -33.7121  -42.5005 H         1 UNK         0.0970 
    116 H116       21.3871  -29.1955  -42.1084 H         1 UNK         0.0612 
    117 H117       20.1665  -30.0297  -41.1793 H         1 UNK         0.0612 
@<TRIPOS>BOND
     1    1    2 1    
     2    1   62 1    
     3    1   63 1    
     4    1   64 1    
     5    2    3 2    
     6    2    4 am   BACKBONE|DICT|INTERRES
     7    4    5 1    
     8    4   65 1    
     9    5    6 1    
    10    5   25 1    
    11    5   66 1    
    12    6    7 1    
    13    6   67 1    
    14    6   68 1    
    15    7    8 1    
    16    8    9 1    
    17    8   69 1    
    18    8   70 1    
    19    9   10 ar   
    20    9   14 ar   
    21   10   11 ar   
    22   10   71 1    
    23   11   12 ar   
    24   11   61 1    
    25   12   13 ar   
    26   12   72 1    
    27   13   14 ar   
    28   13   15 1    
    29   14   73 1    
    30   15   16 1    
    31   15   74 1    
    32   15   75 1    
    33   16   17 1    
    34   17   18 1    
    35   17   76 1    
    36   17   77 1    
    37   18   19 1    
    38   18   27 1    
    39   18   78 1    
    40   19   20 am   BACKBONE|DICT|INTERRES
    41   19   79 1    
    42   20   21 2    
    43   20   22 1    
    44   22   23 1    
    45   22   24 1    
    46   22   80 1    
    47   23   81 1    
    48   23   82 1    
    49   23   83 1    
    50   24   25 am   BACKBONE|DICT|INTERRES
    51   24   84 1    
    52   25   26 2    
    53   27   28 2    
    54   27   29 am   BACKBONE|DICT|INTERRES
    55   29   30 1    
    56   29   85 1    
    57   30   31 1    
    58   30   32 1    
    59   30   86 1    
    60   31   87 1    
    61   31   88 1    
    62   31   89 1    
    63   32   33 2    
    64   32   34 am   BACKBONE|DICT|INTERRES
    65   34   35 1    
    66   34   90 1    
    67   35   36 1    
    68   35   37 1    
    69   35   91 1    
    70   36   92 1    
    71   36   93 1    
    72   36   94 1    
    73   37   38 2    
    74   37   39 am   BACKBONE|DICT|INTERRES
    75   39   40 1    
    76   39   95 1    
    77   40   41 1    
    78   40   42 1    
    79   40   96 1    
    80   41   97 1    
    81   41   98 1    
    82   41   99 1    
    83   42   43 2    
    84   42   44 am   BACKBONE|DICT|INTERRES
    85   44   45 1    
    86   44  100 1    
    87   45   46 1    
    88   45   47 1    
    89   45  101 1    
    90   46  102 1    
    91   46  103 1    
    92   46  104 1    
    93   47   48 2    
    94   47   49 am   BACKBONE|DICT|INTERRES
    95   49   50 1    
    96   49  105 1    
    97   50   51 1    
    98   50   52 1    
    99   50  106 1    
   100   51  107 1    
   101   51  108 1    
   102   51  109 1    
   103   52   53 2    
   104   52   54 am   BACKBONE|DICT|INTERRES
   105   54   55 1    
   106   54  110 1    
   107   55   56 1    
   108   55   59 1    
   109   55  111 1    
   110   56   57 am   BACKBONE|DICT|INTERRES
   111   56   58 2    
   112   57  112 1    
   113   57  113 1    
   114   59   60 1    
   115   59  114 1    
   116   59  115 1    
   117   60   61 1    
   118   61  116 1    
   119   61  117 1    
@<TRIPOS>SUBSTRUCTURE
     1 UNK         1 GROUP             0       ****    0 ROOT    
