@<TRIPOS>MOLECULE
3R8
117   119    1
SMALL
USER_CHARGES


@<TRIPOS>ATOM
      1 CA         18.9238  -26.6345  -40.5724 C.3       0 UNK        -0.2013 
      2 C          18.1926  -25.8515  -41.6508 C.2       0 UNK         0.4866 
      3 O          17.3854  -24.9797  -41.3260 O.2       0 UNK        -0.5176 
      4 N          18.4695  -26.1605  -42.9224 N.am      1 UNK        -0.4884 
      5 CA         17.8886  -25.5021  -44.0983 C.3       1 UNK         0.0853 
      6 C6         16.8768  -26.3978  -44.8759 C.3       10 UNK        -0.0849 
      7 S7         15.5948  -27.1584  -43.8128 S.3       10 UNK        -0.2776 
      8 C8         15.5697  -28.9031  -44.3588 C.3       10 UNK         0.0316 
      9 C9         16.9566  -29.5313  -44.4219 C.ar      10 UNK        -0.0863 
     10 C10        17.7397  -29.6426  -43.2688 C.ar      10 UNK        -0.1009 
     11 C11        19.0387  -30.1552  -43.3400 C.ar      10 UNK        -0.0712 
     12 C12        19.5389  -30.5859  -44.5724 C.ar      10 UNK        -0.0894 
     13 C13        18.7663  -30.4798  -45.7328 C.ar      10 UNK        -0.0745 
     14 C14        17.4724  -29.9606  -45.6491 C.ar      10 UNK        -0.0972 
     15 C15        19.3346  -30.9015  -47.0815 C.3       10 UNK         0.0209 
     16 S16        19.9671  -29.4785  -48.0327 S.3       10 UNK        -0.2568 
     17 C17        21.4590  -29.0518  -47.0746 C.3       10 UNK        -0.0983 
     18 CA         21.9659  -27.6038  -47.2893 C.3       3 UNK         0.0876 
     19 N          20.9085  -26.5976  -47.1411 N.am      3 UNK        -0.4424 
     20 C          21.0324  -25.3028  -47.4679 C.2       2 UNK         0.4918 
     21 O          22.0632  -24.8079  -47.9250 O.2       2 UNK        -0.4875 
     22 CA         19.7981  -24.3985  -47.2807 C.3       2 UNK         0.0481 
     23 CB         19.0874  -24.1862  -48.6273 C.3       2 UNK        -0.1831 
     24 N          18.8249  -24.8883  -46.2985 N.am      2 UNK        -0.4498 
     25 C          19.0456  -24.9804  -44.9787 C.2       1 UNK         0.5027 
     26 O          20.1193  -24.6687  -44.4574 O.2       1 UNK        -0.4969 
     27 C          23.1528  -27.3352  -46.3425 C.2       3 UNK         0.5005 
     28 O          24.3009  -27.3190  -46.7900 O.2       3 UNK        -0.5279 
     29 N          22.8463  -27.1478  -45.0521 N.am      4 UNK        -0.4463 
     30 CA         23.7884  -26.9636  -43.9534 C.3       4 UNK         0.0283 
     31 CB         24.5921  -28.2551  -43.6968 C.3       4 UNK        -0.1875 
     32 C          23.0001  -26.5869  -42.6956 C.2       4 UNK         0.4949 
     33 O          21.8130  -26.9118  -42.5888 O.2       4 UNK        -0.5039 
     34 N          23.6919  -25.9584  -41.7379 N.am      5 UNK        -0.4663 
     35 CA         23.1648  -25.5313  -40.4387 C.3       5 UNK         0.0242 
     36 CB         24.0738  -24.4223  -39.8762 C.3       5 UNK        -0.1982 
     37 C          22.9947  -26.7106  -39.4591 C.2       5 UNK         0.5017 
     38 O          23.6516  -26.7530  -38.4182 O.2       5 UNK        -0.5012 
     39 N          22.1200  -27.6534  -39.8331 N.am      6 UNK        -0.4439 
     40 CA         21.6888  -28.8439  -39.0851 C.3       6 UNK         0.0297 
     41 CB         21.0411  -28.4567  -37.7389 C.3       6 UNK        -0.2006 
     42 C          22.7604  -29.9405  -38.9249 C.2       6 UNK         0.4892 
     43 O          22.5504  -30.8686  -38.1414 O.2       6 UNK        -0.5089 
     44 N          23.8673  -29.8385  -39.6750 N.am      7 UNK        -0.4243 
     45 CA         25.0078  -30.7576  -39.6601 C.3       7 UNK         0.0196 
     46 CB         26.1012  -30.2197  -40.5993 C.3       7 UNK        -0.2007 
     47 C          24.6030  -32.1947  -40.0346 C.2       7 UNK         0.5020 
     48 O          24.3873  -32.4803  -41.2129 O.2       7 UNK        -0.5147 
     49 N          24.4873  -33.0521  -39.0102 N.am      8 UNK        -0.4734 
     50 CA         24.0568  -34.4570  -39.0574 C.3       8 UNK         0.0238 
     51 CB         25.0457  -35.3122  -39.8798 C.3       8 UNK        -0.1912 
     52 C          22.5905  -34.6613  -39.4975 C.2       8 UNK         0.5038 
     53 O          22.2348  -35.7734  -39.8927 O.2       8 UNK        -0.5046 
     54 N          21.7602  -33.6129  -39.4024 N.am      9 UNK        -0.4200 
     55 CA         20.3254  -33.6559  -39.7408 C.3       9 UNK         0.0839 
     56 C          19.4205  -34.1792  -38.5881 C.2       9 UNK         0.5513 
     57 N          19.9319  -34.3990  -37.3824 N.am      9 UNK        -0.7519 
     58 O          18.2302  -34.4004  -38.7954 O.2       9 UNK        -0.4960 
     59 C59        19.8109  -32.2964  -40.2818 C.3       10 UNK        -0.0876 
     60 S60        20.7176  -31.7560  -41.7685 S.3       10 UNK        -0.2414 
     61 C61        19.9302  -30.1501  -42.1068 C.3       10 UNK         0.0169 
     62 H62        19.5420  -27.4197  -41.0015 H         1 UNK         0.0903 
     63 H63        19.5643  -25.9702  -39.9932 H         1 UNK         0.0903 
     64 H64        18.2094  -27.1000  -39.8940 H         1 UNK         0.0903 
     65 H65        19.2096  -26.8198  -43.1217 H         1 UNK         0.3096 
     66 H66        17.3509  -24.6055  -43.7825 H         1 UNK         0.1121 
     67 H67        17.4090  -27.1714  -45.4283 H         1 UNK         0.0849 
     68 H68        16.3480  -25.8070  -45.6257 H         1 UNK         0.0849 
     69 H69        14.9480  -29.4797  -43.6726 H         1 UNK         0.0865 
     70 H70        15.0773  -28.9552  -45.3311 H         1 UNK         0.0865 
     71 H71        17.3484  -29.2854  -42.3259 H         1 UNK         0.1346 
     72 H72        20.5462  -30.9750  -44.6308 H         1 UNK         0.1412 
     73 H73        16.8794  -29.8655  -46.5487 H         1 UNK         0.1426 
     74 H74        18.5572  -31.3971  -47.6648 H         1 UNK         0.0716 
     75 H75        20.1315  -31.6356  -46.9517 H         1 UNK         0.0716 
     76 H76        22.2404  -29.7682  -47.3358 H         1 UNK         0.0695 
     77 H77        21.2485  -29.2087  -46.0185 H         1 UNK         0.0695 
     78 H78        22.3407  -27.5293  -48.3127 H         1 UNK         0.0983 
     79 H79        20.0161  -26.9324  -46.8115 H         1 UNK         0.3095 
     80 H80        20.1589  -23.4279  -46.9336 H         1 UNK         0.0454 
     81 H81        19.7761  -23.7882  -49.3740 H         1 UNK         0.0851 
     82 H82        18.2670  -23.4740  -48.5373 H         1 UNK         0.0851 
     83 H83        18.6833  -25.1187  -49.0232 H         1 UNK         0.0851 
     84 H84        17.9197  -25.1520  -46.6601 H         1 UNK         0.2976 
     85 H85        21.8759  -27.1244  -44.7623 H         1 UNK         0.3116 
     86 H86        24.4655  -26.1455  -44.2072 H         1 UNK         0.0646 
     87 H87        23.9394  -29.0933  -43.4481 H         1 UNK         0.0847 
     88 H88        25.1878  -28.5424  -44.5629 H         1 UNK         0.0847 
     89 H89        25.2878  -28.1234  -42.8677 H         1 UNK         0.0847 
     90 H90        24.6704  -25.7664  -41.9016 H         1 UNK         0.3040 
     91 H91        22.1734  -25.0982  -40.5926 H         1 UNK         0.1015 
     92 H92        23.6958  -24.0537  -38.9215 H         1 UNK         0.0786 
     93 H93        24.1231  -23.5686  -40.5526 H         1 UNK         0.0786 
     94 H94        25.0914  -24.7778  -39.7089 H         1 UNK         0.0786 
     95 H95        21.7212  -27.5377  -40.7618 H         1 UNK         0.3172 
     96 H96        20.9049  -29.2963  -39.6852 H         1 UNK         0.0595 
     97 H97        21.7739  -28.0641  -37.0336 H         1 UNK         0.0839 
     98 H98        20.5718  -29.3208  -37.2668 H         1 UNK         0.0839 
     99 H99        20.2648  -27.7035  -37.8718 H         1 UNK         0.0839 
    100 H100       23.9330  -29.0514  -40.3016 H         1 UNK         0.2998 
    101 H101       25.4133  -30.7601  -38.6461 H         1 UNK         0.0822 
    102 H102       26.9835  -30.8605  -40.5734 H         1 UNK         0.0787 
    103 H103       25.7614  -30.1804  -41.6346 H         1 UNK         0.0787 
    104 H104       26.4202  -29.2181  -40.3098 H         1 UNK         0.0787 
    105 H105       24.6402  -32.6843  -38.0801 H         1 UNK         0.3055 
    106 H106       24.0997  -34.8162  -38.0279 H         1 UNK         0.1106 
    107 H107       26.0725  -35.1651  -39.5454 H         1 UNK         0.0828 
    108 H108       24.8244  -36.3753  -39.7778 H         1 UNK         0.0828 
    109 H109       25.0009  -35.0744  -40.9430 H         1 UNK         0.0828 
    110 H110       22.1171  -32.7321  -39.0501 H         1 UNK         0.2931 
    111 H111       20.1976  -34.3758  -40.5517 H         1 UNK         0.0412 
    112 H112       19.3343  -34.7432  -36.6470 H         1 UNK         0.3472 
    113 H113       20.9052  -34.2160  -37.1984 H         1 UNK         0.3472 
    114 H114       18.7527  -32.3610  -40.5437 H         1 UNK         0.0970 
    115 H115       19.8926  -31.5291  -39.5103 H         1 UNK         0.0970 
    116 H116       19.3578  -29.8322  -41.2352 H         1 UNK         0.0612 
    117 H117       20.7155  -29.4082  -42.2538 H         1 UNK         0.0612 
@<TRIPOS>BOND
     1    1    2 1    
     2    1   62 1    
     3    1   63 1    
     4    1   64 1    
     5    2    3 2    
     6    2    4 am   BACKBONE|DICT|INTERRES
     7    4    5 1    
     8    4   65 1    
     9    5    6 1    
    10    5   25 1    
    11    5   66 1    
    12    6    7 1    
    13    6   67 1    
    14    6   68 1    
    15    7    8 1    
    16    8    9 1    
    17    8   69 1    
    18    8   70 1    
    19    9   10 ar   
    20    9   14 ar   
    21   10   11 ar   
    22   10   71 1    
    23   11   12 ar   
    24   11   61 1    
    25   12   13 ar   
    26   12   72 1    
    27   13   14 ar   
    28   13   15 1    
    29   14   73 1    
    30   15   16 1    
    31   15   74 1    
    32   15   75 1    
    33   16   17 1    
    34   17   18 1    
    35   17   76 1    
    36   17   77 1    
    37   18   19 1    
    38   18   27 1    
    39   18   78 1    
    40   19   20 am   BACKBONE|DICT|INTERRES
    41   19   79 1    
    42   20   21 2    
    43   20   22 1    
    44   22   23 1    
    45   22   24 1    
    46   22   80 1    
    47   23   81 1    
    48   23   82 1    
    49   23   83 1    
    50   24   25 am   BACKBONE|DICT|INTERRES
    51   24   84 1    
    52   25   26 2    
    53   27   28 2    
    54   27   29 am   BACKBONE|DICT|INTERRES
    55   29   30 1    
    56   29   85 1    
    57   30   31 1    
    58   30   32 1    
    59   30   86 1    
    60   31   87 1    
    61   31   88 1    
    62   31   89 1    
    63   32   33 2    
    64   32   34 am   BACKBONE|DICT|INTERRES
    65   34   35 1    
    66   34   90 1    
    67   35   36 1    
    68   35   37 1    
    69   35   91 1    
    70   36   92 1    
    71   36   93 1    
    72   36   94 1    
    73   37   38 2    
    74   37   39 am   BACKBONE|DICT|INTERRES
    75   39   40 1    
    76   39   95 1    
    77   40   41 1    
    78   40   42 1    
    79   40   96 1    
    80   41   97 1    
    81   41   98 1    
    82   41   99 1    
    83   42   43 2    
    84   42   44 am   BACKBONE|DICT|INTERRES
    85   44   45 1    
    86   44  100 1    
    87   45   46 1    
    88   45   47 1    
    89   45  101 1    
    90   46  102 1    
    91   46  103 1    
    92   46  104 1    
    93   47   48 2    
    94   47   49 am   BACKBONE|DICT|INTERRES
    95   49   50 1    
    96   49  105 1    
    97   50   51 1    
    98   50   52 1    
    99   50  106 1    
   100   51  107 1    
   101   51  108 1    
   102   51  109 1    
   103   52   53 2    
   104   52   54 am   BACKBONE|DICT|INTERRES
   105   54   55 1    
   106   54  110 1    
   107   55   56 1    
   108   55   59 1    
   109   55  111 1    
   110   56   57 am   BACKBONE|DICT|INTERRES
   111   56   58 2    
   112   57  112 1    
   113   57  113 1    
   114   59   60 1    
   115   59  114 1    
   116   59  115 1    
   117   60   61 1    
   118   61  116 1    
   119   61  117 1    
@<TRIPOS>SUBSTRUCTURE
     1 UNK         1 GROUP             0       ****    0 ROOT    
