@<TRIPOS>MOLECULE
3R8
117   119    1
SMALL
USER_CHARGES


@<TRIPOS>ATOM
      1 CA         16.8824  -23.6946  -48.1142 C.3       0 UNK        -0.2013 
      2 C          18.0459  -24.4350  -47.4721 C.2       0 UNK         0.4866 
      3 O          19.1999  -24.0614  -47.6825 O.2       0 UNK        -0.5176 
      4 N          17.7517  -25.4839  -46.6925 N.am      1 UNK        -0.4884 
      5 CA         18.7433  -26.3184  -46.0000 C.3       1 UNK         0.0853 
      6 C6         18.1117  -27.6115  -45.4371 C.3       10 UNK        -0.0849 
      7 S7         17.4228  -28.7188  -46.7126 S.3       10 UNK        -0.2776 
      8 C8         16.2945  -29.7561  -45.7171 C.3       10 UNK         0.0316 
      9 C9         16.9558  -30.2530  -44.4374 C.ar      10 UNK        -0.0863 
     10 C10        17.8931  -31.2874  -44.4794 C.ar      10 UNK        -0.1009 
     11 C11        18.5567  -31.6919  -43.3169 C.ar      10 UNK        -0.0712 
     12 C12        18.2772  -31.0506  -42.1042 C.ar      10 UNK        -0.0894 
     13 C13        17.3242  -30.0270  -42.0444 C.ar      10 UNK        -0.0745 
     14 C14        16.6569  -29.6476  -43.2137 C.ar      10 UNK        -0.0972 
     15 C15        16.9795  -29.3610  -40.7155 C.3       10 UNK         0.0209 
     16 S16        17.0152  -27.5354  -40.8074 S.3       10 UNK        -0.2568 
     17 C17        18.4912  -27.1005  -39.8268 C.3       10 UNK        -0.0983 
     18 CA         19.7636  -26.8953  -40.6891 C.3       3 UNK         0.0876 
     19 N          19.6160  -25.9140  -41.7798 N.am      3 UNK        -0.4424 
     20 C          19.2726  -24.6207  -41.7141 C.2       2 UNK         0.4918 
     21 O          19.0817  -24.0256  -40.6538 O.2       2 UNK        -0.4875 
     22 CA         19.1452  -23.8313  -43.0341 C.3       2 UNK         0.0481 
     23 CB         20.4205  -23.0071  -43.3008 C.3       2 UNK        -0.1831 
     24 N          18.7596  -24.6253  -44.2124 N.am      2 UNK        -0.4498 
     25 C          19.4556  -25.5809  -44.8479 C.2       1 UNK         0.5027 
     26 O          20.5871  -25.9336  -44.5174 O.2       1 UNK        -0.4969 
     27 C          20.9982  -26.6478  -39.7943 C.2       3 UNK         0.5005 
     28 O          21.5838  -27.6127  -39.3033 O.2       3 UNK        -0.5279 
     29 N          21.4053  -25.3821  -39.6212 N.am      4 UNK        -0.4463 
     30 CA         22.6966  -24.9842  -39.0522 C.3       4 UNK         0.0283 
     31 CB         22.6916  -23.4720  -38.7791 C.3       4 UNK        -0.1875 
     32 C          23.8695  -25.3664  -39.9746 C.2       4 UNK         0.4949 
     33 O          24.9498  -25.6939  -39.4837 O.2       4 UNK        -0.5039 
     34 N          23.6167  -25.3499  -41.2898 N.am      5 UNK        -0.4663 
     35 CA         24.4624  -25.9578  -42.3127 C.3       5 UNK         0.0242 
     36 CB         24.3198  -25.1580  -43.6177 C.3       5 UNK        -0.1982 
     37 C          24.0131  -27.4115  -42.5248 C.2       5 UNK         0.5017 
     38 O          22.8249  -27.7070  -42.3793 O.2       5 UNK        -0.5012 
     39 N          24.9651  -28.2910  -42.8624 N.am      6 UNK        -0.4439 
     40 CA         24.8216  -29.7304  -43.1429 C.3       6 UNK         0.0297 
     41 CB         23.8778  -29.9776  -44.3353 C.3       6 UNK        -0.2006 
     42 C          24.4365  -30.6147  -41.9372 C.2       6 UNK         0.4892 
     43 O          24.8523  -31.7742  -41.9079 O.2       6 UNK        -0.5089 
     44 N          23.6931  -30.0698  -40.9631 N.am      7 UNK        -0.4243 
     45 CA         23.2626  -30.6913  -39.7063 C.3       7 UNK         0.0196 
     46 CB         24.4705  -30.9172  -38.7679 C.3       7 UNK        -0.2007 
     47 C          22.4144  -31.9508  -39.9535 C.2       7 UNK         0.5020 
     48 O          21.2459  -31.8274  -40.3177 O.2       7 UNK        -0.5147 
     49 N          23.0105  -33.1341  -39.7595 N.am      8 UNK        -0.4734 
     50 CA         22.3939  -34.4342  -40.0368 C.3       8 UNK         0.0238 
     51 CB         23.1653  -35.5238  -39.2732 C.3       8 UNK        -0.1912 
     52 C          22.3234  -34.7740  -41.5381 C.2       8 UNK         0.5038 
     53 O          21.5949  -35.6988  -41.8996 O.2       8 UNK        -0.5046 
     54 N          23.0774  -34.0441  -42.3735 N.am      9 UNK        -0.4200 
     55 CA         23.1814  -34.2101  -43.8333 C.3       9 UNK         0.0839 
     56 C          23.9018  -35.5176  -44.2843 C.2       9 UNK         0.5513 
     57 N          24.6509  -36.1919  -43.4197 N.am      9 UNK        -0.7519 
     58 O          23.8093  -35.9150  -45.4432 O.2       9 UNK        -0.4960 
     59 C59        21.8365  -33.9778  -44.5820 C.3       10 UNK        -0.0876 
     60 S60        21.0829  -32.3489  -44.2407 S.3       10 UNK        -0.2414 
     61 C61        19.5557  -32.8379  -43.3811 C.3       10 UNK         0.0169 
     62 H62        16.8799  -22.6522  -47.7966 H         1 UNK         0.0903 
     63 H63        16.9753  -23.7197  -49.1997 H         1 UNK         0.0903 
     64 H64        15.9212  -24.1330  -47.8465 H         1 UNK         0.0903 
     65 H65        16.7882  -25.7687  -46.5837 H         1 UNK         0.3096 
     66 H66        19.5142  -26.5967  -46.7225 H         1 UNK         0.1121 
     67 H67        18.8541  -28.1891  -44.8804 H         1 UNK         0.0849 
     68 H68        17.3235  -27.3592  -44.7251 H         1 UNK         0.0849 
     69 H69        15.9666  -30.6066  -46.3166 H         1 UNK         0.0865 
     70 H70        15.3954  -29.1827  -45.4858 H         1 UNK         0.0865 
     71 H71        18.1242  -31.7643  -45.4224 H         1 UNK         0.1346 
     72 H72        18.7923  -31.3607  -41.2051 H         1 UNK         0.1412 
     73 H73        15.9205  -28.8565  -43.1731 H         1 UNK         0.1426 
     74 H74        17.6398  -29.7152  -39.9229 H         1 UNK         0.0716 
     75 H75        15.9733  -29.6700  -40.4298 H         1 UNK         0.0716 
     76 H76        18.6584  -27.8712  -39.0723 H         1 UNK         0.0695 
     77 H77        18.2607  -26.1914  -39.2690 H         1 UNK         0.0695 
     78 H78        19.9626  -27.8422  -41.1955 H         1 UNK         0.0983 
     79 H79        19.8683  -26.2611  -42.6990 H         1 UNK         0.3095 
     80 H80        18.3277  -23.1241  -42.8858 H         1 UNK         0.0454 
     81 H81        20.3170  -22.3972  -44.1982 H         1 UNK         0.0851 
     82 H82        21.3005  -23.6381  -43.4253 H         1 UNK         0.0851 
     83 H83        20.6259  -22.3289  -42.4716 H         1 UNK         0.0851 
     84 H84        17.8280  -24.4441  -44.5602 H         1 UNK         0.2976 
     85 H85        20.8016  -24.6489  -39.9801 H         1 UNK         0.3116 
     86 H86        22.8295  -25.5078  -38.1031 H         1 UNK         0.0646 
     87 H87        23.6365  -23.1537  -38.3364 H         1 UNK         0.0847 
     88 H88        21.8999  -23.1971  -38.0819 H         1 UNK         0.0847 
     89 H89        22.5494  -22.8947  -39.6936 H         1 UNK         0.0847 
     90 H90        22.6743  -25.1343  -41.5783 H         1 UNK         0.3040 
     91 H91        25.5069  -25.9385  -41.9930 H         1 UNK         0.1015 
     92 H92        24.5982  -24.1135  -43.4759 H         1 UNK         0.0786 
     93 H93        23.2975  -25.1843  -43.9985 H         1 UNK         0.0786 
     94 H94        24.9666  -25.5634  -44.3968 H         1 UNK         0.0786 
     95 H95        25.9134  -27.9457  -42.9275 H         1 UNK         0.3172 
     96 H96        25.8159  -30.0594  -43.4492 H         1 UNK         0.0595 
     97 H97        22.8439  -29.7246  -44.0975 H         1 UNK         0.0839 
     98 H98        23.8917  -31.0270  -44.6298 H         1 UNK         0.0839 
     99 H99        24.1743  -29.3941  -45.2067 H         1 UNK         0.0839 
    100 H100       23.3177  -29.1434  -41.1446 H         1 UNK         0.2998 
    101 H101       22.6010  -29.9779  -39.2156 H         1 UNK         0.0822 
    102 H102       25.2317  -31.5607  -39.2098 H         1 UNK         0.0787 
    103 H103       24.9492  -29.9694  -38.5208 H         1 UNK         0.0787 
    104 H104       24.1571  -31.3701  -37.8262 H         1 UNK         0.0787 
    105 H105       23.9814  -33.1368  -39.4801 H         1 UNK         0.3055 
    106 H106       21.3666  -34.4160  -39.6653 H         1 UNK         0.1106 
    107 H107       22.7157  -36.5052  -39.4319 H         1 UNK         0.0828 
    108 H108       24.2051  -35.5862  -39.5963 H         1 UNK         0.0828 
    109 H109       23.1570  -35.3373  -38.1992 H         1 UNK         0.0828 
    110 H110       23.6536  -33.3018  -41.9876 H         1 UNK         0.2931 
    111 H111       23.8570  -33.4157  -44.1507 H         1 UNK         0.0412 
    112 H112       25.1219  -37.0304  -43.7218 H         1 UNK         0.3472 
    113 H113       24.7516  -35.8683  -42.4712 H         1 UNK         0.3472 
    114 H114       21.9944  -34.0278  -45.6607 H         1 UNK         0.0970 
    115 H115       21.1302  -34.7770  -44.3534 H         1 UNK         0.0970 
    116 H116       19.0926  -33.6763  -43.9033 H         1 UNK         0.0612 
    117 H117       19.8066  -33.1934  -42.3807 H         1 UNK         0.0612 
@<TRIPOS>BOND
     1    1    2 1    
     2    1   62 1    
     3    1   63 1    
     4    1   64 1    
     5    2    3 2    
     6    2    4 am   BACKBONE|DICT|INTERRES
     7    4    5 1    
     8    4   65 1    
     9    5    6 1    
    10    5   25 1    
    11    5   66 1    
    12    6    7 1    
    13    6   67 1    
    14    6   68 1    
    15    7    8 1    
    16    8    9 1    
    17    8   69 1    
    18    8   70 1    
    19    9   10 ar   
    20    9   14 ar   
    21   10   11 ar   
    22   10   71 1    
    23   11   12 ar   
    24   11   61 1    
    25   12   13 ar   
    26   12   72 1    
    27   13   14 ar   
    28   13   15 1    
    29   14   73 1    
    30   15   16 1    
    31   15   74 1    
    32   15   75 1    
    33   16   17 1    
    34   17   18 1    
    35   17   76 1    
    36   17   77 1    
    37   18   19 1    
    38   18   27 1    
    39   18   78 1    
    40   19   20 am   BACKBONE|DICT|INTERRES
    41   19   79 1    
    42   20   21 2    
    43   20   22 1    
    44   22   23 1    
    45   22   24 1    
    46   22   80 1    
    47   23   81 1    
    48   23   82 1    
    49   23   83 1    
    50   24   25 am   BACKBONE|DICT|INTERRES
    51   24   84 1    
    52   25   26 2    
    53   27   28 2    
    54   27   29 am   BACKBONE|DICT|INTERRES
    55   29   30 1    
    56   29   85 1    
    57   30   31 1    
    58   30   32 1    
    59   30   86 1    
    60   31   87 1    
    61   31   88 1    
    62   31   89 1    
    63   32   33 2    
    64   32   34 am   BACKBONE|DICT|INTERRES
    65   34   35 1    
    66   34   90 1    
    67   35   36 1    
    68   35   37 1    
    69   35   91 1    
    70   36   92 1    
    71   36   93 1    
    72   36   94 1    
    73   37   38 2    
    74   37   39 am   BACKBONE|DICT|INTERRES
    75   39   40 1    
    76   39   95 1    
    77   40   41 1    
    78   40   42 1    
    79   40   96 1    
    80   41   97 1    
    81   41   98 1    
    82   41   99 1    
    83   42   43 2    
    84   42   44 am   BACKBONE|DICT|INTERRES
    85   44   45 1    
    86   44  100 1    
    87   45   46 1    
    88   45   47 1    
    89   45  101 1    
    90   46  102 1    
    91   46  103 1    
    92   46  104 1    
    93   47   48 2    
    94   47   49 am   BACKBONE|DICT|INTERRES
    95   49   50 1    
    96   49  105 1    
    97   50   51 1    
    98   50   52 1    
    99   50  106 1    
   100   51  107 1    
   101   51  108 1    
   102   51  109 1    
   103   52   53 2    
   104   52   54 am   BACKBONE|DICT|INTERRES
   105   54   55 1    
   106   54  110 1    
   107   55   56 1    
   108   55   59 1    
   109   55  111 1    
   110   56   57 am   BACKBONE|DICT|INTERRES
   111   56   58 2    
   112   57  112 1    
   113   57  113 1    
   114   59   60 1    
   115   59  114 1    
   116   59  115 1    
   117   60   61 1    
   118   61  116 1    
   119   61  117 1    
@<TRIPOS>SUBSTRUCTURE
     1 UNK         1 GROUP             0       ****    0 ROOT    
