@<TRIPOS>MOLECULE
3R8
117   119    1
SMALL
USER_CHARGES


@<TRIPOS>ATOM
      1 CA         17.1715  -23.0129  -44.4302 C.3       0 UNK        -0.2013 
      2 C          17.9841  -24.2821  -44.6374 C.2       0 UNK         0.4866 
      3 O          17.8413  -25.2229  -43.8555 O.2       0 UNK        -0.5176 
      4 N          18.8296  -24.2966  -45.6812 N.am      1 UNK        -0.4884 
      5 CA         19.6848  -25.4016  -46.1524 C.3       1 UNK         0.0853 
      6 C6         19.0250  -26.2726  -47.2665 C.3       10 UNK        -0.0849 
      7 S7         17.3564  -26.9168  -46.8880 S.3       10 UNK        -0.2776 
      8 C8         17.4945  -28.7249  -47.1208 C.3       10 UNK         0.0316 
      9 C9         17.2766  -29.5165  -45.8329 C.ar      10 UNK        -0.0863 
     10 C10        18.0560  -30.6475  -45.5664 C.ar      10 UNK        -0.1009 
     11 C11        17.8557  -31.3968  -44.4008 C.ar      10 UNK        -0.0712 
     12 C12        16.8426  -31.0231  -43.5136 C.ar      10 UNK        -0.0894 
     13 C13        16.0626  -29.8925  -43.7603 C.ar      10 UNK        -0.0745 
     14 C14        16.2746  -29.1525  -44.9254 C.ar      10 UNK        -0.0972 
     15 C15        15.0022  -29.4621  -42.7586 C.3       10 UNK         0.0209 
     16 S16        15.7333  -28.9393  -41.1734 S.3       10 UNK        -0.2568 
     17 C17        16.7698  -27.5226  -41.6700 C.3       10 UNK        -0.0983 
     18 CA         18.2857  -27.7950  -41.4386 C.3       3 UNK         0.0876 
     19 N          19.0278  -28.0075  -42.6877 N.am      3 UNK        -0.4424 
     20 C          20.2920  -28.4583  -42.7335 C.2       2 UNK         0.4918 
     21 O          20.8903  -28.8839  -41.7477 O.2       2 UNK        -0.4875 
     22 CA         21.0604  -28.3514  -44.0640 C.3       2 UNK         0.0481 
     23 CB         21.3977  -29.7244  -44.6588 C.3       2 UNK        -0.1831 
     24 N          20.3918  -27.5122  -45.0608 N.am      2 UNK        -0.4498 
     25 C          20.3979  -26.1728  -45.0181 C.2       1 UNK         0.5027 
     26 O          20.9573  -25.5347  -44.1221 O.2       1 UNK        -0.4969 
     27 C          18.9416  -26.6682  -40.6111 C.2       3 UNK         0.5005 
     28 O          19.1228  -26.8272  -39.4027 O.2       3 UNK        -0.5279 
     29 N          19.3098  -25.5665  -41.2813 N.am      4 UNK        -0.4463 
     30 CA         20.0369  -24.4457  -40.6860 C.3       4 UNK         0.0283 
     31 CB         19.8492  -23.1864  -41.5463 C.3       4 UNK        -0.1875 
     32 C          21.5307  -24.7494  -40.4880 C.2       4 UNK         0.4949 
     33 O          22.0641  -24.4609  -39.4165 O.2       4 UNK        -0.5039 
     34 N          22.1869  -25.2976  -41.5216 N.am      5 UNK        -0.4663 
     35 CA         23.6394  -25.5147  -41.5405 C.3       5 UNK         0.0242 
     36 CB         24.1236  -25.6432  -42.9940 C.3       5 UNK        -0.1982 
     37 C          24.1238  -26.7092  -40.6982 C.2       5 UNK         0.5017 
     38 O          25.3092  -26.7474  -40.3656 O.2       5 UNK        -0.5012 
     39 N          23.2244  -27.6495  -40.3704 N.am      6 UNK        -0.4439 
     40 CA         23.4733  -28.8928  -39.6337 C.3       6 UNK         0.0297 
     41 CB         23.9212  -28.6091  -38.1807 C.3       6 UNK        -0.2006 
     42 C          24.4030  -29.8307  -40.4274 C.2       6 UNK         0.4892 
     43 O          24.0149  -30.2616  -41.5137 O.2       6 UNK        -0.5089 
     44 N          25.5842  -30.1534  -39.8751 N.am      7 UNK        -0.4243 
     45 CA         26.6260  -31.0167  -40.4554 C.3       7 UNK         0.0196 
     46 CB         27.2910  -30.3184  -41.6610 C.3       7 UNK        -0.2007 
     47 C          26.1109  -32.4307  -40.7938 C.2       7 UNK         0.5020 
     48 O          26.3552  -32.9382  -41.8903 O.2       7 UNK        -0.5147 
     49 N          25.3503  -33.0148  -39.8538 N.am      8 UNK        -0.4734 
     50 CA         24.6543  -34.3095  -39.9491 C.3       8 UNK         0.0238 
     51 CB         25.6701  -35.4710  -40.0007 C.3       8 UNK        -0.1912 
     52 C          23.6202  -34.3822  -41.0947 C.2       8 UNK         0.5038 
     53 O          23.2872  -35.4787  -41.5476 O.2       8 UNK        -0.5046 
     54 N          23.1339  -33.2158  -41.5396 N.am      9 UNK        -0.4200 
     55 CA         22.2566  -33.0158  -42.6996 C.3       9 UNK         0.0839 
     56 C          22.9369  -33.2808  -44.0773 C.2       9 UNK         0.5513 
     57 N          24.2614  -33.3514  -44.1601 N.am      9 UNK        -0.7519 
     58 O          22.2602  -33.3929  -45.0959 O.2       9 UNK        -0.4960 
     59 C59        20.8526  -33.6820  -42.5360 C.3       10 UNK        -0.0876 
     60 S60        19.5313  -32.4300  -42.4546 S.3       10 UNK        -0.2414 
     61 C61        18.7409  -32.5977  -44.0881 C.3       10 UNK         0.0169 
     62 H62        16.1181  -23.2119  -44.6251 H         1 UNK         0.0903 
     63 H63        17.4939  -22.2078  -45.0900 H         1 UNK         0.0903 
     64 H64        17.2650  -22.6655  -43.4024 H         1 UNK         0.0903 
     65 H65        18.8954  -23.4586  -46.2417 H         1 UNK         0.3096 
     66 H66        20.5173  -24.8941  -46.6432 H         1 UNK         0.1121 
     67 H67        19.6905  -27.0726  -47.5933 H         1 UNK         0.0849 
     68 H68        18.9055  -25.6489  -48.1538 H         1 UNK         0.0849 
     69 H69        16.7343  -29.0341  -47.8393 H         1 UNK         0.0865 
     70 H70        18.4531  -28.9789  -47.5742 H         1 UNK         0.0865 
     71 H71        18.8264  -30.9439  -46.2654 H         1 UNK         0.1346 
     72 H72        16.6835  -31.5935  -42.6086 H         1 UNK         0.1412 
     73 H73        15.6600  -28.2846  -45.1214 H         1 UNK         0.1426 
     74 H74        14.3214  -30.2950  -42.5774 H         1 UNK         0.0716 
     75 H75        14.3939  -28.6481  -43.1561 H         1 UNK         0.0716 
     76 H76        16.4121  -26.6669  -41.0933 H         1 UNK         0.0695 
     77 H77        16.5679  -27.2603  -42.7091 H         1 UNK         0.0695 
     78 H78        18.3984  -28.7062  -40.8463 H         1 UNK         0.0983 
     79 H79        18.6024  -27.6492  -43.5314 H         1 UNK         0.3095 
     80 H80        22.0156  -27.8820  -43.8309 H         1 UNK         0.0454 
     81 H81        20.5544  -30.4079  -44.6205 H         1 UNK         0.0851 
     82 H82        22.2076  -30.1819  -44.0920 H         1 UNK         0.0851 
     83 H83        21.7368  -29.6535  -45.6921 H         1 UNK         0.0851 
     84 H84        19.8752  -27.9805  -45.7905 H         1 UNK         0.2976 
     85 H85        19.0826  -25.5030  -42.2702 H         1 UNK         0.3116 
     86 H86        19.6079  -24.2401  -39.7027 H         1 UNK         0.0646 
     87 H87        20.1997  -23.3346  -42.5684 H         1 UNK         0.0847 
     88 H88        20.4030  -22.3433  -41.1309 H         1 UNK         0.0847 
     89 H89        18.8011  -22.8929  -41.5870 H         1 UNK         0.0847 
     90 H90        21.6852  -25.4594  -42.3928 H         1 UNK         0.3040 
     91 H91        24.1117  -24.6248  -41.1178 H         1 UNK         0.1015 
     92 H92        23.7525  -26.5493  -43.4690 H         1 UNK         0.0786 
     93 H93        25.2129  -25.6815  -43.0375 H         1 UNK         0.0786 
     94 H94        23.8058  -24.7925  -43.5972 H         1 UNK         0.0786 
     95 H95        22.2939  -27.5731  -40.7640 H         1 UNK         0.3172 
     96 H96        22.5117  -29.4050  -39.5773 H         1 UNK         0.0595 
     97 H97        24.8786  -28.0901  -38.1285 H         1 UNK         0.0839 
     98 H98        24.0118  -29.5335  -37.6088 H         1 UNK         0.0839 
     99 H99        23.1876  -27.9896  -37.6644 H         1 UNK         0.0839 
    100 H100       25.8043  -29.7441  -38.9777 H         1 UNK         0.2998 
    101 H101       27.3896  -31.1462  -39.6869 H         1 UNK         0.0822 
    102 H102       27.6674  -29.3321  -41.3895 H         1 UNK         0.0787 
    103 H103       28.1373  -30.8981  -42.0317 H         1 UNK         0.0787 
    104 H104       26.5941  -30.1931  -42.4907 H         1 UNK         0.0787 
    105 H105       25.1964  -32.5017  -38.9960 H         1 UNK         0.3055 
    106 H106       24.0791  -34.4174  -39.0280 H         1 UNK         0.1106 
    107 H107       26.2341  -35.4750  -40.9339 H         1 UNK         0.0828 
    108 H108       25.1678  -36.4361  -39.9223 H         1 UNK         0.0828 
    109 H109       26.3827  -35.4128  -39.1780 H         1 UNK         0.0828 
    110 H110       23.5092  -32.3600  -41.1506 H         1 UNK         0.2931 
    111 H111       22.1190  -31.9361  -42.6980 H         1 UNK         0.0412 
    112 H112       24.6892  -33.5116  -45.0581 H         1 UNK         0.3472 
    113 H113       24.8438  -33.2336  -43.3389 H         1 UNK         0.3472 
    114 H114       20.7953  -34.2601  -41.6131 H         1 UNK         0.0970 
    115 H115       20.6362  -34.4015  -43.3278 H         1 UNK         0.0970 
    116 H116       19.5143  -32.7108  -44.8494 H         1 UNK         0.0612 
    117 H117       18.1411  -33.5083  -44.1088 H         1 UNK         0.0612 
@<TRIPOS>BOND
     1    1    2 1    
     2    1   62 1    
     3    1   63 1    
     4    1   64 1    
     5    2    3 2    
     6    2    4 am   BACKBONE|DICT|INTERRES
     7    4    5 1    
     8    4   65 1    
     9    5    6 1    
    10    5   25 1    
    11    5   66 1    
    12    6    7 1    
    13    6   67 1    
    14    6   68 1    
    15    7    8 1    
    16    8    9 1    
    17    8   69 1    
    18    8   70 1    
    19    9   10 ar   
    20    9   14 ar   
    21   10   11 ar   
    22   10   71 1    
    23   11   12 ar   
    24   11   61 1    
    25   12   13 ar   
    26   12   72 1    
    27   13   14 ar   
    28   13   15 1    
    29   14   73 1    
    30   15   16 1    
    31   15   74 1    
    32   15   75 1    
    33   16   17 1    
    34   17   18 1    
    35   17   76 1    
    36   17   77 1    
    37   18   19 1    
    38   18   27 1    
    39   18   78 1    
    40   19   20 am   BACKBONE|DICT|INTERRES
    41   19   79 1    
    42   20   21 2    
    43   20   22 1    
    44   22   23 1    
    45   22   24 1    
    46   22   80 1    
    47   23   81 1    
    48   23   82 1    
    49   23   83 1    
    50   24   25 am   BACKBONE|DICT|INTERRES
    51   24   84 1    
    52   25   26 2    
    53   27   28 2    
    54   27   29 am   BACKBONE|DICT|INTERRES
    55   29   30 1    
    56   29   85 1    
    57   30   31 1    
    58   30   32 1    
    59   30   86 1    
    60   31   87 1    
    61   31   88 1    
    62   31   89 1    
    63   32   33 2    
    64   32   34 am   BACKBONE|DICT|INTERRES
    65   34   35 1    
    66   34   90 1    
    67   35   36 1    
    68   35   37 1    
    69   35   91 1    
    70   36   92 1    
    71   36   93 1    
    72   36   94 1    
    73   37   38 2    
    74   37   39 am   BACKBONE|DICT|INTERRES
    75   39   40 1    
    76   39   95 1    
    77   40   41 1    
    78   40   42 1    
    79   40   96 1    
    80   41   97 1    
    81   41   98 1    
    82   41   99 1    
    83   42   43 2    
    84   42   44 am   BACKBONE|DICT|INTERRES
    85   44   45 1    
    86   44  100 1    
    87   45   46 1    
    88   45   47 1    
    89   45  101 1    
    90   46  102 1    
    91   46  103 1    
    92   46  104 1    
    93   47   48 2    
    94   47   49 am   BACKBONE|DICT|INTERRES
    95   49   50 1    
    96   49  105 1    
    97   50   51 1    
    98   50   52 1    
    99   50  106 1    
   100   51  107 1    
   101   51  108 1    
   102   51  109 1    
   103   52   53 2    
   104   52   54 am   BACKBONE|DICT|INTERRES
   105   54   55 1    
   106   54  110 1    
   107   55   56 1    
   108   55   59 1    
   109   55  111 1    
   110   56   57 am   BACKBONE|DICT|INTERRES
   111   56   58 2    
   112   57  112 1    
   113   57  113 1    
   114   59   60 1    
   115   59  114 1    
   116   59  115 1    
   117   60   61 1    
   118   61  116 1    
   119   61  117 1    
@<TRIPOS>SUBSTRUCTURE
     1 UNK         1 GROUP             0       ****    0 ROOT    
