@<TRIPOS>MOLECULE
3R8
117   119    1
SMALL
USER_CHARGES


@<TRIPOS>ATOM
      1 CA         19.2858  -27.6738  -41.9698 C.3       0 UNK        -0.2013 
      2 C          18.2247  -26.6209  -42.2489 C.2       0 UNK         0.4866 
      3 O          18.1967  -25.5886  -41.5793 O.2       0 UNK        -0.5176 
      4 N          17.3628  -26.8585  -43.2486 N.am      1 UNK        -0.4884 
      5 CA         16.3277  -25.9131  -43.7065 C.3       1 UNK         0.0853 
      6 C6         15.2951  -26.5913  -44.6410 C.3       10 UNK        -0.0849 
      7 S7         14.4199  -27.9771  -43.8429 S.3       10 UNK        -0.2776 
      8 C8         14.8601  -29.3721  -44.9314 C.3       10 UNK         0.0316 
      9 C9         16.3155  -29.7967  -44.7809 C.ar      10 UNK        -0.0863 
     10 C10        16.7704  -30.3025  -43.5606 C.ar      10 UNK        -0.1009 
     11 C11        18.0892  -30.7384  -43.4070 C.ar      10 UNK        -0.0712 
     12 C12        18.9552  -30.6751  -44.5087 C.ar      10 UNK        -0.0894 
     13 C13        18.5125  -30.1809  -45.7401 C.ar      10 UNK        -0.0745 
     14 C14        17.1933  -29.7345  -45.8675 C.ar      10 UNK        -0.0972 
     15 C15        19.4383  -30.1932  -46.9515 C.3       10 UNK         0.0209 
     16 S16        19.9781  -28.5282  -47.4519 S.3       10 UNK        -0.2568 
     17 C17        21.2275  -28.1465  -46.1784 C.3       10 UNK        -0.0983 
     18 CA         21.6116  -26.6436  -46.1527 C.3       3 UNK         0.0876 
     19 N          20.4202  -25.8056  -46.0134 N.am      3 UNK        -0.4424 
     20 C          20.3615  -24.4695  -45.9019 C.2       2 UNK         0.4918 
     21 O          21.3370  -23.7217  -45.9678 O.2       2 UNK        -0.4875 
     22 CA         18.9655  -23.8733  -45.6648 C.3       2 UNK         0.0481 
     23 CB         18.3133  -23.4863  -47.0067 C.3       2 UNK        -0.1831 
     24 N          18.1482  -24.8396  -44.9312 N.am      2 UNK        -0.4498 
     25 C          16.9257  -24.6775  -44.4171 C.2       1 UNK         0.5027 
     26 O          16.2735  -23.6354  -44.4928 O.2       1 UNK        -0.4969 
     27 C          22.6260  -26.3870  -45.0204 C.2       3 UNK         0.5005 
     28 O          22.2462  -26.4267  -43.8465 O.2       3 UNK        -0.5279 
     29 N          23.9025  -26.1875  -45.3762 N.am      4 UNK        -0.4463 
     30 CA         25.0198  -25.9645  -44.4488 C.3       4 UNK         0.0283 
     31 CB         26.1418  -25.2118  -45.1884 C.3       4 UNK        -0.1875 
     32 C          25.5142  -27.2746  -43.7984 C.2       4 UNK         0.4949 
     33 O          26.7143  -27.5513  -43.7874 O.2       4 UNK        -0.5039 
     34 N          24.5694  -28.0692  -43.2850 N.am      5 UNK        -0.4663 
     35 CA         24.7968  -29.3854  -42.6868 C.3       5 UNK         0.0242 
     36 CB         23.5692  -30.2638  -42.9760 C.3       5 UNK        -0.1982 
     37 C          25.0693  -29.3254  -41.1749 C.2       5 UNK         0.5017 
     38 O          25.4096  -30.3553  -40.5947 O.2       5 UNK        -0.5012 
     39 N          24.8788  -28.1508  -40.5517 N.am      6 UNK        -0.4439 
     40 CA         25.0556  -27.8728  -39.1167 C.3       6 UNK         0.0297 
     41 CB         26.5536  -27.8999  -38.7453 C.3       6 UNK        -0.2006 
     42 C          24.2013  -28.7824  -38.2058 C.2       6 UNK         0.4892 
     43 O          24.6508  -29.1742  -37.1279 O.2       6 UNK        -0.5089 
     44 N          22.9934  -29.1181  -38.6847 N.am      7 UNK        -0.4243 
     45 CA         21.9997  -30.0228  -38.0918 C.3       7 UNK         0.0196 
     46 CB         21.5286  -29.5158  -36.7123 C.3       7 UNK        -0.2007 
     47 C          22.4101  -31.5103  -38.0538 C.2       7 UNK         0.5020 
     48 O          21.6532  -32.3178  -37.5126 O.2       7 UNK        -0.5147 
     49 N          23.5439  -31.8860  -38.6704 N.am      8 UNK        -0.4734 
     50 CA         23.9881  -33.2840  -38.7987 C.3       8 UNK         0.0238 
     51 CB         25.4538  -33.3227  -39.2592 C.3       8 UNK        -0.1912 
     52 C          23.1020  -34.1169  -39.7453 C.2       8 UNK         0.5038 
     53 O          23.1325  -35.3464  -39.6838 O.2       8 UNK        -0.5046 
     54 N          22.3180  -33.4258  -40.5801 N.am      9 UNK        -0.4200 
     55 CA         21.2299  -33.9598  -41.4056 C.3       9 UNK         0.0839 
     56 C          20.0153  -34.5240  -40.6080 C.2       9 UNK         0.5513 
     57 N          19.8774  -34.2556  -39.3136 N.am      9 UNK        -0.7519 
     58 O          19.1852  -35.2258  -41.1794 O.2       9 UNK        -0.4960 
     59 C59        20.7867  -32.9121  -42.4612 C.3       10 UNK        -0.0876 
     60 S60        20.3038  -31.3077  -41.7201 S.3       10 UNK        -0.2414 
     61 C61        18.5090  -31.2851  -42.0403 C.3       10 UNK         0.0169 
     62 H62        20.2379  -27.1973  -41.7364 H         1 UNK         0.0903 
     63 H63        18.9948  -28.2907  -41.1205 H         1 UNK         0.0903 
     64 H64        19.4473  -28.3200  -42.8313 H         1 UNK         0.0903 
     65 H65        17.3783  -27.7527  -43.7228 H         1 UNK         0.3096 
     66 H66        15.7994  -25.5431  -42.8248 H         1 UNK         0.1121 
     67 H67        14.5363  -25.8715  -44.9554 H         1 UNK         0.0849 
     68 H68        15.7770  -26.9370  -45.5577 H         1 UNK         0.0849 
     69 H69        14.2216  -30.2216  -44.6847 H         1 UNK         0.0865 
     70 H70        14.6291  -29.1122  -45.9658 H         1 UNK         0.0865 
     71 H71        16.0866  -30.3604  -42.7240 H         1 UNK         0.1346 
     72 H72        19.9739  -31.0237  -44.4240 H         1 UNK         0.1412 
     73 H73        16.8471  -29.3643  -46.8233 H         1 UNK         0.1426 
     74 H74        18.9136  -30.6532  -47.7901 H         1 UNK         0.0716 
     75 H75        20.3154  -30.8159  -46.7678 H         1 UNK         0.0716 
     76 H76        22.1072  -28.7648  -46.3681 H         1 UNK         0.0695 
     77 H77        20.8357  -28.4578  -45.2075 H         1 UNK         0.0695 
     78 H78        22.0753  -26.3831  -47.1063 H         1 UNK         0.0983 
     79 H79        19.5542  -26.3184  -46.0667 H         1 UNK         0.3095 
     80 H80        19.0791  -22.9802  -45.0475 H         1 UNK         0.0454 
     81 H81        18.9602  -22.8167  -47.5751 H         1 UNK         0.0851 
     82 H82        17.3676  -22.9651  -46.8608 H         1 UNK         0.0851 
     83 H83        18.1213  -24.3610  -47.6291 H         1 UNK         0.0851 
     84 H84        18.6095  -25.7071  -44.6987 H         1 UNK         0.2976 
     85 H85        24.1412  -26.2123  -46.3578 H         1 UNK         0.3116 
     86 H86        24.6732  -25.3205  -43.6377 H         1 UNK         0.0646 
     87 H87        26.5550  -25.8032  -46.0064 H         1 UNK         0.0847 
     88 H88        25.7826  -24.2693  -45.6022 H         1 UNK         0.0847 
     89 H89        26.9639  -24.9713  -44.5128 H         1 UNK         0.0847 
     90 H90        23.6099  -27.7365  -43.3331 H         1 UNK         0.3040 
     91 H91        25.6689  -29.8517  -43.1509 H         1 UNK         0.1015 
     92 H92        23.6807  -31.2573  -42.5393 H         1 UNK         0.0786 
     93 H93        23.4209  -30.3976  -44.0476 H         1 UNK         0.0786 
     94 H94        22.6606  -29.8222  -42.5671 H         1 UNK         0.0786 
     95 H95        24.5835  -27.3706  -41.1220 H         1 UNK         0.3172 
     96 H96        24.6935  -26.8567  -38.9535 H         1 UNK         0.0595 
     97 H97        26.9733  -28.9028  -38.8327 H         1 UNK         0.0839 
     98 H98        26.7093  -27.5712  -37.7170 H         1 UNK         0.0839 
     99 H99        27.1340  -27.2368  -39.3866 H         1 UNK         0.0839 
    100 H100       22.7427  -28.7406  -39.5878 H         1 UNK         0.2998 
    101 H101       21.1375  -29.9815  -38.7596 H         1 UNK         0.0822 
    102 H102       20.6759  -30.0937  -36.3537 H         1 UNK         0.0787 
    103 H103       21.2139  -28.4733  -36.7582 H         1 UNK         0.0787 
    104 H104       22.3121  -29.5984  -35.9586 H         1 UNK         0.0787 
    105 H105       24.1273  -31.1831  -39.1126 H         1 UNK         0.3055 
    106 H106       23.9287  -33.7467  -37.8110 H         1 UNK         0.1106 
    107 H107       26.0925  -32.7205  -38.6128 H         1 UNK         0.0828 
    108 H108       25.8400  -34.3426  -39.2385 H         1 UNK         0.0828 
    109 H109       25.5666  -32.9565  -40.2800 H         1 UNK         0.0828 
    110 H110       22.3673  -32.4192  -40.5378 H         1 UNK         0.2931 
    111 H111       21.6440  -34.8100  -41.9508 H         1 UNK         0.0412 
    112 H112       20.5429  -33.6682  -38.8277 H         1 UNK         0.3472 
    113 H113       19.0871  -34.6334  -38.8156 H         1 UNK         0.3472 
    114 H114       21.6109  -32.7240  -43.1505 H         1 UNK         0.0970 
    115 H115       19.9786  -33.3035  -43.0824 H         1 UNK         0.0970 
    116 H116       18.1019  -32.2891  -41.9135 H         1 UNK         0.0612 
    117 H117       18.0528  -30.6730  -41.2610 H         1 UNK         0.0612 
@<TRIPOS>BOND
     1    1    2 1    
     2    1   62 1    
     3    1   63 1    
     4    1   64 1    
     5    2    3 2    
     6    2    4 am   BACKBONE|DICT|INTERRES
     7    4    5 1    
     8    4   65 1    
     9    5    6 1    
    10    5   25 1    
    11    5   66 1    
    12    6    7 1    
    13    6   67 1    
    14    6   68 1    
    15    7    8 1    
    16    8    9 1    
    17    8   69 1    
    18    8   70 1    
    19    9   10 ar   
    20    9   14 ar   
    21   10   11 ar   
    22   10   71 1    
    23   11   12 ar   
    24   11   61 1    
    25   12   13 ar   
    26   12   72 1    
    27   13   14 ar   
    28   13   15 1    
    29   14   73 1    
    30   15   16 1    
    31   15   74 1    
    32   15   75 1    
    33   16   17 1    
    34   17   18 1    
    35   17   76 1    
    36   17   77 1    
    37   18   19 1    
    38   18   27 1    
    39   18   78 1    
    40   19   20 am   BACKBONE|DICT|INTERRES
    41   19   79 1    
    42   20   21 2    
    43   20   22 1    
    44   22   23 1    
    45   22   24 1    
    46   22   80 1    
    47   23   81 1    
    48   23   82 1    
    49   23   83 1    
    50   24   25 am   BACKBONE|DICT|INTERRES
    51   24   84 1    
    52   25   26 2    
    53   27   28 2    
    54   27   29 am   BACKBONE|DICT|INTERRES
    55   29   30 1    
    56   29   85 1    
    57   30   31 1    
    58   30   32 1    
    59   30   86 1    
    60   31   87 1    
    61   31   88 1    
    62   31   89 1    
    63   32   33 2    
    64   32   34 am   BACKBONE|DICT|INTERRES
    65   34   35 1    
    66   34   90 1    
    67   35   36 1    
    68   35   37 1    
    69   35   91 1    
    70   36   92 1    
    71   36   93 1    
    72   36   94 1    
    73   37   38 2    
    74   37   39 am   BACKBONE|DICT|INTERRES
    75   39   40 1    
    76   39   95 1    
    77   40   41 1    
    78   40   42 1    
    79   40   96 1    
    80   41   97 1    
    81   41   98 1    
    82   41   99 1    
    83   42   43 2    
    84   42   44 am   BACKBONE|DICT|INTERRES
    85   44   45 1    
    86   44  100 1    
    87   45   46 1    
    88   45   47 1    
    89   45  101 1    
    90   46  102 1    
    91   46  103 1    
    92   46  104 1    
    93   47   48 2    
    94   47   49 am   BACKBONE|DICT|INTERRES
    95   49   50 1    
    96   49  105 1    
    97   50   51 1    
    98   50   52 1    
    99   50  106 1    
   100   51  107 1    
   101   51  108 1    
   102   51  109 1    
   103   52   53 2    
   104   52   54 am   BACKBONE|DICT|INTERRES
   105   54   55 1    
   106   54  110 1    
   107   55   56 1    
   108   55   59 1    
   109   55  111 1    
   110   56   57 am   BACKBONE|DICT|INTERRES
   111   56   58 2    
   112   57  112 1    
   113   57  113 1    
   114   59   60 1    
   115   59  114 1    
   116   59  115 1    
   117   60   61 1    
   118   61  116 1    
   119   61  117 1    
@<TRIPOS>SUBSTRUCTURE
     1 UNK         1 GROUP             0       ****    0 ROOT    
