@<TRIPOS>MOLECULE
3R8
117   119    1
SMALL
USER_CHARGES


@<TRIPOS>ATOM
      1 CA         16.1538  -21.8267  -42.9257 C.3       0 UNK        -0.2013 
      2 C          16.9319  -22.6381  -43.9505 C.2       0 UNK         0.4866 
      3 O          17.6617  -22.0654  -44.7604 O.2       0 UNK        -0.5176 
      4 N          16.7754  -23.9669  -43.9283 N.am      1 UNK        -0.4884 
      5 CA         17.4952  -24.9191  -44.7771 C.3       1 UNK         0.0853 
      6 C6         16.8066  -26.3130  -44.8185 C.3       10 UNK        -0.0849 
      7 S7         16.1712  -26.9213  -43.2102 S.3       10 UNK        -0.2776 
      8 C8         15.5649  -28.5925  -43.6247 C.3       10 UNK         0.0316 
      9 C9         16.7114  -29.5792  -43.7904 C.ar      10 UNK        -0.0863 
     10 C10        17.1999  -30.3002  -42.6949 C.ar      10 UNK        -0.1009 
     11 C11        18.3104  -31.1397  -42.8368 C.ar      10 UNK        -0.0712 
     12 C12        18.9189  -31.2703  -44.0881 C.ar      10 UNK        -0.0894 
     13 C13        18.4211  -30.5739  -45.1913 C.ar      10 UNK        -0.0745 
     14 C14        17.3063  -29.7482  -45.0413 C.ar      10 UNK        -0.0972 
     15 C15        19.1015  -30.6695  -46.5430 C.3       10 UNK         0.0209 
     16 S16        20.0658  -29.1642  -46.8759 S.3       10 UNK        -0.2568 
     17 C17        21.5725  -29.4498  -45.8814 C.3       10 UNK        -0.0983 
     18 CA         21.8899  -28.3851  -44.7930 C.3       3 UNK         0.0876 
     19 N          21.4560  -27.0337  -45.1510 N.am      3 UNK        -0.4424 
     20 C          21.9868  -25.9128  -44.6503 C.2       2 UNK         0.4918 
     21 O          22.9248  -25.9046  -43.8536 O.2       2 UNK        -0.4875 
     22 CA         21.3374  -24.5847  -45.0732 C.3       2 UNK         0.0481 
     23 CB         22.0264  -24.0311  -46.3297 C.3       2 UNK        -0.1831 
     24 N          19.8887  -24.6701  -45.3031 N.am      2 UNK        -0.4498 
     25 C          18.9829  -24.9961  -44.3680 C.2       1 UNK         0.5027 
     26 O          19.2878  -25.3432  -43.2255 O.2       1 UNK        -0.4969 
     27 C          21.5059  -28.7988  -43.3517 C.2       3 UNK         0.5005 
     28 O          22.1473  -29.7039  -42.8135 O.2       3 UNK        -0.5279 
     29 N          20.5524  -28.1010  -42.7085 N.am      4 UNK        -0.4463 
     30 CA         20.2996  -28.2295  -41.2682 C.3       4 UNK         0.0283 
     31 CB         18.9204  -27.6696  -40.8937 C.3       4 UNK        -0.1875 
     32 C          21.3841  -27.5253  -40.4430 C.2       4 UNK         0.4949 
     33 O          21.8310  -28.0811  -39.4415 O.2       4 UNK        -0.5039 
     34 N          21.8164  -26.3366  -40.8914 N.am      5 UNK        -0.4663 
     35 CA         22.9064  -25.5691  -40.2770 C.3       5 UNK         0.0242 
     36 CB         22.9382  -24.1466  -40.8587 C.3       5 UNK        -0.1982 
     37 C          24.2713  -26.2634  -40.4285 C.2       5 UNK         0.5017 
     38 O          25.0798  -26.2187  -39.5013 O.2       5 UNK        -0.5012 
     39 N          24.4769  -26.9372  -41.5695 N.am      6 UNK        -0.4439 
     40 CA         25.6165  -27.8240  -41.8294 C.3       6 UNK         0.0297 
     41 CB         25.7181  -28.0860  -43.3406 C.3       6 UNK        -0.2006 
     42 C          25.5482  -29.1633  -41.0642 C.2       6 UNK         0.4892 
     43 O          26.5503  -29.8786  -41.0380 O.2       6 UNK        -0.5089 
     44 N          24.3848  -29.4787  -40.4727 N.am      7 UNK        -0.4243 
     45 CA         24.0595  -30.6854  -39.7059 C.3       7 UNK         0.0196 
     46 CB         24.8835  -30.7489  -38.4023 C.3       7 UNK        -0.2007 
     47 C          24.1459  -31.9757  -40.5414 C.2       7 UNK         0.5020 
     48 O          24.6255  -32.9984  -40.0483 O.2       7 UNK        -0.5147 
     49 N          23.6471  -31.9259  -41.7860 N.am      8 UNK        -0.4734 
     50 CA         23.6330  -33.0600  -42.7212 C.3       8 UNK         0.0238 
     51 CB         23.1951  -32.5679  -44.1084 C.3       8 UNK        -0.1912 
     52 C          22.7413  -34.2303  -42.2649 C.2       8 UNK         0.5038 
     53 O          22.9818  -35.3673  -42.6726 O.2       8 UNK        -0.5046 
     54 N          21.7484  -33.9299  -41.4191 N.am      9 UNK        -0.4200 
     55 CA         20.8834  -34.9049  -40.7396 C.3       9 UNK         0.0839 
     56 C          21.5683  -35.6338  -39.5446 C.2       9 UNK         0.5513 
     57 N          22.7742  -35.2645  -39.1255 N.am      9 UNK        -0.7519 
     58 O          20.9916  -36.5643  -38.9877 O.2       9 UNK        -0.4960 
     59 C59        19.5348  -34.2674  -40.3082 C.3       10 UNK        -0.0876 
     60 S60        18.5594  -33.6570  -41.7251 S.3       10 UNK        -0.2414 
     61 C61        18.8903  -31.8712  -41.6371 C.3       10 UNK         0.0169 
     62 H62        15.4953  -21.1190  -43.4287 H         1 UNK         0.0903 
     63 H63        15.5429  -22.4603  -42.2828 H         1 UNK         0.0903 
     64 H64        16.8402  -21.2640  -42.2936 H         1 UNK         0.0903 
     65 H65        16.1897  -24.3952  -43.2241 H         1 UNK         0.3096 
     66 H66        17.4604  -24.5244  -45.7953 H         1 UNK         0.1121 
     67 H67        17.4850  -27.0505  -45.2472 H         1 UNK         0.0849 
     68 H68        15.9563  -26.2668  -45.5007 H         1 UNK         0.0849 
     69 H69        14.8996  -28.9324  -42.8295 H         1 UNK         0.0865 
     70 H70        14.9577  -28.5517  -44.5304 H         1 UNK         0.0865 
     71 H71        16.7392  -30.1775  -41.7242 H         1 UNK         0.1346 
     72 H72        19.7861  -31.9061  -44.1958 H         1 UNK         0.1412 
     73 H73        16.9293  -29.2040  -45.8964 H         1 UNK         0.1426 
     74 H74        18.3458  -30.7850  -47.3214 H         1 UNK         0.0716 
     75 H75        19.7425  -31.5503  -46.6055 H         1 UNK         0.0716 
     76 H76        22.3973  -29.4692  -46.5955 H         1 UNK         0.0695 
     77 H77        21.5523  -30.4538  -45.4586 H         1 UNK         0.0695 
     78 H78        22.9791  -28.3400  -44.7606 H         1 UNK         0.0983 
     79 H79        20.6917  -26.9743  -45.8087 H         1 UNK         0.3095 
     80 H80        21.4969  -23.8740  -44.2597 H         1 UNK         0.0454 
     81 H81        21.8773  -24.6799  -47.1936 H         1 UNK         0.0851 
     82 H82        23.1024  -23.9374  -46.1750 H         1 UNK         0.0851 
     83 H83        21.6520  -23.0395  -46.5843 H         1 UNK         0.0851 
     84 H84        19.5633  -24.3822  -46.2152 H         1 UNK         0.2976 
     85 H85        20.0722  -27.3482  -43.1872 H         1 UNK         0.3116 
     86 H86        20.3100  -29.2897  -41.0086 H         1 UNK         0.0646 
     87 H87        18.1334  -28.1227  -41.4880 H         1 UNK         0.0847 
     88 H88        18.8596  -26.5902  -41.0297 H         1 UNK         0.0847 
     89 H89        18.6917  -27.8742  -39.8472 H         1 UNK         0.0847 
     90 H90        21.3948  -25.9499  -41.7251 H         1 UNK         0.3040 
     91 H91        22.6976  -25.4924  -39.2074 H         1 UNK         0.1015 
     92 H92        23.7057  -23.5454  -40.3694 H         1 UNK         0.0786 
     93 H93        21.9859  -23.6365  -40.7120 H         1 UNK         0.0786 
     94 H94        23.1584  -24.1447  -41.9261 H         1 UNK         0.0786 
     95 H95        23.7941  -26.8269  -42.3132 H         1 UNK         0.3172 
     96 H96        26.5242  -27.3071  -41.5115 H         1 UNK         0.0595 
     97 H97        24.9184  -28.7393  -43.6872 H         1 UNK         0.0839 
     98 H98        26.6599  -28.5801  -43.5832 H         1 UNK         0.0839 
     99 H99        25.6794  -27.1608  -43.9163 H         1 UNK         0.0839 
    100 H100       23.6248  -28.8162  -40.5568 H         1 UNK         0.2998 
    101 H101       23.0109  -30.5864  -39.4219 H         1 UNK         0.0822 
    102 H102       24.7805  -29.8302  -37.8247 H         1 UNK         0.0787 
    103 H103       24.5476  -31.5694  -37.7671 H         1 UNK         0.0787 
    104 H104       25.9445  -30.9049  -38.5998 H         1 UNK         0.0787 
    105 H105       23.2273  -31.0573  -42.1163 H         1 UNK         0.3055 
    106 H106       24.6540  -33.4406  -42.7962 H         1 UNK         0.1106 
    107 H107       22.1630  -32.2199  -44.0937 H         1 UNK         0.0828 
    108 H108       23.2588  -33.3688  -44.8462 H         1 UNK         0.0828 
    109 H109       23.8234  -31.7494  -44.4602 H         1 UNK         0.0828 
    110 H110       21.6452  -32.9671  -41.1401 H         1 UNK         0.2931 
    111 H111       20.6506  -35.6895  -41.4623 H         1 UNK         0.0412 
    112 H112       23.2839  -34.5111  -39.5718 H         1 UNK         0.3472 
    113 H113       23.1935  -35.7574  -38.3529 H         1 UNK         0.3472 
    114 H114       18.9153  -35.0037  -39.7924 H         1 UNK         0.0970 
    115 H115       19.6983  -33.4616  -39.5903 H         1 UNK         0.0970 
    116 H116       19.9665  -31.6981  -41.6047 H         1 UNK         0.0612 
    117 H117       18.4819  -31.4735  -40.7067 H         1 UNK         0.0612 
@<TRIPOS>BOND
     1    1    2 1    
     2    1   62 1    
     3    1   63 1    
     4    1   64 1    
     5    2    3 2    
     6    2    4 am   BACKBONE|DICT|INTERRES
     7    4    5 1    
     8    4   65 1    
     9    5    6 1    
    10    5   25 1    
    11    5   66 1    
    12    6    7 1    
    13    6   67 1    
    14    6   68 1    
    15    7    8 1    
    16    8    9 1    
    17    8   69 1    
    18    8   70 1    
    19    9   10 ar   
    20    9   14 ar   
    21   10   11 ar   
    22   10   71 1    
    23   11   12 ar   
    24   11   61 1    
    25   12   13 ar   
    26   12   72 1    
    27   13   14 ar   
    28   13   15 1    
    29   14   73 1    
    30   15   16 1    
    31   15   74 1    
    32   15   75 1    
    33   16   17 1    
    34   17   18 1    
    35   17   76 1    
    36   17   77 1    
    37   18   19 1    
    38   18   27 1    
    39   18   78 1    
    40   19   20 am   BACKBONE|DICT|INTERRES
    41   19   79 1    
    42   20   21 2    
    43   20   22 1    
    44   22   23 1    
    45   22   24 1    
    46   22   80 1    
    47   23   81 1    
    48   23   82 1    
    49   23   83 1    
    50   24   25 am   BACKBONE|DICT|INTERRES
    51   24   84 1    
    52   25   26 2    
    53   27   28 2    
    54   27   29 am   BACKBONE|DICT|INTERRES
    55   29   30 1    
    56   29   85 1    
    57   30   31 1    
    58   30   32 1    
    59   30   86 1    
    60   31   87 1    
    61   31   88 1    
    62   31   89 1    
    63   32   33 2    
    64   32   34 am   BACKBONE|DICT|INTERRES
    65   34   35 1    
    66   34   90 1    
    67   35   36 1    
    68   35   37 1    
    69   35   91 1    
    70   36   92 1    
    71   36   93 1    
    72   36   94 1    
    73   37   38 2    
    74   37   39 am   BACKBONE|DICT|INTERRES
    75   39   40 1    
    76   39   95 1    
    77   40   41 1    
    78   40   42 1    
    79   40   96 1    
    80   41   97 1    
    81   41   98 1    
    82   41   99 1    
    83   42   43 2    
    84   42   44 am   BACKBONE|DICT|INTERRES
    85   44   45 1    
    86   44  100 1    
    87   45   46 1    
    88   45   47 1    
    89   45  101 1    
    90   46  102 1    
    91   46  103 1    
    92   46  104 1    
    93   47   48 2    
    94   47   49 am   BACKBONE|DICT|INTERRES
    95   49   50 1    
    96   49  105 1    
    97   50   51 1    
    98   50   52 1    
    99   50  106 1    
   100   51  107 1    
   101   51  108 1    
   102   51  109 1    
   103   52   53 2    
   104   52   54 am   BACKBONE|DICT|INTERRES
   105   54   55 1    
   106   54  110 1    
   107   55   56 1    
   108   55   59 1    
   109   55  111 1    
   110   56   57 am   BACKBONE|DICT|INTERRES
   111   56   58 2    
   112   57  112 1    
   113   57  113 1    
   114   59   60 1    
   115   59  114 1    
   116   59  115 1    
   117   60   61 1    
   118   61  116 1    
   119   61  117 1    
@<TRIPOS>SUBSTRUCTURE
     1 UNK         1 GROUP             0       ****    0 ROOT    
