@<TRIPOS>MOLECULE
3R8
117   119    1
SMALL
USER_CHARGES


@<TRIPOS>ATOM
      1 CA         13.4524  -25.9300  -48.3859 C.3       0 UNK        -0.2013 
      2 C          14.7807  -26.6260  -48.1288 C.2       0 UNK         0.4866 
      3 O          15.5175  -26.9078  -49.0747 O.2       0 UNK        -0.5176 
      4 N          15.0879  -26.9136  -46.8581 N.am      1 UNK        -0.4884 
      5 CA         16.3401  -27.5376  -46.4192 C.3       1 UNK         0.0853 
      6 C6         16.2604  -28.0008  -44.9446 C.3       10 UNK        -0.0849 
      7 S7         15.1002  -29.3884  -44.7006 S.3       10 UNK        -0.2776 
      8 C8         14.6262  -29.1822  -42.9516 C.3       10 UNK         0.0316 
      9 C9         15.8242  -29.2909  -42.0173 C.ar      10 UNK        -0.0863 
     10 C10        16.2625  -30.5376  -41.5576 C.ar      10 UNK        -0.1009 
     11 C11        17.3706  -30.6320  -40.7069 C.ar      10 UNK        -0.0712 
     12 C12        18.0494  -29.4677  -40.3327 C.ar      10 UNK        -0.0894 
     13 C13        17.6258  -28.2180  -40.7963 C.ar      10 UNK        -0.0745 
     14 C14        16.4981  -28.1352  -41.6148 C.ar      10 UNK        -0.0972 
     15 C15        18.4186  -26.9592  -40.4686 C.3       10 UNK         0.0209 
     16 S16        19.2352  -26.2734  -41.9515 S.3       10 UNK        -0.2568 
     17 C17        20.0738  -27.7682  -42.5769 C.3       10 UNK        -0.0983 
     18 CA         21.0900  -27.5501  -43.7221 C.3       3 UNK         0.0876 
     19 N          20.4523  -26.9229  -44.8771 N.am      3 UNK        -0.4424 
     20 C          20.8696  -27.0384  -46.1415 C.2       2 UNK         0.4918 
     21 O          21.8769  -27.6627  -46.4794 O.2       2 UNK        -0.4875 
     22 CA         19.9432  -26.4190  -47.2005 C.3       2 UNK         0.0481 
     23 CB         20.4974  -26.5538  -48.6311 C.3       2 UNK        -0.1831 
     24 N          18.6464  -27.0945  -47.1206 N.am      2 UNK        -0.4498 
     25 C          17.5308  -26.5730  -46.5957 C.2       1 UNK         0.5027 
     26 O          17.4343  -25.4084  -46.2010 O.2       1 UNK        -0.4969 
     27 C          22.3536  -26.8017  -43.2557 C.2       3 UNK         0.5005 
     28 O          22.5653  -25.6400  -43.6165 O.2       3 UNK        -0.5279 
     29 N          23.1579  -27.4881  -42.4381 N.am      4 UNK        -0.4463 
     30 CA         24.3449  -26.9640  -41.7727 C.3       4 UNK         0.0283 
     31 CB         25.5984  -27.3027  -42.5951 C.3       4 UNK        -0.1875 
     32 C          24.3988  -27.5926  -40.3785 C.2       4 UNK         0.4949 
     33 O          24.1533  -28.7954  -40.2594 O.2       4 UNK        -0.5039 
     34 N          24.7017  -26.7705  -39.3644 N.am      5 UNK        -0.4663 
     35 CA         24.6586  -27.0807  -37.9290 C.3       5 UNK         0.0242 
     36 CB         25.1998  -25.8736  -37.1422 C.3       5 UNK        -0.1982 
     37 C          25.4009  -28.3744  -37.5451 C.2       5 UNK         0.5017 
     38 O          26.6281  -28.3634  -37.4323 O.2       5 UNK        -0.5012 
     39 N          24.6287  -29.4609  -37.3885 N.am      6 UNK        -0.4439 
     40 CA         25.0588  -30.8366  -37.1054 C.3       6 UNK         0.0297 
     41 CB         25.6728  -30.9357  -35.6921 C.3       6 UNK        -0.2006 
     42 C          25.9708  -31.4483  -38.1920 C.2       6 UNK         0.4892 
     43 O          26.7325  -32.3689  -37.8886 O.2       6 UNK        -0.5089 
     44 N          25.8815  -30.9378  -39.4280 N.am      7 UNK        -0.4243 
     45 CA         26.7237  -31.3329  -40.5576 C.3       7 UNK         0.0196 
     46 CB         27.6898  -30.1842  -40.8914 C.3       7 UNK        -0.2007 
     47 C          25.9110  -31.7446  -41.7935 C.2       7 UNK         0.5020 
     48 O          26.3919  -32.5852  -42.5546 O.2       7 UNK        -0.5147 
     49 N          24.7108  -31.1821  -41.9895 N.am      8 UNK        -0.4734 
     50 CA         23.8298  -31.5097  -43.1124 C.3       8 UNK         0.0238 
     51 CB         24.2749  -30.7474  -44.3763 C.3       8 UNK        -0.1912 
     52 C          22.3831  -31.1533  -42.7644 C.2       8 UNK         0.5038 
     53 O          22.1654  -30.2096  -42.0042 O.2       8 UNK        -0.5046 
     54 N          21.4375  -31.8675  -43.3803 N.am      9 UNK        -0.4200 
     55 CA         19.9921  -31.6024  -43.3508 C.3       9 UNK         0.0839 
     56 C          19.4403  -31.5013  -44.7965 C.2       9 UNK         0.5513 
     57 N          18.2412  -30.9631  -44.9619 N.am      9 UNK        -0.7519 
     58 O          20.0701  -31.9238  -45.7648 O.2       9 UNK        -0.4960 
     59 C59        19.2236  -32.6730  -42.5312 C.3       10 UNK        -0.0876 
     60 S60        19.4838  -32.4702  -40.7382 S.3       10 UNK        -0.2414 
     61 C61        17.8195  -31.9865  -40.1690 C.3       10 UNK         0.0169 
     62 H62        12.8987  -25.7536  -47.4638 H         1 UNK         0.0903 
     63 H63        13.6206  -24.9681  -48.8695 H         1 UNK         0.0903 
     64 H64        12.8312  -26.5381  -49.0430 H         1 UNK         0.0903 
     65 H65        14.4490  -26.6539  -46.1204 H         1 UNK         0.3096 
     66 H66        16.5120  -28.4142  -47.0483 H         1 UNK         0.1121 
     67 H67        17.2384  -28.3242  -44.5823 H         1 UNK         0.0849 
     68 H68        15.9646  -27.1638  -44.3100 H         1 UNK         0.0849 
     69 H69        14.1262  -28.2209  -42.8219 H         1 UNK         0.0865 
     70 H70        13.8877  -29.9427  -42.6934 H         1 UNK         0.0865 
     71 H71        15.7360  -31.4330  -41.8594 H         1 UNK         0.1346 
     72 H72        18.9208  -29.5413  -39.6963 H         1 UNK         0.1412 
     73 H73        16.1724  -27.1669  -41.9691 H         1 UNK         0.1426 
     74 H74        19.1756  -27.1651  -39.7102 H         1 UNK         0.0716 
     75 H75        17.7521  -26.2067  -40.0451 H         1 UNK         0.0716 
     76 H76        20.5398  -28.2758  -41.7317 H         1 UNK         0.0695 
     77 H77        19.2965  -28.4424  -42.9363 H         1 UNK         0.0695 
     78 H78        21.4241  -28.5388  -44.0445 H         1 UNK         0.0983 
     79 H79        19.6411  -26.3560  -44.6765 H         1 UNK         0.3095 
     80 H80        19.8469  -25.3550  -46.9750 H         1 UNK         0.0454 
     81 H81        21.4659  -26.0605  -48.7219 H         1 UNK         0.0851 
     82 H82        20.6337  -27.5970  -48.9188 H         1 UNK         0.0851 
     83 H83        19.8294  -26.0915  -49.3579 H         1 UNK         0.0851 
     84 H84        18.6466  -28.0688  -47.3897 H         1 UNK         0.2976 
     85 H85        22.8799  -28.4221  -42.1352 H         1 UNK         0.3116 
     86 H86        24.2642  -25.8797  -41.6683 H         1 UNK         0.0646 
     87 H87        26.5017  -26.9498  -42.0960 H         1 UNK         0.0847 
     88 H88        25.5646  -26.8305  -43.5769 H         1 UNK         0.0847 
     89 H89        25.7031  -28.3770  -42.7472 H         1 UNK         0.0847 
     90 H90        24.9198  -25.8108  -39.5914 H         1 UNK         0.3040 
     91 H91        23.6074  -27.2007  -37.6585 H         1 UNK         0.1015 
     92 H92        26.2288  -25.6392  -37.4184 H         1 UNK         0.0786 
     93 H93        25.1878  -26.0696  -36.0690 H         1 UNK         0.0786 
     94 H94        24.5950  -24.9827  -37.3129 H         1 UNK         0.0786 
     95 H95        23.6390  -29.3542  -37.5666 H         1 UNK         0.3172 
     96 H96        24.1500  -31.4400  -37.1097 H         1 UNK         0.0595 
     97 H97        25.8537  -31.9747  -35.4140 H         1 UNK         0.0839 
     98 H98        26.6276  -30.4127  -35.6286 H         1 UNK         0.0839 
     99 H99        25.0078  -30.5134  -34.9389 H         1 UNK         0.0839 
    100 H100       25.2223  -30.1809  -39.5939 H         1 UNK         0.2998 
    101 H101       27.3262  -32.2039  -40.2908 H         1 UNK         0.0822 
    102 H102       28.2904  -30.4148  -41.7724 H         1 UNK         0.0787 
    103 H103       27.1579  -29.2543  -41.0868 H         1 UNK         0.0787 
    104 H104       28.3791  -30.0015  -40.0668 H         1 UNK         0.0787 
    105 H105       24.3401  -30.4967  -41.3361 H         1 UNK         0.3055 
    106 H106       23.8799  -32.5851  -43.2996 H         1 UNK         0.1106 
    107 H107       25.2953  -31.0036  -44.6611 H         1 UNK         0.0828 
    108 H108       23.6350  -30.9884  -45.2263 H         1 UNK         0.0828 
    109 H109       24.2288  -29.6674  -44.2336 H         1 UNK         0.0828 
    110 H110       21.7150  -32.5728  -44.0487 H         1 UNK         0.2931 
    111 H111       19.8153  -30.6303  -42.8920 H         1 UNK         0.0412 
    112 H112       17.6964  -30.6391  -44.1776 H         1 UNK         0.3472 
    113 H113       17.8516  -30.9249  -45.8898 H         1 UNK         0.3472 
    114 H114       19.5370  -33.6773  -42.8209 H         1 UNK         0.0970 
    115 H115       18.1516  -32.6306  -42.7316 H         1 UNK         0.0970 
    116 H116       17.8243  -31.9463  -39.0790 H         1 UNK         0.0612 
    117 H117       17.1094  -32.7692  -40.4406 H         1 UNK         0.0612 
@<TRIPOS>BOND
     1    1    2 1    
     2    1   62 1    
     3    1   63 1    
     4    1   64 1    
     5    2    3 2    
     6    2    4 am   BACKBONE|DICT|INTERRES
     7    4    5 1    
     8    4   65 1    
     9    5    6 1    
    10    5   25 1    
    11    5   66 1    
    12    6    7 1    
    13    6   67 1    
    14    6   68 1    
    15    7    8 1    
    16    8    9 1    
    17    8   69 1    
    18    8   70 1    
    19    9   10 ar   
    20    9   14 ar   
    21   10   11 ar   
    22   10   71 1    
    23   11   12 ar   
    24   11   61 1    
    25   12   13 ar   
    26   12   72 1    
    27   13   14 ar   
    28   13   15 1    
    29   14   73 1    
    30   15   16 1    
    31   15   74 1    
    32   15   75 1    
    33   16   17 1    
    34   17   18 1    
    35   17   76 1    
    36   17   77 1    
    37   18   19 1    
    38   18   27 1    
    39   18   78 1    
    40   19   20 am   BACKBONE|DICT|INTERRES
    41   19   79 1    
    42   20   21 2    
    43   20   22 1    
    44   22   23 1    
    45   22   24 1    
    46   22   80 1    
    47   23   81 1    
    48   23   82 1    
    49   23   83 1    
    50   24   25 am   BACKBONE|DICT|INTERRES
    51   24   84 1    
    52   25   26 2    
    53   27   28 2    
    54   27   29 am   BACKBONE|DICT|INTERRES
    55   29   30 1    
    56   29   85 1    
    57   30   31 1    
    58   30   32 1    
    59   30   86 1    
    60   31   87 1    
    61   31   88 1    
    62   31   89 1    
    63   32   33 2    
    64   32   34 am   BACKBONE|DICT|INTERRES
    65   34   35 1    
    66   34   90 1    
    67   35   36 1    
    68   35   37 1    
    69   35   91 1    
    70   36   92 1    
    71   36   93 1    
    72   36   94 1    
    73   37   38 2    
    74   37   39 am   BACKBONE|DICT|INTERRES
    75   39   40 1    
    76   39   95 1    
    77   40   41 1    
    78   40   42 1    
    79   40   96 1    
    80   41   97 1    
    81   41   98 1    
    82   41   99 1    
    83   42   43 2    
    84   42   44 am   BACKBONE|DICT|INTERRES
    85   44   45 1    
    86   44  100 1    
    87   45   46 1    
    88   45   47 1    
    89   45  101 1    
    90   46  102 1    
    91   46  103 1    
    92   46  104 1    
    93   47   48 2    
    94   47   49 am   BACKBONE|DICT|INTERRES
    95   49   50 1    
    96   49  105 1    
    97   50   51 1    
    98   50   52 1    
    99   50  106 1    
   100   51  107 1    
   101   51  108 1    
   102   51  109 1    
   103   52   53 2    
   104   52   54 am   BACKBONE|DICT|INTERRES
   105   54   55 1    
   106   54  110 1    
   107   55   56 1    
   108   55   59 1    
   109   55  111 1    
   110   56   57 am   BACKBONE|DICT|INTERRES
   111   56   58 2    
   112   57  112 1    
   113   57  113 1    
   114   59   60 1    
   115   59  114 1    
   116   59  115 1    
   117   60   61 1    
   118   61  116 1    
   119   61  117 1    
@<TRIPOS>SUBSTRUCTURE
     1 UNK         1 GROUP             0       ****    0 ROOT    
