@<TRIPOS>MOLECULE
3R8
117   119    1
SMALL
USER_CHARGES


@<TRIPOS>ATOM
      1 CA         18.7677  -27.0473  -49.5217 C.3       0 UNK        -0.2013 
      2 C          18.2271  -26.6375  -48.1599 C.2       0 UNK         0.4866 
      3 O          17.8129  -25.4906  -47.9910 O.2       0 UNK        -0.5176 
      4 N          18.2339  -27.5688  -47.1951 N.am      1 UNK        -0.4884 
      5 CA         17.7538  -27.4040  -45.8129 C.3       1 UNK         0.0853 
      6 C6         16.2121  -27.2235  -45.7065 C.3       10 UNK        -0.0849 
      7 S7         15.3167  -28.6837  -46.3520 S.3       10 UNK        -0.2776 
      8 C8         14.8692  -29.5928  -44.8303 C.3       10 UNK         0.0316 
      9 C9         16.0711  -29.8173  -43.9227 C.ar      10 UNK        -0.0863 
     10 C10        17.0980  -30.6840  -44.3071 C.ar      10 UNK        -0.1009 
     11 C11        18.2533  -30.8010  -43.5285 C.ar      10 UNK        -0.0712 
     12 C12        18.3660  -30.0672  -42.3422 C.ar      10 UNK        -0.0894 
     13 C13        17.3275  -29.2251  -41.9291 C.ar      10 UNK        -0.0745 
     14 C14        16.1803  -29.1141  -42.7205 C.ar      10 UNK        -0.0972 
     15 C15        17.4379  -28.4232  -40.6387 C.3       10 UNK         0.0209 
     16 S16        17.3271  -26.6331  -40.9670 S.3       10 UNK        -0.2568 
     17 C17        18.7632  -25.9732  -40.0608 C.3       10 UNK        -0.0983 
     18 CA         20.1144  -26.2444  -40.7675 C.3       3 UNK         0.0876 
     19 N          20.1045  -25.8465  -42.1795 N.am      3 UNK        -0.4424 
     20 C          21.0943  -26.0743  -43.0505 C.2       2 UNK         0.4918 
     21 O          22.1277  -26.6822  -42.7642 O.2       2 UNK        -0.4875 
     22 CA         20.8691  -25.5653  -44.4853 C.3       2 UNK         0.0481 
     23 CB         22.1730  -25.5286  -45.3036 C.3       2 UNK        -0.1831 
     24 N          19.8952  -26.4047  -45.1825 N.am      2 UNK        -0.4498 
     25 C          18.5635  -26.3414  -45.0371 C.2       1 UNK         0.5027 
     26 O          17.9961  -25.5018  -44.3349 O.2       1 UNK        -0.4969 
     27 C          21.2715  -25.5769  -39.9951 C.2       3 UNK         0.5005 
     28 O          21.7102  -24.4833  -40.3632 O.2       3 UNK        -0.5279 
     29 N          21.7638  -26.2654  -38.9558 N.am      4 UNK        -0.4463 
     30 CA         22.9527  -25.9634  -38.1413 C.3       4 UNK         0.0283 
     31 CB         22.8625  -24.5844  -37.4580 C.3       4 UNK        -0.1875 
     32 C          24.2801  -26.1282  -38.9059 C.2       4 UNK         0.4949 
     33 O          25.1952  -26.7627  -38.3825 O.2       4 UNK        -0.5039 
     34 N          24.3571  -25.5874  -40.1286 N.am      5 UNK        -0.4663 
     35 CA         25.5012  -25.7015  -41.0362 C.3       5 UNK         0.0242 
     36 CB         25.3225  -24.7225  -42.2080 C.3       5 UNK        -0.1982 
     37 C          25.7082  -27.1358  -41.5506 C.2       5 UNK         0.5017 
     38 O          26.8405  -27.6198  -41.5537 O.2       5 UNK        -0.5012 
     39 N          24.6119  -27.7876  -41.9554 N.am      6 UNK        -0.4439 
     40 CA         24.5695  -29.1633  -42.4443 C.3       6 UNK         0.0297 
     41 CB         24.5171  -29.1591  -43.9841 C.3       6 UNK        -0.2006 
     42 C          23.3784  -29.8944  -41.8082 C.2       6 UNK         0.4892 
     43 O          22.6008  -30.5375  -42.5131 O.2       6 UNK        -0.5089 
     44 N          23.2598  -29.7937  -40.4752 N.am      7 UNK        -0.4243 
     45 CA         22.1829  -30.3849  -39.6670 C.3       7 UNK         0.0196 
     46 CB         22.3774  -29.9835  -38.1962 C.3       7 UNK        -0.2007 
     47 C          22.0607  -31.9170  -39.7745 C.2       7 UNK         0.5020 
     48 O          20.9660  -32.4483  -39.5925 O.2       7 UNK        -0.5147 
     49 N          23.1776  -32.5954  -40.0700 N.am      8 UNK        -0.4734 
     50 CA         23.2386  -34.0402  -40.3096 C.3       8 UNK         0.0238 
     51 CB         24.6884  -34.5141  -40.1106 C.3       8 UNK        -0.1912 
     52 C          22.7209  -34.4588  -41.7002 C.2       8 UNK         0.5038 
     53 O          22.5159  -35.6537  -41.9177 O.2       8 UNK        -0.5046 
     54 N          22.5405  -33.4915  -42.6118 N.am      9 UNK        -0.4200 
     55 CA         22.0815  -33.6692  -43.9999 C.3       9 UNK         0.0839 
     56 C          23.0770  -34.4324  -44.9259 C.2       9 UNK         0.5513 
     57 N          24.3499  -34.5555  -44.5686 N.am      9 UNK        -0.7519 
     58 O          22.7020  -34.8940  -46.0010 O.2       9 UNK        -0.4960 
     59 C59        20.6250  -34.2121  -44.1061 C.3       10 UNK        -0.0876 
     60 S60        19.4007  -33.2818  -43.1197 S.3       10 UNK        -0.2414 
     61 C61        19.3954  -31.6887  -43.9935 C.3       10 UNK         0.0169 
     62 H62        19.6163  -26.4197  -49.7928 H         1 UNK         0.0903 
     63 H63        19.0960  -28.0864  -49.5364 H         1 UNK         0.0903 
     64 H64        17.9971  -26.9254  -50.2825 H         1 UNK         0.0903 
     65 H65        18.5776  -28.4929  -47.4179 H         1 UNK         0.3096 
     66 H66        18.0032  -28.3349  -45.3062 H         1 UNK         0.1121 
     67 H67        15.8899  -26.3413  -46.2614 H         1 UNK         0.0849 
     68 H68        15.9060  -27.0504  -44.6736 H         1 UNK         0.0849 
     69 H69        14.0849  -29.0437  -44.3068 H         1 UNK         0.0865 
     70 H70        14.4362  -30.5560  -45.1039 H         1 UNK         0.0865 
     71 H71        17.0153  -31.2306  -45.2369 H         1 UNK         0.1346 
     72 H72        19.2639  -30.1573  -41.7459 H         1 UNK         0.1412 
     73 H73        15.3874  -28.4452  -42.4138 H         1 UNK         0.1426 
     74 H74        18.3667  -28.6588  -40.1179 H         1 UNK         0.0716 
     75 H75        16.6287  -28.7110  -39.9662 H         1 UNK         0.0716 
     76 H76        18.7595  -26.3911  -39.0522 H         1 UNK         0.0695 
     77 H77        18.6063  -24.8989  -39.9442 H         1 UNK         0.0695 
     78 H78        20.2960  -27.3212  -40.7596 H         1 UNK         0.0983 
     79 H79        19.2622  -25.3954  -42.5144 H         1 UNK         0.3095 
     80 H80        20.4855  -24.5447  -44.4242 H         1 UNK         0.0454 
     81 H81        22.6101  -26.5210  -45.4199 H         1 UNK         0.0851 
     82 H82        22.9195  -24.8997  -44.8172 H         1 UNK         0.0851 
     83 H83        22.0049  -25.1175  -46.2990 H         1 UNK         0.0851 
     84 H84        20.2731  -27.1285  -45.7766 H         1 UNK         0.2976 
     85 H85        21.3185  -27.1438  -38.7310 H         1 UNK         0.3116 
     86 H86        22.9585  -26.7079  -37.3438 H         1 UNK         0.0646 
     87 H87        22.9118  -23.7630  -38.1731 H         1 UNK         0.0847 
     88 H88        23.6873  -24.4469  -36.7577 H         1 UNK         0.0847 
     89 H89        21.9369  -24.4814  -36.8919 H         1 UNK         0.0847 
     90 H90        23.5417  -25.0796  -40.4626 H         1 UNK         0.3040 
     91 H91        26.3995  -25.4159  -40.4842 H         1 UNK         0.1015 
     92 H92        24.4149  -24.9321  -42.7751 H         1 UNK         0.0786 
     93 H93        26.1629  -24.7842  -42.9008 H         1 UNK         0.0786 
     94 H94        25.2668  -23.6917  -41.8575 H         1 UNK         0.0786 
     95 H95        23.7214  -27.2928  -41.9790 H         1 UNK         0.3172 
     96 H96        25.4660  -29.7026  -42.1322 H         1 UNK         0.0595 
     97 H97        23.6184  -28.6618  -44.3513 H         1 UNK         0.0839 
     98 H98        24.5145  -30.1755  -44.3799 H         1 UNK         0.0839 
     99 H99        25.3808  -28.6478  -44.4090 H         1 UNK         0.0839 
    100 H100       23.9572  -29.2566  -39.9792 H         1 UNK         0.2998 
    101 H101       21.2409  -29.9614  -40.0212 H         1 UNK         0.0822 
    102 H102       22.3913  -28.9035  -38.0720 H         1 UNK         0.0787 
    103 H103       21.5670  -30.3685  -37.5752 H         1 UNK         0.0787 
    104 H104       23.3112  -30.3768  -37.7918 H         1 UNK         0.0787 
    105 H105       24.0357  -32.0755  -40.1839 H         1 UNK         0.3055 
    106 H106       22.6094  -34.5425  -39.5710 H         1 UNK         0.1106 
    107 H107       24.7696  -35.5935  -40.2479 H         1 UNK         0.0828 
    108 H108       25.3701  -34.0440  -40.8204 H         1 UNK         0.0828 
    109 H109       25.0441  -34.2920  -39.1044 H         1 UNK         0.0828 
    110 H110       22.6993  -32.5270  -42.3413 H         1 UNK         0.2931 
    111 H111       22.0742  -32.6611  -44.4138 H         1 UNK         0.0412 
    112 H112       24.9894  -35.0414  -45.1778 H         1 UNK         0.3472 
    113 H113       24.6752  -34.1718  -43.6962 H         1 UNK         0.3472 
    114 H114       20.2899  -34.2066  -45.1448 H         1 UNK         0.0970 
    115 H115       20.5889  -35.2557  -43.7897 H         1 UNK         0.0970 
    116 H116       20.3426  -31.1764  -43.8231 H         1 UNK         0.0612 
    117 H117       19.3264  -31.8637  -45.0682 H         1 UNK         0.0612 
@<TRIPOS>BOND
     1    1    2 1    
     2    1   62 1    
     3    1   63 1    
     4    1   64 1    
     5    2    3 2    
     6    2    4 am   BACKBONE|DICT|INTERRES
     7    4    5 1    
     8    4   65 1    
     9    5    6 1    
    10    5   25 1    
    11    5   66 1    
    12    6    7 1    
    13    6   67 1    
    14    6   68 1    
    15    7    8 1    
    16    8    9 1    
    17    8   69 1    
    18    8   70 1    
    19    9   10 ar   
    20    9   14 ar   
    21   10   11 ar   
    22   10   71 1    
    23   11   12 ar   
    24   11   61 1    
    25   12   13 ar   
    26   12   72 1    
    27   13   14 ar   
    28   13   15 1    
    29   14   73 1    
    30   15   16 1    
    31   15   74 1    
    32   15   75 1    
    33   16   17 1    
    34   17   18 1    
    35   17   76 1    
    36   17   77 1    
    37   18   19 1    
    38   18   27 1    
    39   18   78 1    
    40   19   20 am   BACKBONE|DICT|INTERRES
    41   19   79 1    
    42   20   21 2    
    43   20   22 1    
    44   22   23 1    
    45   22   24 1    
    46   22   80 1    
    47   23   81 1    
    48   23   82 1    
    49   23   83 1    
    50   24   25 am   BACKBONE|DICT|INTERRES
    51   24   84 1    
    52   25   26 2    
    53   27   28 2    
    54   27   29 am   BACKBONE|DICT|INTERRES
    55   29   30 1    
    56   29   85 1    
    57   30   31 1    
    58   30   32 1    
    59   30   86 1    
    60   31   87 1    
    61   31   88 1    
    62   31   89 1    
    63   32   33 2    
    64   32   34 am   BACKBONE|DICT|INTERRES
    65   34   35 1    
    66   34   90 1    
    67   35   36 1    
    68   35   37 1    
    69   35   91 1    
    70   36   92 1    
    71   36   93 1    
    72   36   94 1    
    73   37   38 2    
    74   37   39 am   BACKBONE|DICT|INTERRES
    75   39   40 1    
    76   39   95 1    
    77   40   41 1    
    78   40   42 1    
    79   40   96 1    
    80   41   97 1    
    81   41   98 1    
    82   41   99 1    
    83   42   43 2    
    84   42   44 am   BACKBONE|DICT|INTERRES
    85   44   45 1    
    86   44  100 1    
    87   45   46 1    
    88   45   47 1    
    89   45  101 1    
    90   46  102 1    
    91   46  103 1    
    92   46  104 1    
    93   47   48 2    
    94   47   49 am   BACKBONE|DICT|INTERRES
    95   49   50 1    
    96   49  105 1    
    97   50   51 1    
    98   50   52 1    
    99   50  106 1    
   100   51  107 1    
   101   51  108 1    
   102   51  109 1    
   103   52   53 2    
   104   52   54 am   BACKBONE|DICT|INTERRES
   105   54   55 1    
   106   54  110 1    
   107   55   56 1    
   108   55   59 1    
   109   55  111 1    
   110   56   57 am   BACKBONE|DICT|INTERRES
   111   56   58 2    
   112   57  112 1    
   113   57  113 1    
   114   59   60 1    
   115   59  114 1    
   116   59  115 1    
   117   60   61 1    
   118   61  116 1    
   119   61  117 1    
@<TRIPOS>SUBSTRUCTURE
     1 UNK         1 GROUP             0       ****    0 ROOT    
