@<TRIPOS>MOLECULE
3R8
117   119    1
SMALL
USER_CHARGES


@<TRIPOS>ATOM
      1 CA         15.6374  -23.2526  -48.5231 C.3       0 UNK        -0.2013 
      2 C          16.6496  -24.3876  -48.4882 C.2       0 UNK         0.4866 
      3 O          17.7279  -24.2652  -49.0692 O.2       0 UNK        -0.5176 
      4 N          16.3126  -25.4918  -47.8090 N.am      1 UNK        -0.4884 
      5 CA         17.1634  -26.6811  -47.6574 C.3       1 UNK         0.0853 
      6 C6         16.3276  -27.9523  -47.3691 C.3       10 UNK        -0.0849 
      7 S7         15.2017  -27.8060  -45.9368 S.3       10 UNK        -0.2776 
      8 C8         15.2068  -29.5122  -45.3028 C.3       10 UNK         0.0316 
      9 C9         16.2805  -29.7147  -44.2447 C.ar      10 UNK        -0.0863 
     10 C10        17.5735  -30.1080  -44.6028 C.ar      10 UNK        -0.1009 
     11 C11        18.5501  -30.3078  -43.6229 C.ar      10 UNK        -0.0712 
     12 C12        18.2202  -30.1317  -42.2761 C.ar      10 UNK        -0.0894 
     13 C13        16.9356  -29.7225  -41.9060 C.ar      10 UNK        -0.0745 
     14 C14        15.9707  -29.5176  -42.8961 C.ar      10 UNK        -0.0972 
     15 C15        16.5801  -29.4978  -40.4405 C.3       10 UNK         0.0209 
     16 S16        17.7075  -28.3400  -39.5934 S.3       10 UNK        -0.2568 
     17 C17        17.6631  -26.8714  -40.6800 C.3       10 UNK        -0.0983 
     18 CA         18.9918  -26.6990  -41.4662 C.3       3 UNK         0.0876 
     19 N          18.7938  -25.9121  -42.6886 N.am      3 UNK        -0.4424 
     20 C          19.5844  -25.9553  -43.7690 C.2       2 UNK         0.4918 
     21 O          20.5497  -26.7153  -43.8768 O.2       2 UNK        -0.4875 
     22 CA         19.2610  -24.9445  -44.8829 C.3       2 UNK         0.0481 
     23 CB         20.5299  -24.4770  -45.6263 C.3       2 UNK        -0.1831 
     24 N          18.2521  -25.4320  -45.8293 N.am      2 UNK        -0.4498 
     25 C          18.3231  -26.4928  -46.6515 C.2       1 UNK         0.5027 
     26 O          19.2629  -27.2879  -46.6805 O.2       1 UNK        -0.4969 
     27 C          20.1514  -26.1289  -40.6116 C.2       3 UNK         0.5005 
     28 O          19.9352  -25.6585  -39.4922 O.2       3 UNK        -0.5279 
     29 N          21.3659  -26.1490  -41.1730 N.am      4 UNK        -0.4463 
     30 CA         22.6087  -25.7710  -40.5045 C.3       4 UNK         0.0283 
     31 CB         23.6576  -25.4115  -41.5698 C.3       4 UNK        -0.1875 
     32 C          23.1162  -26.9256  -39.6299 C.2       4 UNK         0.4949 
     33 O          22.9575  -28.0891  -40.0021 O.2       4 UNK        -0.5039 
     34 N          23.7807  -26.5903  -38.5169 N.am      5 UNK        -0.4663 
     35 CA         24.3837  -27.5597  -37.5908 C.3       5 UNK         0.0242 
     36 CB         24.8343  -26.8271  -36.3164 C.3       5 UNK        -0.1982 
     37 C          25.5560  -28.3555  -38.1980 C.2       5 UNK         0.5017 
     38 O          25.8489  -29.4547  -37.7279 O.2       5 UNK        -0.5012 
     39 N          26.1953  -27.7881  -39.2293 N.am      6 UNK        -0.4439 
     40 CA         27.2877  -28.3966  -39.9890 C.3       6 UNK         0.0297 
     41 CB         28.1438  -27.2729  -40.5990 C.3       6 UNK        -0.2006 
     42 C          26.8149  -29.3694  -41.0883 C.2       6 UNK         0.4892 
     43 O          27.6644  -30.0274  -41.6917 O.2       6 UNK        -0.5089 
     44 N          25.5026  -29.4335  -41.3650 N.am      7 UNK        -0.4243 
     45 CA         24.9246  -30.3036  -42.3929 C.3       7 UNK         0.0196 
     46 CB         23.4904  -29.8456  -42.7033 C.3       7 UNK        -0.2007 
     47 C          24.9359  -31.7846  -41.9769 C.2       7 UNK         0.5020 
     48 O          24.9259  -32.0988  -40.7852 O.2       7 UNK        -0.5147 
     49 N          24.9147  -32.6711  -42.9799 N.am      8 UNK        -0.4734 
     50 CA         24.8981  -34.1291  -42.8062 C.3       8 UNK         0.0238 
     51 CB         25.3994  -34.7866  -44.1037 C.3       8 UNK        -0.1912 
     52 C          23.5219  -34.7003  -42.4094 C.2       8 UNK         0.5038 
     53 O          23.4463  -35.8813  -42.0667 O.2       8 UNK        -0.5046 
     54 N          22.4680  -33.8772  -42.4910 N.am      9 UNK        -0.4200 
     55 CA         21.0761  -34.2122  -42.1552 C.3       9 UNK         0.0839 
     56 C          20.8975  -34.6863  -40.6864 C.2       9 UNK         0.5513 
     57 N          20.0601  -35.6881  -40.4552 N.am      9 UNK        -0.7519 
     58 O          21.4703  -34.1223  -39.7566 O.2       9 UNK        -0.4960 
     59 C59        20.1256  -33.0232  -42.4473 C.3       10 UNK        -0.0876 
     60 S60        20.1745  -32.4844  -44.1912 S.3       10 UNK        -0.2414 
     61 C61        19.9682  -30.6841  -44.0233 C.3       10 UNK         0.0169 
     62 H62        15.3559  -23.0331  -49.5526 H         1 UNK         0.0903 
     63 H63        14.7312  -23.4964  -47.9688 H         1 UNK         0.0903 
     64 H64        16.0689  -22.3513  -48.0883 H         1 UNK         0.0903 
     65 H65        15.4126  -25.5486  -47.3506 H         1 UNK         0.3096 
     66 H66        17.6535  -26.8472  -48.6200 H         1 UNK         0.1121 
     67 H67        16.9842  -28.8146  -47.2469 H         1 UNK         0.0849 
     68 H68        15.7144  -28.1821  -48.2419 H         1 UNK         0.0849 
     69 H69        14.2254  -29.7266  -44.8767 H         1 UNK         0.0865 
     70 H70        15.3350  -30.2225  -46.1211 H         1 UNK         0.0865 
     71 H71        17.8267  -30.2559  -45.6431 H         1 UNK         0.1346 
     72 H72        18.9701  -30.2832  -41.5124 H         1 UNK         0.1412 
     73 H73        14.9733  -29.2041  -42.6185 H         1 UNK         0.1426 
     74 H74        16.6036  -30.4563  -39.9205 H         1 UNK         0.0716 
     75 H75        15.5612  -29.1199  -40.3423 H         1 UNK         0.0716 
     76 H76        17.4278  -25.9875  -40.0846 H         1 UNK         0.0695 
     77 H77        16.8275  -26.9823  -41.3728 H         1 UNK         0.0695 
     78 H78        19.3147  -27.6919  -41.7836 H         1 UNK         0.0983 
     79 H79        18.0379  -25.2431  -42.6671 H         1 UNK         0.3095 
     80 H80        18.8297  -24.0626  -44.4065 H         1 UNK         0.0454 
     81 H81        20.2970  -23.7087  -46.3634 H         1 UNK         0.0851 
     82 H82        21.0273  -25.2971  -46.1450 H         1 UNK         0.0851 
     83 H83        21.2532  -24.0511  -44.9298 H         1 UNK         0.0851 
     84 H84        17.4126  -24.8739  -45.8945 H         1 UNK         0.2976 
     85 H85        21.4440  -26.5416  -42.1063 H         1 UNK         0.3116 
     86 H86        22.4276  -24.8948  -39.8782 H         1 UNK         0.0646 
     87 H87        23.8923  -26.2623  -42.2113 H         1 UNK         0.0847 
     88 H88        23.3112  -24.5984  -42.2082 H         1 UNK         0.0847 
     89 H89        24.5899  -25.0833  -41.1089 H         1 UNK         0.0847 
     90 H90        23.8763  -25.6127  -38.2783 H         1 UNK         0.3040 
     91 H91        23.6137  -28.2845  -37.3162 H         1 UNK         0.1015 
     92 H92        25.2619  -27.5254  -35.5952 H         1 UNK         0.0786 
     93 H93        23.9965  -26.3315  -35.8254 H         1 UNK         0.0786 
     94 H94        25.5940  -26.0739  -36.5297 H         1 UNK         0.0786 
     95 H95        25.8817  -26.8776  -39.5316 H         1 UNK         0.3172 
     96 H96        27.9178  -28.9664  -39.3027 H         1 UNK         0.0595 
     97 H97        27.5750  -26.6699  -41.3080 H         1 UNK         0.0839 
     98 H98        29.0018  -27.6810  -41.1353 H         1 UNK         0.0839 
     99 H99        28.5353  -26.6080  -39.8288 H         1 UNK         0.0839 
    100 H100       24.8480  -28.9167  -40.7906 H         1 UNK         0.2998 
    101 H101       25.5240  -30.1937  -43.2996 H         1 UNK         0.0822 
    102 H102       23.4528  -28.7853  -42.9542 H         1 UNK         0.0787 
    103 H103       22.8220  -30.0131  -41.8576 H         1 UNK         0.0787 
    104 H104       23.0842  -30.3917  -43.5552 H         1 UNK         0.0787 
    105 H105       24.9153  -32.3312  -43.9319 H         1 UNK         0.3055 
    106 H106       25.5913  -34.3892  -42.0026 H         1 UNK         0.1106 
    107 H107       24.7440  -34.5674  -44.9477 H         1 UNK         0.0828 
    108 H108       26.4035  -34.4477  -44.3593 H         1 UNK         0.0828 
    109 H109       25.4446  -35.8718  -44.0010 H         1 UNK         0.0828 
    110 H110       22.6341  -32.9279  -42.7852 H         1 UNK         0.2931 
    111 H111       20.7919  -35.0379  -42.8108 H         1 UNK         0.0412 
    112 H112       19.5774  -36.1494  -41.2111 H         1 UNK         0.3472 
    113 H113       19.9170  -35.9989  -39.5067 H         1 UNK         0.3472 
    114 H114       19.0926  -33.2887  -42.2130 H         1 UNK         0.0970 
    115 H115       20.3789  -32.1831  -41.7985 H         1 UNK         0.0970 
    116 H116       20.2179  -30.2104  -44.9742 H         1 UNK         0.0612 
    117 H117       20.6802  -30.2928  -43.2965 H         1 UNK         0.0612 
@<TRIPOS>BOND
     1    1    2 1    
     2    1   62 1    
     3    1   63 1    
     4    1   64 1    
     5    2    3 2    
     6    2    4 am   BACKBONE|DICT|INTERRES
     7    4    5 1    
     8    4   65 1    
     9    5    6 1    
    10    5   25 1    
    11    5   66 1    
    12    6    7 1    
    13    6   67 1    
    14    6   68 1    
    15    7    8 1    
    16    8    9 1    
    17    8   69 1    
    18    8   70 1    
    19    9   10 ar   
    20    9   14 ar   
    21   10   11 ar   
    22   10   71 1    
    23   11   12 ar   
    24   11   61 1    
    25   12   13 ar   
    26   12   72 1    
    27   13   14 ar   
    28   13   15 1    
    29   14   73 1    
    30   15   16 1    
    31   15   74 1    
    32   15   75 1    
    33   16   17 1    
    34   17   18 1    
    35   17   76 1    
    36   17   77 1    
    37   18   19 1    
    38   18   27 1    
    39   18   78 1    
    40   19   20 am   BACKBONE|DICT|INTERRES
    41   19   79 1    
    42   20   21 2    
    43   20   22 1    
    44   22   23 1    
    45   22   24 1    
    46   22   80 1    
    47   23   81 1    
    48   23   82 1    
    49   23   83 1    
    50   24   25 am   BACKBONE|DICT|INTERRES
    51   24   84 1    
    52   25   26 2    
    53   27   28 2    
    54   27   29 am   BACKBONE|DICT|INTERRES
    55   29   30 1    
    56   29   85 1    
    57   30   31 1    
    58   30   32 1    
    59   30   86 1    
    60   31   87 1    
    61   31   88 1    
    62   31   89 1    
    63   32   33 2    
    64   32   34 am   BACKBONE|DICT|INTERRES
    65   34   35 1    
    66   34   90 1    
    67   35   36 1    
    68   35   37 1    
    69   35   91 1    
    70   36   92 1    
    71   36   93 1    
    72   36   94 1    
    73   37   38 2    
    74   37   39 am   BACKBONE|DICT|INTERRES
    75   39   40 1    
    76   39   95 1    
    77   40   41 1    
    78   40   42 1    
    79   40   96 1    
    80   41   97 1    
    81   41   98 1    
    82   41   99 1    
    83   42   43 2    
    84   42   44 am   BACKBONE|DICT|INTERRES
    85   44   45 1    
    86   44  100 1    
    87   45   46 1    
    88   45   47 1    
    89   45  101 1    
    90   46  102 1    
    91   46  103 1    
    92   46  104 1    
    93   47   48 2    
    94   47   49 am   BACKBONE|DICT|INTERRES
    95   49   50 1    
    96   49  105 1    
    97   50   51 1    
    98   50   52 1    
    99   50  106 1    
   100   51  107 1    
   101   51  108 1    
   102   51  109 1    
   103   52   53 2    
   104   52   54 am   BACKBONE|DICT|INTERRES
   105   54   55 1    
   106   54  110 1    
   107   55   56 1    
   108   55   59 1    
   109   55  111 1    
   110   56   57 am   BACKBONE|DICT|INTERRES
   111   56   58 2    
   112   57  112 1    
   113   57  113 1    
   114   59   60 1    
   115   59  114 1    
   116   59  115 1    
   117   60   61 1    
   118   61  116 1    
   119   61  117 1    
@<TRIPOS>SUBSTRUCTURE
     1 UNK         1 GROUP             0       ****    0 ROOT    
