@<TRIPOS>MOLECULE
3R8
117   119    1
SMALL
USER_CHARGES


@<TRIPOS>ATOM
      1 CA         24.1126  -22.0957  -45.6528 C.3       0 UNK        -0.2013 
      2 C          23.3466  -23.0397  -44.7381 C.2       0 UNK         0.4866 
      3 O          22.9772  -22.6500  -43.6307 O.2       0 UNK        -0.5176 
      4 N          23.1136  -24.2794  -45.1908 N.am      1 UNK        -0.4884 
      5 CA         22.3590  -25.3093  -44.4697 C.3       1 UNK         0.0853 
      6 C6         22.5744  -26.7075  -45.1090 C.3       10 UNK        -0.0849 
      7 S7         21.6137  -28.0367  -44.3116 S.3       10 UNK        -0.2776 
      8 C8         21.4319  -29.2291  -45.6692 C.3       10 UNK         0.0316 
      9 C9         20.4305  -30.2983  -45.2723 C.ar      10 UNK        -0.0863 
     10 C10        20.8510  -31.4431  -44.5897 C.ar      10 UNK        -0.1009 
     11 C11        19.9211  -32.3954  -44.1632 C.ar      10 UNK        -0.0712 
     12 C12        18.5617  -32.1927  -44.4224 C.ar      10 UNK        -0.0894 
     13 C13        18.1322  -31.0575  -45.1175 C.ar      10 UNK        -0.0745 
     14 C14        19.0733  -30.1218  -45.5536 C.ar      10 UNK        -0.0972 
     15 C15        16.6515  -30.8412  -45.3907 C.3       10 UNK         0.0209 
     16 S16        15.8735  -29.8301  -44.0904 S.3       10 UNK        -0.2568 
     17 C17        16.2815  -28.1275  -44.6140 C.3       10 UNK        -0.0983 
     18 CA         17.4899  -27.5077  -43.8528 C.3       3 UNK         0.0876 
     19 N          18.2379  -26.5460  -44.6766 N.am      3 UNK        -0.4424 
     20 C          17.7832  -25.3662  -45.1302 C.2       2 UNK         0.4918 
     21 O          16.6030  -25.0225  -45.0582 O.2       2 UNK        -0.4875 
     22 CA         18.8136  -24.3816  -45.7312 C.3       2 UNK         0.0481 
     23 CB         18.5608  -22.9393  -45.2445 C.3       2 UNK        -0.1831 
     24 N          20.2266  -24.7368  -45.5225 N.am      2 UNK        -0.4498 
     25 C          20.8680  -24.9262  -44.3572 C.2       1 UNK         0.5027 
     26 O          20.3288  -24.8583  -43.2484 O.2       1 UNK        -0.4969 
     27 C          17.1279  -26.9238  -42.4601 C.2       3 UNK         0.5005 
     28 O          16.1725  -27.3791  -41.8288 O.2       3 UNK        -0.5279 
     29 N          17.8933  -25.9188  -42.0064 N.am      4 UNK        -0.4463 
     30 CA         17.6907  -25.1974  -40.7511 C.3       4 UNK         0.0283 
     31 CB         17.4438  -23.7090  -41.0520 C.3       4 UNK        -0.1875 
     32 C          18.9015  -25.3731  -39.8294 C.2       4 UNK         0.4949 
     33 O          18.7238  -25.7210  -38.6621 O.2       4 UNK        -0.5039 
     34 N          20.1100  -25.1456  -40.3641 N.am      5 UNK        -0.4663 
     35 CA         21.3674  -25.2960  -39.6247 C.3       5 UNK         0.0242 
     36 CB         22.4313  -24.3776  -40.2469 C.3       5 UNK        -0.1982 
     37 C          21.8638  -26.7521  -39.5786 C.2       5 UNK         0.5017 
     38 O          22.6320  -27.0867  -38.6757 O.2       5 UNK        -0.5012 
     39 N          21.4107  -27.5726  -40.5407 N.am      6 UNK        -0.4439 
     40 CA         21.7803  -28.9707  -40.8033 C.3       6 UNK         0.0297 
     41 CB         21.5006  -29.8666  -39.5770 C.3       6 UNK        -0.2006 
     42 C          23.2274  -29.1318  -41.3125 C.2       6 UNK         0.4892 
     43 O          24.0227  -28.1898  -41.2816 O.2       6 UNK        -0.5089 
     44 N          23.5355  -30.3412  -41.7910 N.am      7 UNK        -0.4243 
     45 CA         24.8525  -30.7368  -42.2884 C.3       7 UNK         0.0196 
     46 CB         24.8790  -30.6456  -43.8266 C.3       7 UNK        -0.2007 
     47 C          25.1654  -32.1386  -41.7527 C.2       7 UNK         0.5020 
     48 O          25.3848  -33.0680  -42.5312 O.2       7 UNK        -0.5147 
     49 N          25.1057  -32.2734  -40.4192 N.am      8 UNK        -0.4734 
     50 CA         25.2266  -33.4923  -39.6015 C.3       8 UNK         0.0238 
     51 CB         26.5852  -34.1926  -39.8045 C.3       8 UNK        -0.1912 
     52 C          24.0550  -34.4763  -39.7744 C.2       8 UNK         0.5038 
     53 O          23.4933  -34.9195  -38.7724 O.2       8 UNK        -0.5046 
     54 N          23.6985  -34.7728  -41.0297 N.am      9 UNK        -0.4200 
     55 CA         22.5602  -35.6024  -41.4578 C.3       9 UNK         0.0839 
     56 C          22.6584  -37.1073  -41.0606 C.2       9 UNK         0.5513 
     57 N          23.8360  -37.6275  -40.7358 N.am      9 UNK        -0.7519 
     58 O          21.6622  -37.8262  -41.0779 O.2       9 UNK        -0.4960 
     59 C59        21.1838  -34.9688  -41.0995 C.3       10 UNK        -0.0876 
     60 S60        20.9744  -33.2754  -41.7546 S.3       10 UNK        -0.2414 
     61 C61        20.3862  -33.6476  -43.4355 C.3       10 UNK         0.0169 
     62 H62        25.0273  -21.7606  -45.1644 H         1 UNK         0.0903 
     63 H63        24.3858  -22.5704  -46.5949 H         1 UNK         0.0903 
     64 H64        23.5062  -21.2188  -45.8784 H         1 UNK         0.0903 
     65 H65        23.4566  -24.5386  -46.1054 H         1 UNK         0.3096 
     66 H66        22.7530  -25.3554  -43.4531 H         1 UNK         0.1121 
     67 H67        22.3277  -26.6804  -46.1718 H         1 UNK         0.0849 
     68 H68        23.6298  -26.9794  -45.0529 H         1 UNK         0.0849 
     69 H69        21.0978  -28.7207  -46.5750 H         1 UNK         0.0865 
     70 H70        22.4008  -29.6756  -45.8987 H         1 UNK         0.0865 
     71 H71        21.8992  -31.5870  -44.3718 H         1 UNK         0.1346 
     72 H72        17.8356  -32.9196  -44.0845 H         1 UNK         0.1412 
     73 H73        18.7445  -29.2392  -46.0847 H         1 UNK         0.1426 
     74 H74        16.1403  -31.8042  -45.4323 H         1 UNK         0.0716 
     75 H75        16.5038  -30.3824  -46.3694 H         1 UNK         0.0716 
     76 H76        15.3919  -27.5051  -44.5018 H         1 UNK         0.0695 
     77 H77        16.4821  -28.1440  -45.6860 H         1 UNK         0.0695 
     78 H78        18.2003  -28.3076  -43.6401 H         1 UNK         0.0983 
     79 H79        19.2225  -26.7416  -44.7887 H         1 UNK         0.3095 
     80 H80        18.6535  -24.4013  -46.8099 H         1 UNK         0.0454 
     81 H81        19.2677  -22.2401  -45.6908 H         1 UNK         0.0851 
     82 H82        18.6484  -22.8569  -44.1607 H         1 UNK         0.0851 
     83 H83        17.5604  -22.5996  -45.5156 H         1 UNK         0.0851 
     84 H84        20.7702  -24.8327  -46.3691 H         1 UNK         0.2976 
     85 H85        18.6714  -25.6067  -42.5800 H         1 UNK         0.3116 
     86 H86        16.8164  -25.5825  -40.2220 H         1 UNK         0.0646 
     87 H87        17.2945  -23.1440  -40.1310 H         1 UNK         0.0847 
     88 H88        16.5513  -23.5743  -41.6634 H         1 UNK         0.0847 
     89 H89        18.2814  -23.2545  -41.5827 H         1 UNK         0.0847 
     90 H90        20.1828  -24.8607  -41.3372 H         1 UNK         0.3040 
     91 H91        21.2124  -24.9747  -38.5919 H         1 UNK         0.1015 
     92 H92        22.1161  -23.3342  -40.2279 H         1 UNK         0.0786 
     93 H93        22.6406  -24.6435  -41.2819 H         1 UNK         0.0786 
     94 H94        23.3719  -24.4424  -39.6982 H         1 UNK         0.0786 
     95 H95        20.8069  -27.1543  -41.2327 H         1 UNK         0.3172 
     96 H96        21.1233  -29.3022  -41.6090 H         1 UNK         0.0595 
     97 H97        22.1935  -29.6690  -38.7588 H         1 UNK         0.0839 
     98 H98        21.5956  -30.9234  -39.8275 H         1 UNK         0.0839 
     99 H99        20.4882  -29.7185  -39.2015 H         1 UNK         0.0839 
    100 H100       22.8330  -31.0691  -41.7747 H         1 UNK         0.2998 
    101 H101       25.6234  -30.0715  -41.8931 H         1 UNK         0.0822 
    102 H102       24.1821  -31.3453  -44.2871 H         1 UNK         0.0787 
    103 H103       24.6228  -29.6424  -44.1682 H         1 UNK         0.0787 
    104 H104       25.8729  -30.8769  -44.2115 H         1 UNK         0.0787 
    105 H105       24.8829  -31.4388  -39.8931 H         1 UNK         0.3055 
    106 H106       25.1910  -33.1546  -38.5640 H         1 UNK         0.1106 
    107 H107       26.7005  -34.5882  -40.8137 H         1 UNK         0.0828 
    108 H108       27.4139  -33.5101  -39.6163 H         1 UNK         0.0828 
    109 H109       26.6950  -35.0313  -39.1157 H         1 UNK         0.0828 
    110 H110       24.2434  -34.3438  -41.7730 H         1 UNK         0.2931 
    111 H111       22.6247  -35.6157  -42.5461 H         1 UNK         0.0412 
    112 H112       24.6632  -37.0526  -40.7301 H         1 UNK         0.3472 
    113 H113       23.8955  -38.6036  -40.4905 H         1 UNK         0.3472 
    114 H114       20.3640  -35.5856  -41.4717 H         1 UNK         0.0970 
    115 H115       21.0553  -34.9339  -40.0166 H         1 UNK         0.0970 
    116 H116       21.1907  -34.1183  -44.0023 H         1 UNK         0.0612 
    117 H117       19.5760  -34.3764  -43.3826 H         1 UNK         0.0612 
@<TRIPOS>BOND
     1    1    2 1    
     2    1   62 1    
     3    1   63 1    
     4    1   64 1    
     5    2    3 2    
     6    2    4 am   BACKBONE|DICT|INTERRES
     7    4    5 1    
     8    4   65 1    
     9    5    6 1    
    10    5   25 1    
    11    5   66 1    
    12    6    7 1    
    13    6   67 1    
    14    6   68 1    
    15    7    8 1    
    16    8    9 1    
    17    8   69 1    
    18    8   70 1    
    19    9   10 ar   
    20    9   14 ar   
    21   10   11 ar   
    22   10   71 1    
    23   11   12 ar   
    24   11   61 1    
    25   12   13 ar   
    26   12   72 1    
    27   13   14 ar   
    28   13   15 1    
    29   14   73 1    
    30   15   16 1    
    31   15   74 1    
    32   15   75 1    
    33   16   17 1    
    34   17   18 1    
    35   17   76 1    
    36   17   77 1    
    37   18   19 1    
    38   18   27 1    
    39   18   78 1    
    40   19   20 am   BACKBONE|DICT|INTERRES
    41   19   79 1    
    42   20   21 2    
    43   20   22 1    
    44   22   23 1    
    45   22   24 1    
    46   22   80 1    
    47   23   81 1    
    48   23   82 1    
    49   23   83 1    
    50   24   25 am   BACKBONE|DICT|INTERRES
    51   24   84 1    
    52   25   26 2    
    53   27   28 2    
    54   27   29 am   BACKBONE|DICT|INTERRES
    55   29   30 1    
    56   29   85 1    
    57   30   31 1    
    58   30   32 1    
    59   30   86 1    
    60   31   87 1    
    61   31   88 1    
    62   31   89 1    
    63   32   33 2    
    64   32   34 am   BACKBONE|DICT|INTERRES
    65   34   35 1    
    66   34   90 1    
    67   35   36 1    
    68   35   37 1    
    69   35   91 1    
    70   36   92 1    
    71   36   93 1    
    72   36   94 1    
    73   37   38 2    
    74   37   39 am   BACKBONE|DICT|INTERRES
    75   39   40 1    
    76   39   95 1    
    77   40   41 1    
    78   40   42 1    
    79   40   96 1    
    80   41   97 1    
    81   41   98 1    
    82   41   99 1    
    83   42   43 2    
    84   42   44 am   BACKBONE|DICT|INTERRES
    85   44   45 1    
    86   44  100 1    
    87   45   46 1    
    88   45   47 1    
    89   45  101 1    
    90   46  102 1    
    91   46  103 1    
    92   46  104 1    
    93   47   48 2    
    94   47   49 am   BACKBONE|DICT|INTERRES
    95   49   50 1    
    96   49  105 1    
    97   50   51 1    
    98   50   52 1    
    99   50  106 1    
   100   51  107 1    
   101   51  108 1    
   102   51  109 1    
   103   52   53 2    
   104   52   54 am   BACKBONE|DICT|INTERRES
   105   54   55 1    
   106   54  110 1    
   107   55   56 1    
   108   55   59 1    
   109   55  111 1    
   110   56   57 am   BACKBONE|DICT|INTERRES
   111   56   58 2    
   112   57  112 1    
   113   57  113 1    
   114   59   60 1    
   115   59  114 1    
   116   59  115 1    
   117   60   61 1    
   118   61  116 1    
   119   61  117 1    
@<TRIPOS>SUBSTRUCTURE
     1 UNK         1 GROUP             0       ****    0 ROOT    
