@<TRIPOS>MOLECULE
3R8
117   119    1
SMALL
USER_CHARGES


@<TRIPOS>ATOM
      1 CA         14.8185  -22.5859  -42.1055 C.3       0 UNK        -0.2013 
      2 C          15.9627  -23.1331  -42.9458 C.2       0 UNK         0.4866 
      3 O          17.0404  -22.5374  -42.9759 O.2       0 UNK        -0.5176 
      4 N          15.7326  -24.2551  -43.6381 N.am      1 UNK        -0.4884 
      5 CA         16.7287  -24.9703  -44.4420 C.3       1 UNK         0.0853 
      6 C6         16.0787  -25.9297  -45.4805 C.3       10 UNK        -0.0849 
      7 S7         14.5622  -26.8207  -44.9660 S.3       10 UNK        -0.2776 
      8 C8         15.1158  -27.9475  -43.6367 C.3       10 UNK         0.0316 
      9 C9         16.2751  -28.8789  -43.9909 C.ar      10 UNK        -0.0863 
     10 C10        17.1603  -29.2658  -42.9792 C.ar      10 UNK        -0.1009 
     11 C11        18.2236  -30.1339  -43.2425 C.ar      10 UNK        -0.0712 
     12 C12        18.3821  -30.6364  -44.5378 C.ar      10 UNK        -0.0894 
     13 C13        17.5362  -30.2267  -45.5688 C.ar      10 UNK        -0.0745 
     14 C14        16.4697  -29.3693  -45.2873 C.ar      10 UNK        -0.0972 
     15 C15        17.7958  -30.6836  -46.9937 C.3       10 UNK         0.0209 
     16 S16        18.9109  -29.5260  -47.8526 S.3       10 UNK        -0.2568 
     17 C17        20.5551  -30.0094  -47.2192 C.3       10 UNK        -0.0983 
     18 CA         21.3253  -28.8379  -46.5559 C.3       3 UNK         0.0876 
     19 N          20.6440  -28.3012  -45.3690 N.am      3 UNK        -0.4424 
     20 C          20.9617  -27.1365  -44.7889 C.2       2 UNK         0.4918 
     21 O          21.8658  -26.3999  -45.1857 O.2       2 UNK        -0.4875 
     22 CA         20.0772  -26.6822  -43.6240 C.3       2 UNK         0.0481 
     23 CB         20.8340  -25.7591  -42.6474 C.3       2 UNK        -0.1831 
     24 N          18.9356  -25.9842  -44.2046 N.am      2 UNK        -0.4498 
     25 C          17.7942  -25.6792  -43.5763 C.2       1 UNK         0.5027 
     26 O          17.5672  -25.9447  -42.3926 O.2       1 UNK        -0.4969 
     27 C          22.7953  -29.2428  -46.2997 C.2       3 UNK         0.5005 
     28 O          23.5703  -29.2790  -47.2579 O.2       3 UNK        -0.5279 
     29 N          23.1665  -29.5466  -45.0476 N.am      4 UNK        -0.4463 
     30 CA         24.5068  -29.9867  -44.6659 C.3       4 UNK         0.0283 
     31 CB         24.6597  -31.4889  -44.9807 C.3       4 UNK        -0.1875 
     32 C          24.7609  -29.7261  -43.1766 C.2       4 UNK         0.4949 
     33 O          23.8188  -29.4688  -42.4249 O.2       4 UNK        -0.5039 
     34 N          26.0407  -29.8396  -42.7892 N.am      5 UNK        -0.4663 
     35 CA         26.5657  -30.0168  -41.4258 C.3       5 UNK         0.0242 
     36 CB         26.3937  -31.4944  -41.0186 C.3       5 UNK        -0.1982 
     37 C          26.0138  -29.0494  -40.3591 C.2       5 UNK         0.5017 
     38 O          25.7637  -29.4659  -39.2277 O.2       5 UNK        -0.5012 
     39 N          25.8065  -27.7807  -40.7420 N.am      6 UNK        -0.4439 
     40 CA         25.2370  -26.7041  -39.9179 C.3       6 UNK         0.0297 
     41 CB         26.2491  -26.2556  -38.8418 C.3       6 UNK        -0.2006 
     42 C          23.8512  -27.0523  -39.3284 C.2       6 UNK         0.4892 
     43 O          23.5716  -26.7141  -38.1774 O.2       6 UNK        -0.5089 
     44 N          23.0264  -27.7320  -40.1393 N.am      7 UNK        -0.4243 
     45 CA         21.6708  -28.2249  -39.8665 C.3       7 UNK         0.0196 
     46 CB         20.7617  -27.1641  -39.2091 C.3       7 UNK        -0.2007 
     47 C          21.6210  -29.5674  -39.1165 C.2       7 UNK         0.5020 
     48 O          20.5240  -30.0957  -38.9343 O.2       7 UNK        -0.5147 
     49 N          22.7706  -30.1526  -38.7503 N.am      8 UNK        -0.4734 
     50 CA         22.8651  -31.5124  -38.2012 C.3       8 UNK         0.0238 
     51 CB         24.0306  -31.5775  -37.1965 C.3       8 UNK        -0.1912 
     52 C          22.9991  -32.5436  -39.3402 C.2       8 UNK         0.5038 
     53 O          23.9230  -33.3590  -39.3303 O.2       8 UNK        -0.5046 
     54 N          22.1003  -32.4407  -40.3268 N.am      9 UNK        -0.4200 
     55 CA         22.1103  -33.1589  -41.6082 C.3       9 UNK         0.0839 
     56 C          22.0629  -34.7030  -41.4556 C.2       9 UNK         0.5513 
     57 N          22.7862  -35.4321  -42.2942 N.am      9 UNK        -0.7519 
     58 O          21.3384  -35.2419  -40.6212 O.2       9 UNK        -0.4960 
     59 C59        20.9708  -32.6706  -42.5451 C.3       10 UNK        -0.0876 
     60 S60        20.8872  -30.8484  -42.6785 S.3       10 UNK        -0.2414 
     61 C61        19.1861  -30.4922  -42.1129 C.3       10 UNK         0.0169 
     62 H62        13.9229  -23.2020  -42.1853 H         1 UNK         0.0903 
     63 H63        15.1101  -22.5463  -41.0563 H         1 UNK         0.0903 
     64 H64        14.5651  -21.5762  -42.4276 H         1 UNK         0.0903 
     65 H65        14.8351  -24.7147  -43.5700 H         1 UNK         0.3096 
     66 H66        17.2721  -24.2100  -45.0089 H         1 UNK         0.1121 
     67 H67        15.7861  -25.3341  -46.3467 H         1 UNK         0.0849 
     68 H68        16.7999  -26.6457  -45.8784 H         1 UNK         0.0849 
     69 H69        14.2668  -28.5650  -43.3413 H         1 UNK         0.0865 
     70 H70        15.3644  -27.3473  -42.7610 H         1 UNK         0.0865 
     71 H71        17.0260  -28.8791  -41.9777 H         1 UNK         0.1346 
     72 H72        19.1832  -31.3269  -44.7561 H         1 UNK         0.1412 
     73 H73        15.8038  -29.0725  -46.0857 H         1 UNK         0.1426 
     74 H74        16.8543  -30.7373  -47.5426 H         1 UNK         0.0716 
     75 H75        18.2147  -31.6911  -47.0097 H         1 UNK         0.0716 
     76 H76        21.1133  -30.3883  -48.0778 H         1 UNK         0.0695 
     77 H77        20.4709  -30.8521  -46.5335 H         1 UNK         0.0695 
     78 H78        21.3673  -28.0268  -47.2867 H         1 UNK         0.0983 
     79 H79        19.8582  -28.8337  -45.0205 H         1 UNK         0.3095 
     80 H80        19.7299  -27.5640  -43.0824 H         1 UNK         0.0454 
     81 H81        21.1550  -24.8351  -43.1295 H         1 UNK         0.0851 
     82 H82        21.7258  -26.2499  -42.2578 H         1 UNK         0.0851 
     83 H83        20.2117  -25.4859  -41.7964 H         1 UNK         0.0851 
     84 H84        19.0404  -25.7403  -45.1807 H         1 UNK         0.2976 
     85 H85        22.5070  -29.4728  -44.2817 H         1 UNK         0.3116 
     86 H86        25.2458  -29.4166  -45.2330 H         1 UNK         0.0646 
     87 H87        23.9221  -32.0854  -44.4424 H         1 UNK         0.0847 
     88 H88        25.6462  -31.8593  -44.6996 H         1 UNK         0.0847 
     89 H89        24.5370  -31.6891  -46.0451 H         1 UNK         0.0847 
     90 H90        26.7264  -29.9788  -43.5193 H         1 UNK         0.3040 
     91 H91        27.6367  -29.8134  -41.4752 H         1 UNK         0.1015 
     92 H92        25.3410  -31.7722  -40.9821 H         1 UNK         0.0786 
     93 H93        26.8219  -31.6956  -40.0356 H         1 UNK         0.0786 
     94 H94        26.8881  -32.1612  -41.7250 H         1 UNK         0.0786 
     95 H95        26.0138  -27.5447  -41.7029 H         1 UNK         0.3172 
     96 H96        25.0742  -25.8592  -40.5887 H         1 UNK         0.0595 
     97 H97        25.8876  -25.3773  -38.3054 H         1 UNK         0.0839 
     98 H98        27.2088  -25.9897  -39.2846 H         1 UNK         0.0839 
     99 H99        26.4256  -27.0375  -38.1023 H         1 UNK         0.0839 
    100 H100       23.4067  -28.0482  -41.0276 H         1 UNK         0.2998 
    101 H101       21.2570  -28.4271  -40.8545 H         1 UNK         0.0822 
    102 H102       19.7119  -27.4456  -39.3010 H         1 UNK         0.0787 
    103 H103       20.9718  -27.0559  -38.1447 H         1 UNK         0.0787 
    104 H104       20.8789  -26.1853  -39.6713 H         1 UNK         0.0787 
    105 H105       23.6499  -29.6928  -38.9631 H         1 UNK         0.3055 
    106 H106       21.9506  -31.7553  -37.6551 H         1 UNK         0.1106 
    107 H107       24.0650  -32.5499  -36.7039 H         1 UNK         0.0828 
    108 H108       24.9948  -31.4275  -37.6825 H         1 UNK         0.0828 
    109 H109       23.9266  -30.8228  -36.4170 H         1 UNK         0.0828 
    110 H110       21.3791  -31.7389  -40.2302 H         1 UNK         0.2931 
    111 H111       23.0590  -32.8989  -42.0825 H         1 UNK         0.0412 
    112 H112       23.3750  -35.0000  -42.9892 H         1 UNK         0.3472 
    113 H113       22.7540  -36.4374  -42.2220 H         1 UNK         0.3472 
    114 H114       21.1189  -33.0701  -43.5500 H         1 UNK         0.0970 
    115 H115       20.0089  -33.0631  -42.2113 H         1 UNK         0.0970 
    116 H116       19.2451  -29.6533  -41.4185 H         1 UNK         0.0612 
    117 H117       18.7794  -31.3251  -41.5394 H         1 UNK         0.0612 
@<TRIPOS>BOND
     1    1    2 1    
     2    1   62 1    
     3    1   63 1    
     4    1   64 1    
     5    2    3 2    
     6    2    4 am   BACKBONE|DICT|INTERRES
     7    4    5 1    
     8    4   65 1    
     9    5    6 1    
    10    5   25 1    
    11    5   66 1    
    12    6    7 1    
    13    6   67 1    
    14    6   68 1    
    15    7    8 1    
    16    8    9 1    
    17    8   69 1    
    18    8   70 1    
    19    9   10 ar   
    20    9   14 ar   
    21   10   11 ar   
    22   10   71 1    
    23   11   12 ar   
    24   11   61 1    
    25   12   13 ar   
    26   12   72 1    
    27   13   14 ar   
    28   13   15 1    
    29   14   73 1    
    30   15   16 1    
    31   15   74 1    
    32   15   75 1    
    33   16   17 1    
    34   17   18 1    
    35   17   76 1    
    36   17   77 1    
    37   18   19 1    
    38   18   27 1    
    39   18   78 1    
    40   19   20 am   BACKBONE|DICT|INTERRES
    41   19   79 1    
    42   20   21 2    
    43   20   22 1    
    44   22   23 1    
    45   22   24 1    
    46   22   80 1    
    47   23   81 1    
    48   23   82 1    
    49   23   83 1    
    50   24   25 am   BACKBONE|DICT|INTERRES
    51   24   84 1    
    52   25   26 2    
    53   27   28 2    
    54   27   29 am   BACKBONE|DICT|INTERRES
    55   29   30 1    
    56   29   85 1    
    57   30   31 1    
    58   30   32 1    
    59   30   86 1    
    60   31   87 1    
    61   31   88 1    
    62   31   89 1    
    63   32   33 2    
    64   32   34 am   BACKBONE|DICT|INTERRES
    65   34   35 1    
    66   34   90 1    
    67   35   36 1    
    68   35   37 1    
    69   35   91 1    
    70   36   92 1    
    71   36   93 1    
    72   36   94 1    
    73   37   38 2    
    74   37   39 am   BACKBONE|DICT|INTERRES
    75   39   40 1    
    76   39   95 1    
    77   40   41 1    
    78   40   42 1    
    79   40   96 1    
    80   41   97 1    
    81   41   98 1    
    82   41   99 1    
    83   42   43 2    
    84   42   44 am   BACKBONE|DICT|INTERRES
    85   44   45 1    
    86   44  100 1    
    87   45   46 1    
    88   45   47 1    
    89   45  101 1    
    90   46  102 1    
    91   46  103 1    
    92   46  104 1    
    93   47   48 2    
    94   47   49 am   BACKBONE|DICT|INTERRES
    95   49   50 1    
    96   49  105 1    
    97   50   51 1    
    98   50   52 1    
    99   50  106 1    
   100   51  107 1    
   101   51  108 1    
   102   51  109 1    
   103   52   53 2    
   104   52   54 am   BACKBONE|DICT|INTERRES
   105   54   55 1    
   106   54  110 1    
   107   55   56 1    
   108   55   59 1    
   109   55  111 1    
   110   56   57 am   BACKBONE|DICT|INTERRES
   111   56   58 2    
   112   57  112 1    
   113   57  113 1    
   114   59   60 1    
   115   59  114 1    
   116   59  115 1    
   117   60   61 1    
   118   61  116 1    
   119   61  117 1    
@<TRIPOS>SUBSTRUCTURE
     1 UNK         1 GROUP             0       ****    0 ROOT    
