@<TRIPOS>MOLECULE
3R8
117   119    1
SMALL
USER_CHARGES


@<TRIPOS>ATOM
      1 CA         16.7809  -22.9762  -47.0734 C.3       0 UNK        -0.2013 
      2 C          17.3339  -24.2679  -46.4913 C.2       0 UNK         0.4866 
      3 O          16.8479  -24.7305  -45.4592 O.2       0 UNK        -0.5176 
      4 N          18.3584  -24.8451  -47.1347 N.am      1 UNK        -0.4884 
      5 CA         19.0531  -26.0994  -46.7956 C.3       1 UNK         0.0853 
      6 C6         18.1010  -27.3248  -46.7158 C.3       10 UNK        -0.0849 
      7 S7         18.8947  -28.8730  -47.2678 S.3       10 UNK        -0.2776 
      8 C8         17.4663  -30.0020  -47.3546 C.3       10 UNK         0.0316 
      9 C9         17.1305  -30.5959  -45.9935 C.ar      10 UNK        -0.0863 
     10 C10        17.5735  -31.8776  -45.6526 C.ar      10 UNK        -0.1009 
     11 C11        17.2609  -32.4295  -44.4061 C.ar      10 UNK        -0.0712 
     12 C12        16.5229  -31.6795  -43.4843 C.ar      10 UNK        -0.0894 
     13 C13        16.0738  -30.3979  -43.8151 C.ar      10 UNK        -0.0745 
     14 C14        16.3619  -29.8730  -45.0781 C.ar      10 UNK        -0.0972 
     15 C15        15.2440  -29.5861  -42.8323 C.3       10 UNK         0.0209 
     16 S16        16.0652  -28.0267  -42.3718 S.3       10 UNK        -0.2568 
     17 C17        17.1283  -28.5138  -40.9659 C.3       10 UNK        -0.0983 
     18 CA         18.6552  -28.2986  -41.1914 C.3       3 UNK         0.0876 
     19 N          18.9245  -26.9939  -41.8098 N.am      3 UNK        -0.4424 
     20 C          20.0430  -26.6193  -42.4417 C.2       2 UNK         0.4918 
     21 O          21.0535  -27.3146  -42.5288 O.2       2 UNK        -0.4875 
     22 CA         19.9898  -25.2430  -43.1241 C.3       2 UNK         0.0481 
     23 CB         21.3501  -24.5151  -43.1176 C.3       2 UNK        -0.1831 
     24 N          19.4372  -25.3645  -44.4770 N.am      2 UNK        -0.4498 
     25 C          19.9536  -25.9973  -45.5431 C.2       1 UNK         0.5027 
     26 O          21.0875  -26.4746  -45.5877 O.2       1 UNK        -0.4969 
     27 C          19.4564  -28.4889  -39.8759 C.2       3 UNK         0.5005 
     28 O          18.8600  -28.6161  -38.8032 O.2       3 UNK        -0.5279 
     29 N          20.7893  -28.4646  -39.9592 N.am      4 UNK        -0.4463 
     30 CA         21.7217  -28.5872  -38.8440 C.3       4 UNK         0.0283 
     31 CB         21.9364  -27.2117  -38.1878 C.3       4 UNK        -0.1875 
     32 C          23.0451  -29.1519  -39.3643 C.2       4 UNK         0.4949 
     33 O          23.4135  -28.8864  -40.5099 O.2       4 UNK        -0.5039 
     34 N          23.7585  -29.8801  -38.4944 N.am      5 UNK        -0.4663 
     35 CA         24.9639  -30.6645  -38.8022 C.3       5 UNK         0.0242 
     36 CB         25.3970  -31.4257  -37.5382 C.3       5 UNK        -0.1982 
     37 C          26.1509  -29.8756  -39.3860 C.2       5 UNK         0.5017 
     38 O          27.0354  -30.4845  -39.9887 O.2       5 UNK        -0.5012 
     39 N          26.1430  -28.5457  -39.2214 N.am      6 UNK        -0.4439 
     40 CA         27.0753  -27.6109  -39.8551 C.3       6 UNK         0.0297 
     41 CB         26.8899  -26.2176  -39.2309 C.3       6 UNK        -0.2006 
     42 C          26.9280  -27.5348  -41.3893 C.2       6 UNK         0.4892 
     43 O          27.8836  -27.1303  -42.0530 O.2       6 UNK        -0.5089 
     44 N          25.7563  -27.9132  -41.9205 N.am      7 UNK        -0.4243 
     45 CA         25.4549  -27.9618  -43.3483 C.3       7 UNK         0.0196 
     46 CB         24.3871  -26.9088  -43.6862 C.3       7 UNK        -0.2007 
     47 C          25.0204  -29.3822  -43.7300 C.2       7 UNK         0.5020 
     48 O          25.7845  -30.0827  -44.3960 O.2       7 UNK        -0.5147 
     49 N          23.8236  -29.7959  -43.2969 N.am      8 UNK        -0.4734 
     50 CA         23.2519  -31.1179  -43.5473 C.3       8 UNK         0.0238 
     51 CB         22.7438  -31.2171  -44.9997 C.3       8 UNK        -0.1912 
     52 C          22.0998  -31.3744  -42.5706 C.2       8 UNK         0.5038 
     53 O          21.3536  -30.4460  -42.2573 O.2       8 UNK        -0.5046 
     54 N          21.9413  -32.6398  -42.1634 N.am      9 UNK        -0.4200 
     55 CA         20.8436  -33.1362  -41.3165 C.3       9 UNK         0.0839 
     56 C          20.8720  -32.5284  -39.8815 C.2       9 UNK         0.5513 
     57 N          19.7319  -32.2326  -39.2679 N.am      9 UNK        -0.7519 
     58 O          21.9378  -32.3865  -39.2858 O.2       9 UNK        -0.4960 
     59 C59        19.4603  -33.0628  -42.0284 C.3       10 UNK        -0.0876 
     60 S60        19.4592  -33.9334  -43.6316 S.3       10 UNK        -0.2414 
     61 C61        17.6981  -33.8478  -44.0703 C.3       10 UNK         0.0169 
     62 H62        16.8846  -22.1659  -46.3524 H         1 UNK         0.0903 
     63 H63        17.2976  -22.6853  -47.9878 H         1 UNK         0.0903 
     64 H64        15.7225  -23.0930  -47.3048 H         1 UNK         0.0903 
     65 H65        18.7244  -24.3812  -47.9557 H         1 UNK         0.3096 
     66 H66        19.7305  -26.2589  -47.6368 H         1 UNK         0.1121 
     67 H67        17.2328  -27.1624  -47.3566 H         1 UNK         0.0849 
     68 H68        17.7080  -27.4490  -45.7054 H         1 UNK         0.0849 
     69 H69        16.5990  -29.4831  -47.7655 H         1 UNK         0.0865 
     70 H70        17.6985  -30.8002  -48.0613 H         1 UNK         0.0865 
     71 H71        18.1569  -32.4525  -46.3591 H         1 UNK         0.1346 
     72 H72        16.2842  -32.1006  -42.5171 H         1 UNK         0.1412 
     73 H73        15.9932  -28.8911  -45.3398 H         1 UNK         0.1426 
     74 H74        15.0057  -30.1619  -41.9367 H         1 UNK         0.0716 
     75 H75        14.2883  -29.3476  -43.3012 H         1 UNK         0.0716 
     76 H76        16.9381  -29.5568  -40.7066 H         1 UNK         0.0695 
     77 H77        16.7792  -27.9254  -40.1149 H         1 UNK         0.0695 
     78 H78        18.9972  -29.0682  -41.8877 H         1 UNK         0.0983 
     79 H79        18.1410  -26.3571  -41.8065 H         1 UNK         0.3095 
     80 H80        19.2915  -24.6207  -42.5621 H         1 UNK         0.0454 
     81 H81        21.2679  -23.5200  -43.5542 H         1 UNK         0.0851 
     82 H82        22.1143  -25.0592  -43.6711 H         1 UNK         0.0851 
     83 H83        21.7182  -24.3945  -42.0982 H         1 UNK         0.0851 
     84 H84        18.4801  -25.0375  -44.5911 H         1 UNK         0.2976 
     85 H85        21.2191  -28.3909  -40.8815 H         1 UNK         0.3116 
     86 H86        21.3125  -29.2862  -38.1111 H         1 UNK         0.0646 
     87 H87        22.3385  -26.4877  -38.8982 H         1 UNK         0.0847 
     88 H88        22.6366  -27.2779  -37.3543 H         1 UNK         0.0847 
     89 H89        21.0031  -26.8095  -37.7931 H         1 UNK         0.0847 
     90 H90        23.3736  -30.0187  -37.5709 H         1 UNK         0.3040 
     91 H91        24.6769  -31.3976  -39.5597 H         1 UNK         0.1015 
     92 H92        25.6565  -30.7448  -36.7266 H         1 UNK         0.0786 
     93 H93        26.2715  -32.0482  -37.7344 H         1 UNK         0.0786 
     94 H94        24.6061  -32.0882  -37.1848 H         1 UNK         0.0786 
     95 H95        25.3684  -28.1459  -38.7123 H         1 UNK         0.3172 
     96 H96        28.0905  -27.9513  -39.6390 H         1 UNK         0.0595 
     97 H97        25.8856  -25.8275  -39.4039 H         1 UNK         0.0839 
     98 H98        27.5943  -25.5020  -39.6582 H         1 UNK         0.0839 
     99 H99        27.0644  -26.2366  -38.1547 H         1 UNK         0.0839 
    100 H100       25.0246  -28.2629  -41.3052 H         1 UNK         0.2998 
    101 H101       26.3447  -27.7339  -43.9392 H         1 UNK         0.0822 
    102 H102       24.7849  -25.8992  -43.5819 H         1 UNK         0.0787 
    103 H103       24.0313  -27.0160  -44.7122 H         1 UNK         0.0787 
    104 H104       23.5239  -26.9908  -43.0282 H         1 UNK         0.0787 
    105 H105       23.2641  -29.1984  -42.6929 H         1 UNK         0.3055 
    106 H106       24.0269  -31.8692  -43.3802 H         1 UNK         0.1106 
    107 H107       22.2740  -32.1842  -45.1856 H         1 UNK         0.0828 
    108 H108       22.0000  -30.4481  -45.2148 H         1 UNK         0.0828 
    109 H109       23.5546  -31.1094  -45.7196 H         1 UNK         0.0828 
    110 H110       22.6044  -33.3391  -42.4628 H         1 UNK         0.2931 
    111 H111       21.0613  -34.1938  -41.1628 H         1 UNK         0.0412 
    112 H112       18.8398  -32.3688  -39.7163 H         1 UNK         0.3472 
    113 H113       19.7679  -31.8635  -38.3309 H         1 UNK         0.3472 
    114 H114       19.1650  -32.0245  -42.1886 H         1 UNK         0.0970 
    115 H115       18.6867  -33.5184  -41.4087 H         1 UNK         0.0970 
    116 H116       17.0992  -34.2578  -43.2555 H         1 UNK         0.0612 
    117 H117       17.5206  -34.4929  -44.9320 H         1 UNK         0.0612 
@<TRIPOS>BOND
     1    1    2 1    
     2    1   62 1    
     3    1   63 1    
     4    1   64 1    
     5    2    3 2    
     6    2    4 am   BACKBONE|DICT|INTERRES
     7    4    5 1    
     8    4   65 1    
     9    5    6 1    
    10    5   25 1    
    11    5   66 1    
    12    6    7 1    
    13    6   67 1    
    14    6   68 1    
    15    7    8 1    
    16    8    9 1    
    17    8   69 1    
    18    8   70 1    
    19    9   10 ar   
    20    9   14 ar   
    21   10   11 ar   
    22   10   71 1    
    23   11   12 ar   
    24   11   61 1    
    25   12   13 ar   
    26   12   72 1    
    27   13   14 ar   
    28   13   15 1    
    29   14   73 1    
    30   15   16 1    
    31   15   74 1    
    32   15   75 1    
    33   16   17 1    
    34   17   18 1    
    35   17   76 1    
    36   17   77 1    
    37   18   19 1    
    38   18   27 1    
    39   18   78 1    
    40   19   20 am   BACKBONE|DICT|INTERRES
    41   19   79 1    
    42   20   21 2    
    43   20   22 1    
    44   22   23 1    
    45   22   24 1    
    46   22   80 1    
    47   23   81 1    
    48   23   82 1    
    49   23   83 1    
    50   24   25 am   BACKBONE|DICT|INTERRES
    51   24   84 1    
    52   25   26 2    
    53   27   28 2    
    54   27   29 am   BACKBONE|DICT|INTERRES
    55   29   30 1    
    56   29   85 1    
    57   30   31 1    
    58   30   32 1    
    59   30   86 1    
    60   31   87 1    
    61   31   88 1    
    62   31   89 1    
    63   32   33 2    
    64   32   34 am   BACKBONE|DICT|INTERRES
    65   34   35 1    
    66   34   90 1    
    67   35   36 1    
    68   35   37 1    
    69   35   91 1    
    70   36   92 1    
    71   36   93 1    
    72   36   94 1    
    73   37   38 2    
    74   37   39 am   BACKBONE|DICT|INTERRES
    75   39   40 1    
    76   39   95 1    
    77   40   41 1    
    78   40   42 1    
    79   40   96 1    
    80   41   97 1    
    81   41   98 1    
    82   41   99 1    
    83   42   43 2    
    84   42   44 am   BACKBONE|DICT|INTERRES
    85   44   45 1    
    86   44  100 1    
    87   45   46 1    
    88   45   47 1    
    89   45  101 1    
    90   46  102 1    
    91   46  103 1    
    92   46  104 1    
    93   47   48 2    
    94   47   49 am   BACKBONE|DICT|INTERRES
    95   49   50 1    
    96   49  105 1    
    97   50   51 1    
    98   50   52 1    
    99   50  106 1    
   100   51  107 1    
   101   51  108 1    
   102   51  109 1    
   103   52   53 2    
   104   52   54 am   BACKBONE|DICT|INTERRES
   105   54   55 1    
   106   54  110 1    
   107   55   56 1    
   108   55   59 1    
   109   55  111 1    
   110   56   57 am   BACKBONE|DICT|INTERRES
   111   56   58 2    
   112   57  112 1    
   113   57  113 1    
   114   59   60 1    
   115   59  114 1    
   116   59  115 1    
   117   60   61 1    
   118   61  116 1    
   119   61  117 1    
@<TRIPOS>SUBSTRUCTURE
     1 UNK         1 GROUP             0       ****    0 ROOT    
