@<TRIPOS>MOLECULE
3R8
117   119    1
SMALL
USER_CHARGES


@<TRIPOS>ATOM
      1 CA         15.7581  -25.9427  -50.0090 C.3       0 UNK        -0.2013 
      2 C          15.0621  -25.2393  -48.8463 C.2       0 UNK         0.4866 
      3 O          14.5159  -24.1550  -49.0383 O.2       0 UNK        -0.5176 
      4 N          15.0447  -25.8032  -47.6289 N.am      1 UNK        -0.4884 
      5 CA         15.6801  -27.0670  -47.2245 C.3       1 UNK         0.0853 
      6 C6         15.0649  -27.5931  -45.9017 C.3       10 UNK        -0.0849 
      7 S7         15.1775  -29.4087  -45.7470 S.3       10 UNK        -0.2776 
      8 C8         14.6850  -29.6662  -44.0124 C.3       10 UNK         0.0316 
      9 C9         15.7644  -29.2129  -43.0397 C.ar      10 UNK        -0.0863 
     10 C10        16.8525  -30.0442  -42.7554 C.ar      10 UNK        -0.1009 
     11 C11        17.8441  -29.6315  -41.8599 C.ar      10 UNK        -0.0712 
     12 C12        17.7422  -28.3808  -41.2447 C.ar      10 UNK        -0.0894 
     13 C13        16.6693  -27.5354  -41.5370 C.ar      10 UNK        -0.0745 
     14 C14        15.6756  -27.9624  -42.4217 C.ar      10 UNK        -0.0972 
     15 C15        16.5887  -26.1497  -40.9201 C.3       10 UNK         0.0209 
     16 S16        17.2299  -24.8917  -42.0685 S.3       10 UNK        -0.2568 
     17 C17        19.0374  -25.0726  -41.8736 C.3       10 UNK        -0.0983 
     18 CA         19.7277  -25.9087  -42.9855 C.3       3 UNK         0.0876 
     19 N          19.3402  -25.4609  -44.3278 N.am      3 UNK        -0.4424 
     20 C          19.7384  -25.9995  -45.4879 C.2       2 UNK         0.4918 
     21 O          20.4988  -26.9644  -45.5840 O.2       2 UNK        -0.4875 
     22 CA         19.1360  -25.3538  -46.7490 C.3       2 UNK         0.0481 
     23 CB         19.9525  -25.6456  -48.0264 C.3       2 UNK        -0.1831 
     24 N          17.7259  -25.7269  -46.9183 N.am      2 UNK        -0.4498 
     25 C          17.2199  -26.9555  -47.1252 C.2       1 UNK         0.5027 
     26 O          17.9031  -27.9686  -47.2713 O.2       1 UNK        -0.4969 
     27 C          21.2577  -25.8738  -42.7749 C.2       3 UNK         0.5005 
     28 O          21.9256  -24.9711  -43.2887 O.2       3 UNK        -0.5279 
     29 N          21.7765  -26.8207  -41.9863 N.am      4 UNK        -0.4463 
     30 CA         23.1849  -26.9311  -41.6174 C.3       4 UNK         0.0283 
     31 CB         23.9431  -27.7249  -42.6945 C.3       4 UNK        -0.1875 
     32 C          23.2969  -27.5866  -40.2352 C.2       4 UNK         0.4949 
     33 O          22.3146  -28.1367  -39.7308 O.2       4 UNK        -0.5039 
     34 N          24.4892  -27.4856  -39.6374 N.am      5 UNK        -0.4663 
     35 CA         24.7982  -27.9374  -38.2810 C.3       5 UNK         0.0242 
     36 CB         26.1211  -27.2886  -37.8345 C.3       5 UNK        -0.1982 
     37 C          24.8562  -29.4708  -38.1602 C.2       5 UNK         0.5017 
     38 O          25.9137  -30.0594  -38.3980 O.2       5 UNK        -0.5012 
     39 N          23.7265  -30.0773  -37.7677 N.am      6 UNK        -0.4439 
     40 CA         23.5513  -31.4882  -37.4007 C.3       6 UNK         0.0297 
     41 CB         24.1901  -31.7586  -36.0192 C.3       6 UNK        -0.2006 
     42 C          24.0300  -32.4500  -38.5037 C.2       6 UNK         0.4892 
     43 O          23.3578  -32.5635  -39.5281 O.2       6 UNK        -0.5089 
     44 N          25.1860  -33.0974  -38.2956 N.am      7 UNK        -0.4243 
     45 CA         25.8313  -34.0202  -39.2347 C.3       7 UNK         0.0196 
     46 CB         27.0887  -34.6121  -38.5787 C.3       7 UNK        -0.2007 
     47 C          26.1807  -33.3931  -40.5965 C.2       7 UNK         0.5020 
     48 O          26.1937  -34.1092  -41.5980 O.2       7 UNK        -0.5147 
     49 N          26.4076  -32.0706  -40.6326 N.am      8 UNK        -0.4734 
     50 CA         26.6135  -31.3055  -41.8682 C.3       8 UNK         0.0238 
     51 CB         27.1314  -29.9011  -41.5189 C.3       8 UNK        -0.1912 
     52 C          25.3511  -31.2127  -42.7476 C.2       8 UNK         0.5038 
     53 O          25.4734  -30.9323  -43.9401 O.2       8 UNK        -0.5046 
     54 N          24.1746  -31.4516  -42.1530 N.am      9 UNK        -0.4200 
     55 CA         22.8753  -31.5331  -42.8316 C.3       9 UNK         0.0839 
     56 C          22.6073  -32.9075  -43.5152 C.2       9 UNK         0.5513 
     57 N          23.4666  -33.9107  -43.3661 N.am      9 UNK        -0.7519 
     58 O          21.6058  -33.0669  -44.2073 O.2       9 UNK        -0.4960 
     59 C59        21.7361  -31.1222  -41.8575 C.3       10 UNK        -0.0876 
     60 S60        20.4339  -30.1259  -42.6488 S.3       10 UNK        -0.2414 
     61 C61        19.0341  -30.5266  -41.5622 C.3       10 UNK         0.0169 
     62 H62        15.5902  -25.3967  -50.9372 H         1 UNK         0.0903 
     63 H63        16.8344  -25.9940  -49.8491 H         1 UNK         0.0903 
     64 H64        15.3712  -26.9511  -50.1505 H         1 UNK         0.0903 
     65 H65        14.5584  -25.3125  -46.8912 H         1 UNK         0.3096 
     66 H66        15.4655  -27.8020  -48.0028 H         1 UNK         0.1121 
     67 H67        15.5251  -27.1087  -45.0392 H         1 UNK         0.0849 
     68 H68        14.0034  -27.3441  -45.8534 H         1 UNK         0.0849 
     69 H69        13.7446  -29.1477  -43.8178 H         1 UNK         0.0865 
     70 H70        14.4813  -30.7270  -43.8585 H         1 UNK         0.0865 
     71 H71        16.9323  -31.0084  -43.2391 H         1 UNK         0.1346 
     72 H72        18.5124  -28.0567  -40.5581 H         1 UNK         0.1412 
     73 H73        14.8428  -27.3089  -42.6442 H         1 UNK         0.1426 
     74 H74        17.1288  -26.1082  -39.9730 H         1 UNK         0.0716 
     75 H75        15.5491  -25.9146  -40.6865 H         1 UNK         0.0716 
     76 H76        19.4515  -24.0622  -41.8528 H         1 UNK         0.0695 
     77 H77        19.2496  -25.4981  -40.8911 H         1 UNK         0.0695 
     78 H78        19.4015  -26.9468  -42.9053 H         1 UNK         0.0983 
     79 H79        18.7042  -24.6779  -44.3507 H         1 UNK         0.3095 
     80 H80        19.1544  -24.2733  -46.5969 H         1 UNK         0.0454 
     81 H81        20.9778  -25.2903  -47.9176 H         1 UNK         0.0851 
     82 H82        20.0053  -26.7114  -48.2497 H         1 UNK         0.0851 
     83 H83        19.5251  -25.1427  -48.8937 H         1 UNK         0.0851 
     84 H84        17.0616  -24.9711  -46.8224 H         1 UNK         0.2976 
     85 H85        21.1777  -27.5022  -41.5354 H         1 UNK         0.3116 
     86 H86        23.6159  -25.9306  -41.5387 H         1 UNK         0.0646 
     87 H87        24.9969  -27.8418  -42.4420 H         1 UNK         0.0847 
     88 H88        23.8988  -27.2225  -43.6609 H         1 UNK         0.0847 
     89 H89        23.5205  -28.7192  -42.8214 H         1 UNK         0.0847 
     90 H90        25.2408  -27.0296  -40.1345 H         1 UNK         0.3040 
     91 H91        24.0143  -27.5739  -37.6122 H         1 UNK         0.1015 
     92 H92        26.0452  -26.2011  -37.8193 H         1 UNK         0.0786 
     93 H93        26.9487  -27.5581  -38.4923 H         1 UNK         0.0786 
     94 H94        26.3907  -27.6071  -36.8265 H         1 UNK         0.0786 
     95 H95        22.8906  -29.5090  -37.7181 H         1 UNK         0.3172 
     96 H96        22.4770  -31.6518  -37.3027 H         1 UNK         0.0595 
     97 H97        23.7189  -31.1490  -35.2480 H         1 UNK         0.0839 
     98 H98        25.2574  -31.5345  -36.0023 H         1 UNK         0.0839 
     99 H99        24.0617  -32.8001  -35.7204 H         1 UNK         0.0839 
    100 H100       25.6828  -32.9075  -37.4375 H         1 UNK         0.2998 
    101 H101       25.1281  -34.8335  -39.4262 H         1 UNK         0.0822 
    102 H102       26.8446  -35.1461  -37.6601 H         1 UNK         0.0787 
    103 H103       27.5780  -35.3245  -39.2447 H         1 UNK         0.0787 
    104 H104       27.8187  -33.8387  -38.3357 H         1 UNK         0.0787 
    105 H105       26.3509  -31.5380  -39.7688 H         1 UNK         0.3055 
    106 H106       27.3787  -31.8159  -42.4575 H         1 UNK         0.1106 
    107 H107       27.3557  -29.3318  -42.4220 H         1 UNK         0.0828 
    108 H108       26.3979  -29.3314  -40.9492 H         1 UNK         0.0828 
    109 H109       28.0478  -29.9494  -40.9306 H         1 UNK         0.0828 
    110 H110       24.1662  -31.7268  -41.1767 H         1 UNK         0.2931 
    111 H111       22.9012  -30.8082  -43.6470 H         1 UNK         0.0412 
    112 H112       24.3012  -33.8044  -42.8056 H         1 UNK         0.3472 
    113 H113       23.2775  -34.7898  -43.8213 H         1 UNK         0.3472 
    114 H114       21.3002  -31.9973  -41.3708 H         1 UNK         0.0970 
    115 H115       22.1286  -30.5114  -41.0429 H         1 UNK         0.0970 
    116 H116       18.7644  -31.5762  -41.6900 H         1 UNK         0.0612 
    117 H117       19.3364  -30.4060  -40.5203 H         1 UNK         0.0612 
@<TRIPOS>BOND
     1    1    2 1    
     2    1   62 1    
     3    1   63 1    
     4    1   64 1    
     5    2    3 2    
     6    2    4 am   BACKBONE|DICT|INTERRES
     7    4    5 1    
     8    4   65 1    
     9    5    6 1    
    10    5   25 1    
    11    5   66 1    
    12    6    7 1    
    13    6   67 1    
    14    6   68 1    
    15    7    8 1    
    16    8    9 1    
    17    8   69 1    
    18    8   70 1    
    19    9   10 ar   
    20    9   14 ar   
    21   10   11 ar   
    22   10   71 1    
    23   11   12 ar   
    24   11   61 1    
    25   12   13 ar   
    26   12   72 1    
    27   13   14 ar   
    28   13   15 1    
    29   14   73 1    
    30   15   16 1    
    31   15   74 1    
    32   15   75 1    
    33   16   17 1    
    34   17   18 1    
    35   17   76 1    
    36   17   77 1    
    37   18   19 1    
    38   18   27 1    
    39   18   78 1    
    40   19   20 am   BACKBONE|DICT|INTERRES
    41   19   79 1    
    42   20   21 2    
    43   20   22 1    
    44   22   23 1    
    45   22   24 1    
    46   22   80 1    
    47   23   81 1    
    48   23   82 1    
    49   23   83 1    
    50   24   25 am   BACKBONE|DICT|INTERRES
    51   24   84 1    
    52   25   26 2    
    53   27   28 2    
    54   27   29 am   BACKBONE|DICT|INTERRES
    55   29   30 1    
    56   29   85 1    
    57   30   31 1    
    58   30   32 1    
    59   30   86 1    
    60   31   87 1    
    61   31   88 1    
    62   31   89 1    
    63   32   33 2    
    64   32   34 am   BACKBONE|DICT|INTERRES
    65   34   35 1    
    66   34   90 1    
    67   35   36 1    
    68   35   37 1    
    69   35   91 1    
    70   36   92 1    
    71   36   93 1    
    72   36   94 1    
    73   37   38 2    
    74   37   39 am   BACKBONE|DICT|INTERRES
    75   39   40 1    
    76   39   95 1    
    77   40   41 1    
    78   40   42 1    
    79   40   96 1    
    80   41   97 1    
    81   41   98 1    
    82   41   99 1    
    83   42   43 2    
    84   42   44 am   BACKBONE|DICT|INTERRES
    85   44   45 1    
    86   44  100 1    
    87   45   46 1    
    88   45   47 1    
    89   45  101 1    
    90   46  102 1    
    91   46  103 1    
    92   46  104 1    
    93   47   48 2    
    94   47   49 am   BACKBONE|DICT|INTERRES
    95   49   50 1    
    96   49  105 1    
    97   50   51 1    
    98   50   52 1    
    99   50  106 1    
   100   51  107 1    
   101   51  108 1    
   102   51  109 1    
   103   52   53 2    
   104   52   54 am   BACKBONE|DICT|INTERRES
   105   54   55 1    
   106   54  110 1    
   107   55   56 1    
   108   55   59 1    
   109   55  111 1    
   110   56   57 am   BACKBONE|DICT|INTERRES
   111   56   58 2    
   112   57  112 1    
   113   57  113 1    
   114   59   60 1    
   115   59  114 1    
   116   59  115 1    
   117   60   61 1    
   118   61  116 1    
   119   61  117 1    
@<TRIPOS>SUBSTRUCTURE
     1 UNK         1 GROUP             0       ****    0 ROOT    
