@<TRIPOS>MOLECULE
3R8
117   119    1
SMALL
USER_CHARGES


@<TRIPOS>ATOM
      1 CA         16.8194  -26.6231  -39.8806 C.3       0 UNK        -0.2013 
      2 C          17.2899  -25.1903  -40.1254 C.2       0 UNK         0.4866 
      3 O          17.3463  -24.4177  -39.1706 O.2       0 UNK        -0.5176 
      4 N          17.6191  -24.7573  -41.3534 N.am      1 UNK        -0.4884 
      5 CA         17.7041  -25.4755  -42.6353 C.3       1 UNK         0.0853 
      6 C6         16.3965  -26.2168  -43.0225 C.3       10 UNK        -0.0849 
      7 S7         16.2005  -26.4459  -44.8236 S.3       10 UNK        -0.2776 
      8 C8         15.7394  -28.2064  -44.9325 C.3       10 UNK         0.0316 
      9 C9         16.9584  -29.1180  -44.9526 C.ar      10 UNK        -0.0863 
     10 C10        17.6031  -29.4667  -43.7639 C.ar      10 UNK        -0.1009 
     11 C11        18.7260  -30.2953  -43.7783 C.ar      10 UNK        -0.0712 
     12 C12        19.1863  -30.8156  -44.9908 C.ar      10 UNK        -0.0894 
     13 C13        18.5365  -30.4924  -46.1859 C.ar      10 UNK        -0.0745 
     14 C14        17.4323  -29.6341  -46.1621 C.ar      10 UNK        -0.0972 
     15 C15        19.0053  -31.0824  -47.5058 C.3       10 UNK         0.0209 
     16 S16        20.0973  -29.9405  -48.4046 S.3       10 UNK        -0.2568 
     17 C17        21.7218  -30.2873  -47.6535 C.3       10 UNK        -0.0983 
     18 CA         22.3845  -29.0154  -47.0603 C.3       3 UNK         0.0876 
     19 N          21.7631  -28.5936  -45.7982 N.am      3 UNK        -0.4424 
     20 C          21.0091  -27.5031  -45.6243 C.2       2 UNK         0.4918 
     21 O          20.5545  -26.8034  -46.5314 O.2       2 UNK        -0.4875 
     22 CA         20.8555  -27.0479  -44.1710 C.3       2 UNK         0.0481 
     23 CB         21.9367  -25.9931  -43.8642 C.3       2 UNK        -0.1831 
     24 N          19.5408  -26.4604  -43.9367 N.am      2 UNK        -0.4498 
     25 C          18.9856  -26.3360  -42.7252 C.2       1 UNK         0.5027 
     26 O          19.4794  -26.8287  -41.7060 O.2       1 UNK        -0.4969 
     27 C          23.9111  -29.2006  -46.8651 C.2       3 UNK         0.5005 
     28 O          24.5765  -29.7315  -47.7562 O.2       3 UNK        -0.5279 
     29 N          24.4522  -28.7605  -45.7186 N.am      4 UNK        -0.4463 
     30 CA         25.8690  -28.8251  -45.3567 C.3       4 UNK         0.0283 
     31 CB         26.2833  -30.2575  -44.9643 C.3       4 UNK        -0.1875 
     32 C          26.1471  -27.8322  -44.2231 C.2       4 UNK         0.4949 
     33 O          27.0049  -26.9622  -44.3702 O.2       4 UNK        -0.5039 
     34 N          25.3812  -27.9534  -43.1329 N.am      5 UNK        -0.4663 
     35 CA         25.3724  -27.0514  -41.9843 C.3       5 UNK         0.0242 
     36 CB         26.5155  -27.4053  -41.0144 C.3       5 UNK        -0.1982 
     37 C          23.9961  -27.1449  -41.3127 C.2       5 UNK         0.5017 
     38 O          23.2461  -28.0858  -41.5971 O.2       5 UNK        -0.5012 
     39 N          23.6799  -26.1522  -40.4697 N.am      6 UNK        -0.4439 
     40 CA         22.3923  -25.9812  -39.7890 C.3       6 UNK         0.0297 
     41 CB         22.4426  -24.7224  -38.9070 C.3       6 UNK        -0.2006 
     42 C          21.9885  -27.2155  -38.9673 C.2       6 UNK         0.4892 
     43 O          22.6513  -27.5238  -37.9747 O.2       6 UNK        -0.5089 
     44 N          20.9269  -27.8965  -39.4216 N.am      7 UNK        -0.4243 
     45 CA         20.3543  -29.1234  -38.8553 C.3       7 UNK         0.0196 
     46 CB         19.7343  -28.8460  -37.4694 C.3       7 UNK        -0.2007 
     47 C          21.3160  -30.3328  -38.8436 C.2       7 UNK         0.5020 
     48 O          21.1091  -31.2584  -38.0568 O.2       7 UNK        -0.5147 
     49 N          22.3235  -30.3486  -39.7342 N.am      8 UNK        -0.4734 
     50 CA         23.3129  -31.4351  -39.8636 C.3       8 UNK         0.0238 
     51 CB         24.4088  -31.0109  -40.8526 C.3       8 UNK        -0.1912 
     52 C          22.7159  -32.7916  -40.2859 C.2       8 UNK         0.5038 
     53 O          23.3356  -33.8317  -40.0616 O.2       8 UNK        -0.5046 
     54 N          21.5188  -32.7407  -40.8743 N.am      9 UNK        -0.4200 
     55 CA         20.6324  -33.8661  -41.1848 C.3       9 UNK         0.0839 
     56 C          20.0546  -34.6066  -39.9409 C.2       9 UNK         0.5513 
     57 N          20.1301  -34.0558  -38.7338 N.am      9 UNK        -0.7519 
     58 O          19.5353  -35.7113  -40.0777 O.2       9 UNK        -0.4960 
     59 C59        19.5107  -33.4135  -42.1600 C.3       10 UNK        -0.0876 
     60 S60        18.6022  -31.9396  -41.5629 S.3       10 UNK        -0.2414 
     61 C61        19.4367  -30.6027  -42.4740 C.3       10 UNK         0.0169 
     62 H62        17.3910  -27.3595  -40.4395 H         1 UNK         0.0903 
     63 H63        16.9235  -26.8755  -38.8256 H         1 UNK         0.0903 
     64 H64        15.7665  -26.7239  -40.1412 H         1 UNK         0.0903 
     65 H65        17.9264  -23.7964  -41.4174 H         1 UNK         0.3096 
     66 H66        17.8383  -24.6710  -43.3612 H         1 UNK         0.1121 
     67 H67        15.5366  -25.6292  -42.6967 H         1 UNK         0.0849 
     68 H68        16.3050  -27.1684  -42.5053 H         1 UNK         0.0849 
     69 H69        15.0780  -28.4761  -44.1077 H         1 UNK         0.0865 
     70 H70        15.1526  -28.3524  -45.8409 H         1 UNK         0.0865 
     71 H71        17.2424  -29.0944  -42.8173 H         1 UNK         0.1346 
     72 H72        20.0462  -31.4703  -45.0055 H         1 UNK         0.1412 
     73 H73        16.9369  -29.3764  -47.0885 H         1 UNK         0.1426 
     74 H74        18.1387  -31.2978  -48.1327 H         1 UNK         0.0716 
     75 H75        19.5061  -32.0392  -47.3505 H         1 UNK         0.0716 
     76 H76        22.3301  -30.7158  -48.4521 H         1 UNK         0.0695 
     77 H77        21.6379  -31.0653  -46.8936 H         1 UNK         0.0695 
     78 H78        22.2953  -28.2117  -47.7949 H         1 UNK         0.0983 
     79 H79        22.0242  -29.1341  -44.9866 H         1 UNK         0.3095 
     80 H80        20.9882  -27.9115  -43.5149 H         1 UNK         0.0454 
     81 H81        21.8825  -25.6491  -42.8337 H         1 UNK         0.0851 
     82 H82        22.9384  -26.3912  -44.0223 H         1 UNK         0.0851 
     83 H83        21.8341  -25.1167  -44.5056 H         1 UNK         0.0851 
     84 H84        19.0677  -26.1080  -44.7597 H         1 UNK         0.2976 
     85 H85        23.8680  -28.2365  -45.0850 H         1 UNK         0.3116 
     86 H86        26.4628  -28.5145  -46.2193 H         1 UNK         0.0646 
     87 H87        25.6734  -30.6514  -44.1509 H         1 UNK         0.0847 
     88 H88        27.3234  -30.2860  -44.6366 H         1 UNK         0.0847 
     89 H89        26.1948  -30.9424  -45.8075 H         1 UNK         0.0847 
     90 H90        24.6830  -28.6838  -43.0739 H         1 UNK         0.3040 
     91 H91        25.5017  -26.0259  -42.3387 H         1 UNK         0.1015 
     92 H92        26.5015  -26.7631  -40.1331 H         1 UNK         0.0786 
     93 H93        27.4883  -27.2754  -41.4889 H         1 UNK         0.0786 
     94 H94        26.4534  -28.4359  -40.6682 H         1 UNK         0.0786 
     95 H95        24.3753  -25.4444  -40.2827 H         1 UNK         0.3172 
     96 H96        21.6351  -25.8113  -40.5547 H         1 UNK         0.0595 
     97 H97        23.2162  -24.7950  -38.1413 H         1 UNK         0.0839 
     98 H98        21.4916  -24.5692  -38.3947 H         1 UNK         0.0839 
     99 H99        22.6366  -23.8278  -39.4989 H         1 UNK         0.0839 
    100 H100       20.4707  -27.5508  -40.2651 H         1 UNK         0.2998 
    101 H101       19.5359  -29.4034  -39.5188 H         1 UNK         0.0822 
    102 H102       19.0457  -28.0018  -37.5048 H         1 UNK         0.0787 
    103 H103       19.1686  -29.7077  -37.1127 H         1 UNK         0.0787 
    104 H104       20.4970  -28.6268  -36.7216 H         1 UNK         0.0787 
    105 H105       22.4530  -29.5415  -40.3375 H         1 UNK         0.3055 
    106 H106       23.7715  -31.5825  -38.8834 H         1 UNK         0.1106 
    107 H107       24.9162  -30.1125  -40.5071 H         1 UNK         0.0828 
    108 H108       25.1672  -31.7880  -40.9586 H         1 UNK         0.0828 
    109 H109       24.0028  -30.8115  -41.8447 H         1 UNK         0.0828 
    110 H110       21.0970  -31.8307  -40.9723 H         1 UNK         0.2931 
    111 H111       21.2396  -34.6052  -41.7108 H         1 UNK         0.0412 
    112 H112       19.7542  -34.5540  -37.9429 H         1 UNK         0.3472 
    113 H113       20.5357  -33.1360  -38.6009 H         1 UNK         0.3472 
    114 H114       18.7953  -34.2198  -42.3330 H         1 UNK         0.0970 
    115 H115       19.9397  -33.1997  -43.1397 H         1 UNK         0.0970 
    116 H116       20.4832  -30.8490  -42.6565 H         1 UNK         0.0612 
    117 H117       19.4447  -29.7048  -41.8553 H         1 UNK         0.0612 
@<TRIPOS>BOND
     1    1    2 1    
     2    1   62 1    
     3    1   63 1    
     4    1   64 1    
     5    2    3 2    
     6    2    4 am   BACKBONE|DICT|INTERRES
     7    4    5 1    
     8    4   65 1    
     9    5    6 1    
    10    5   25 1    
    11    5   66 1    
    12    6    7 1    
    13    6   67 1    
    14    6   68 1    
    15    7    8 1    
    16    8    9 1    
    17    8   69 1    
    18    8   70 1    
    19    9   10 ar   
    20    9   14 ar   
    21   10   11 ar   
    22   10   71 1    
    23   11   12 ar   
    24   11   61 1    
    25   12   13 ar   
    26   12   72 1    
    27   13   14 ar   
    28   13   15 1    
    29   14   73 1    
    30   15   16 1    
    31   15   74 1    
    32   15   75 1    
    33   16   17 1    
    34   17   18 1    
    35   17   76 1    
    36   17   77 1    
    37   18   19 1    
    38   18   27 1    
    39   18   78 1    
    40   19   20 am   BACKBONE|DICT|INTERRES
    41   19   79 1    
    42   20   21 2    
    43   20   22 1    
    44   22   23 1    
    45   22   24 1    
    46   22   80 1    
    47   23   81 1    
    48   23   82 1    
    49   23   83 1    
    50   24   25 am   BACKBONE|DICT|INTERRES
    51   24   84 1    
    52   25   26 2    
    53   27   28 2    
    54   27   29 am   BACKBONE|DICT|INTERRES
    55   29   30 1    
    56   29   85 1    
    57   30   31 1    
    58   30   32 1    
    59   30   86 1    
    60   31   87 1    
    61   31   88 1    
    62   31   89 1    
    63   32   33 2    
    64   32   34 am   BACKBONE|DICT|INTERRES
    65   34   35 1    
    66   34   90 1    
    67   35   36 1    
    68   35   37 1    
    69   35   91 1    
    70   36   92 1    
    71   36   93 1    
    72   36   94 1    
    73   37   38 2    
    74   37   39 am   BACKBONE|DICT|INTERRES
    75   39   40 1    
    76   39   95 1    
    77   40   41 1    
    78   40   42 1    
    79   40   96 1    
    80   41   97 1    
    81   41   98 1    
    82   41   99 1    
    83   42   43 2    
    84   42   44 am   BACKBONE|DICT|INTERRES
    85   44   45 1    
    86   44  100 1    
    87   45   46 1    
    88   45   47 1    
    89   45  101 1    
    90   46  102 1    
    91   46  103 1    
    92   46  104 1    
    93   47   48 2    
    94   47   49 am   BACKBONE|DICT|INTERRES
    95   49   50 1    
    96   49  105 1    
    97   50   51 1    
    98   50   52 1    
    99   50  106 1    
   100   51  107 1    
   101   51  108 1    
   102   51  109 1    
   103   52   53 2    
   104   52   54 am   BACKBONE|DICT|INTERRES
   105   54   55 1    
   106   54  110 1    
   107   55   56 1    
   108   55   59 1    
   109   55  111 1    
   110   56   57 am   BACKBONE|DICT|INTERRES
   111   56   58 2    
   112   57  112 1    
   113   57  113 1    
   114   59   60 1    
   115   59  114 1    
   116   59  115 1    
   117   60   61 1    
   118   61  116 1    
   119   61  117 1    
@<TRIPOS>SUBSTRUCTURE
     1 UNK         1 GROUP             0       ****    0 ROOT    
