@<TRIPOS>MOLECULE
3R8
117   119    1
SMALL
USER_CHARGES


@<TRIPOS>ATOM
      1 CA         15.6296  -22.1669  -45.3883 C.3       0 UNK        -0.2013 
      2 C          16.1876  -23.1881  -44.4077 C.2       0 UNK         0.4866 
      3 O          16.5429  -22.8213  -43.2869 O.2       0 UNK        -0.5176 
      4 N          16.2587  -24.4596  -44.8271 N.am      1 UNK        -0.4884 
      5 CA         16.7860  -25.6113  -44.0775 C.3       1 UNK         0.0853 
      6 C6         15.9593  -25.9376  -42.7949 C.3       10 UNK        -0.0849 
      7 S7         14.3423  -26.6585  -43.2368 S.3       10 UNK        -0.2776 
      8 C8         14.5683  -28.4155  -42.7836 C.3       10 UNK         0.0316 
      9 C9         15.8402  -29.0288  -43.3630 C.ar      10 UNK        -0.0863 
     10 C10        16.7998  -29.5911  -42.5130 C.ar      10 UNK        -0.1009 
     11 C11        17.9697  -30.1508  -43.0352 C.ar      10 UNK        -0.0712 
     12 C12        18.1810  -30.1307  -44.4156 C.ar      10 UNK        -0.0894 
     13 C13        17.2375  -29.5660  -45.2773 C.ar      10 UNK        -0.0745 
     14 C14        16.0587  -29.0359  -44.7449 C.ar      10 UNK        -0.0972 
     15 C15        17.4777  -29.5447  -46.7809 C.3       10 UNK         0.0209 
     16 S16        18.6644  -28.2487  -47.2724 S.3       10 UNK        -0.2568 
     17 C17        20.2665  -29.0853  -46.9957 C.3       10 UNK        -0.0983 
     18 CA         21.2234  -28.3375  -46.0292 C.3       3 UNK         0.0876 
     19 N          20.5637  -27.8400  -44.8182 N.am      3 UNK        -0.4424 
     20 C          21.1241  -27.0005  -43.9349 C.2       2 UNK         0.4918 
     21 O          22.2519  -26.5216  -44.0699 O.2       2 UNK        -0.4875 
     22 CA         20.2705  -26.6286  -42.7055 C.3       2 UNK         0.0481 
     23 CB         20.8201  -25.4059  -41.9370 C.3       2 UNK        -0.1831 
     24 N          18.8480  -26.4508  -43.0285 N.am      2 UNK        -0.4498 
     25 C          18.3138  -25.5274  -43.8463 C.2       1 UNK         0.5027 
     26 O          18.9834  -24.6824  -44.4469 O.2       1 UNK        -0.4969 
     27 C          22.4143  -29.2424  -45.6528 C.2       3 UNK         0.5005 
     28 O          22.3074  -30.0163  -44.6978 O.2       3 UNK        -0.5279 
     29 N          23.5175  -29.1272  -46.4050 N.am      4 UNK        -0.4463 
     30 CA         24.8186  -29.7871  -46.2177 C.3       4 UNK         0.0283 
     31 CB         24.7067  -31.3251  -46.2413 C.3       4 UNK        -0.1875 
     32 C          25.5880  -29.2927  -44.9787 C.2       4 UNK         0.4949 
     33 O          26.7385  -28.8770  -45.1197 O.2       4 UNK        -0.5039 
     34 N          24.9496  -29.3155  -43.8046 N.am      5 UNK        -0.4663 
     35 CA         25.4789  -28.8094  -42.5420 C.3       5 UNK         0.0242 
     36 CB         26.4769  -29.8161  -41.9410 C.3       5 UNK        -0.1982 
     37 C          24.3183  -28.5539  -41.5762 C.2       5 UNK         0.5017 
     38 O          23.3770  -29.3492  -41.5352 O.2       5 UNK        -0.5012 
     39 N          24.4221  -27.4794  -40.7842 N.am      6 UNK        -0.4439 
     40 CA         23.4718  -27.1458  -39.7212 C.3       6 UNK         0.0297 
     41 CB         23.7600  -25.7289  -39.1999 C.3       6 UNK        -0.2006 
     42 C          23.5386  -28.1679  -38.5776 C.2       6 UNK         0.4892 
     43 O          24.6372  -28.5838  -38.2012 O.2       6 UNK        -0.5089 
     44 N          22.3626  -28.5598  -38.0681 N.am      7 UNK        -0.4243 
     45 CA         22.0973  -29.5680  -37.0290 C.3       7 UNK         0.0196 
     46 CB         22.7514  -29.1875  -35.6861 C.3       7 UNK        -0.2007 
     47 C          22.4553  -31.0115  -37.4321 C.2       7 UNK         0.5020 
     48 O          21.6578  -31.9166  -37.1875 O.2       7 UNK        -0.5147 
     49 N          23.6303  -31.2063  -38.0422 N.am      8 UNK        -0.4734 
     50 CA         24.1286  -32.4915  -38.5342 C.3       8 UNK         0.0238 
     51 CB         25.6212  -32.3639  -38.8758 C.3       8 UNK        -0.1912 
     52 C          23.3334  -33.0296  -39.7350 C.2       8 UNK         0.5038 
     53 O          23.1222  -34.2406  -39.8108 O.2       8 UNK        -0.5046 
     54 N          22.8920  -32.1320  -40.6302 N.am      9 UNK        -0.4200 
     55 CA         22.0585  -32.4397  -41.8040 C.3       9 UNK         0.0839 
     56 C          22.7636  -33.3154  -42.8875 C.2       9 UNK         0.5513 
     57 N          24.0904  -33.3199  -42.9561 N.am      9 UNK        -0.7519 
     58 O          22.1158  -33.9944  -43.6798 O.2       9 UNK        -0.4960 
     59 C59        20.6485  -32.9460  -41.3744 C.3       10 UNK        -0.0876 
     60 S60        19.3250  -32.5152  -42.5500 S.3       10 UNK        -0.2414 
     61 C61        19.0149  -30.7722  -42.1186 C.3       10 UNK         0.0169 
     62 H62        14.7497  -21.6829  -44.9653 H         1 UNK         0.0903 
     63 H63        15.3424  -22.6231  -46.3355 H         1 UNK         0.0903 
     64 H64        16.3751  -21.3992  -45.5942 H         1 UNK         0.0903 
     65 H65        15.9663  -24.6720  -45.7707 H         1 UNK         0.3096 
     66 H66        16.6878  -26.4504  -44.7648 H         1 UNK         0.1121 
     67 H67        16.4649  -26.6333  -42.1262 H         1 UNK         0.0849 
     68 H68        15.7920  -25.0440  -42.1932 H         1 UNK         0.0849 
     69 H69        14.5611  -28.4968  -41.6955 H         1 UNK         0.0865 
     70 H70        13.7073  -28.9851  -43.1362 H         1 UNK         0.0865 
     71 H71        16.6338  -29.5994  -41.4441 H         1 UNK         0.1346 
     72 H72        19.0838  -30.5743  -44.8088 H         1 UNK         0.1412 
     73 H73        15.3156  -28.6060  -45.4033 H         1 UNK         0.1426 
     74 H74        17.8228  -30.5224  -47.1208 H         1 UNK         0.0716 
     75 H75        16.5386  -29.3632  -47.3059 H         1 UNK         0.0716 
     76 H76        20.7475  -29.1874  -47.9702 H         1 UNK         0.0695 
     77 H77        20.0918  -30.1086  -46.6641 H         1 UNK         0.0695 
     78 H78        21.6086  -27.4603  -46.5541 H         1 UNK         0.0983 
     79 H79        19.6335  -28.1897  -44.6445 H         1 UNK         0.3095 
     80 H80        20.3287  -27.4877  -42.0355 H         1 UNK         0.0454 
     81 H81        20.2664  -25.2349  -41.0142 H         1 UNK         0.0851 
     82 H82        20.7717  -24.4935  -42.5312 H         1 UNK         0.0851 
     83 H83        21.8662  -25.5456  -41.6676 H         1 UNK         0.0851 
     84 H84        18.2258  -27.1299  -42.6130 H         1 UNK         0.2976 
     85 H85        23.5002  -28.4494  -47.1554 H         1 UNK         0.3116 
     86 H86        25.4135  -29.5000  -47.0865 H         1 UNK         0.0646 
     87 H87        24.2171  -31.6735  -47.1505 H         1 UNK         0.0847 
     88 H88        25.6951  -31.7848  -46.2082 H         1 UNK         0.0847 
     89 H89        24.1461  -31.7122  -45.3906 H         1 UNK         0.0847 
     90 H90        23.9822  -29.6368  -43.7818 H         1 UNK         0.3040 
     91 H91        25.9890  -27.8621  -42.7309 H         1 UNK         0.1015 
     92 H92        26.8075  -29.5011  -40.9502 H         1 UNK         0.0786 
     93 H93        27.3673  -29.9131  -42.5623 H         1 UNK         0.0786 
     94 H94        26.0316  -30.8060  -41.8427 H         1 UNK         0.0786 
     95 H95        25.2513  -26.9062  -40.8429 H         1 UNK         0.3172 
     96 H96        22.4672  -27.1664  -40.1471 H         1 UNK         0.0595 
     97 H97        24.7532  -25.6571  -38.7542 H         1 UNK         0.0839 
     98 H98        23.0390  -25.4413  -38.4334 H         1 UNK         0.0839 
     99 H99        23.6957  -24.9882  -39.9970 H         1 UNK         0.0839 
    100 H100       21.5300  -28.1591  -38.4780 H         1 UNK         0.2998 
    101 H101       21.0165  -29.5507  -36.8774 H         1 UNK         0.0822 
    102 H102       22.4458  -28.1919  -35.3644 H         1 UNK         0.0787 
    103 H103       22.4586  -29.8859  -34.9010 H         1 UNK         0.0787 
    104 H104       23.8404  -29.2027  -35.7401 H         1 UNK         0.0787 
    105 H105       24.2189  -30.3871  -38.1796 H         1 UNK         0.3055 
    106 H106       24.0257  -33.2210  -37.7275 H         1 UNK         0.1106 
    107 H107       26.2086  -32.1190  -37.9907 H         1 UNK         0.0828 
    108 H108       26.0148  -33.2996  -39.2758 H         1 UNK         0.0828 
    109 H109       25.8002  -31.5872  -39.6181 H         1 UNK         0.0828 
    110 H110       23.1380  -31.1541  -40.5270 H         1 UNK         0.2931 
    111 H111       21.9247  -31.4746  -42.2913 H         1 UNK         0.0412 
    112 H112       24.5462  -33.8890  -43.6513 H         1 UNK         0.3472 
    113 H113       24.6348  -32.7673  -42.3153 H         1 UNK         0.3472 
    114 H114       20.6563  -34.0278  -41.2300 H         1 UNK         0.0970 
    115 H115       20.3706  -32.5259  -40.4062 H         1 UNK         0.0970 
    116 H116       19.9412  -30.2024  -42.2048 H         1 UNK         0.0612 
    117 H117       18.7030  -30.7127  -41.0748 H         1 UNK         0.0612 
@<TRIPOS>BOND
     1    1    2 1    
     2    1   62 1    
     3    1   63 1    
     4    1   64 1    
     5    2    3 2    
     6    2    4 am   BACKBONE|DICT|INTERRES
     7    4    5 1    
     8    4   65 1    
     9    5    6 1    
    10    5   25 1    
    11    5   66 1    
    12    6    7 1    
    13    6   67 1    
    14    6   68 1    
    15    7    8 1    
    16    8    9 1    
    17    8   69 1    
    18    8   70 1    
    19    9   10 ar   
    20    9   14 ar   
    21   10   11 ar   
    22   10   71 1    
    23   11   12 ar   
    24   11   61 1    
    25   12   13 ar   
    26   12   72 1    
    27   13   14 ar   
    28   13   15 1    
    29   14   73 1    
    30   15   16 1    
    31   15   74 1    
    32   15   75 1    
    33   16   17 1    
    34   17   18 1    
    35   17   76 1    
    36   17   77 1    
    37   18   19 1    
    38   18   27 1    
    39   18   78 1    
    40   19   20 am   BACKBONE|DICT|INTERRES
    41   19   79 1    
    42   20   21 2    
    43   20   22 1    
    44   22   23 1    
    45   22   24 1    
    46   22   80 1    
    47   23   81 1    
    48   23   82 1    
    49   23   83 1    
    50   24   25 am   BACKBONE|DICT|INTERRES
    51   24   84 1    
    52   25   26 2    
    53   27   28 2    
    54   27   29 am   BACKBONE|DICT|INTERRES
    55   29   30 1    
    56   29   85 1    
    57   30   31 1    
    58   30   32 1    
    59   30   86 1    
    60   31   87 1    
    61   31   88 1    
    62   31   89 1    
    63   32   33 2    
    64   32   34 am   BACKBONE|DICT|INTERRES
    65   34   35 1    
    66   34   90 1    
    67   35   36 1    
    68   35   37 1    
    69   35   91 1    
    70   36   92 1    
    71   36   93 1    
    72   36   94 1    
    73   37   38 2    
    74   37   39 am   BACKBONE|DICT|INTERRES
    75   39   40 1    
    76   39   95 1    
    77   40   41 1    
    78   40   42 1    
    79   40   96 1    
    80   41   97 1    
    81   41   98 1    
    82   41   99 1    
    83   42   43 2    
    84   42   44 am   BACKBONE|DICT|INTERRES
    85   44   45 1    
    86   44  100 1    
    87   45   46 1    
    88   45   47 1    
    89   45  101 1    
    90   46  102 1    
    91   46  103 1    
    92   46  104 1    
    93   47   48 2    
    94   47   49 am   BACKBONE|DICT|INTERRES
    95   49   50 1    
    96   49  105 1    
    97   50   51 1    
    98   50   52 1    
    99   50  106 1    
   100   51  107 1    
   101   51  108 1    
   102   51  109 1    
   103   52   53 2    
   104   52   54 am   BACKBONE|DICT|INTERRES
   105   54   55 1    
   106   54  110 1    
   107   55   56 1    
   108   55   59 1    
   109   55  111 1    
   110   56   57 am   BACKBONE|DICT|INTERRES
   111   56   58 2    
   112   57  112 1    
   113   57  113 1    
   114   59   60 1    
   115   59  114 1    
   116   59  115 1    
   117   60   61 1    
   118   61  116 1    
   119   61  117 1    
@<TRIPOS>SUBSTRUCTURE
     1 UNK         1 GROUP             0       ****    0 ROOT    
