@<TRIPOS>MOLECULE
3R8
117   119    1
SMALL
USER_CHARGES


@<TRIPOS>ATOM
      1 CA         17.0986  -23.7010  -49.0433 C.3       0 UNK        -0.2013 
      2 C          18.0216  -23.9629  -47.8626 C.2       0 UNK         0.4866 
      3 O          18.6901  -23.0424  -47.3908 O.2       0 UNK        -0.5176 
      4 N          18.0719  -25.2134  -47.3882 N.am      1 UNK        -0.4884 
      5 CA         18.8413  -25.6433  -46.2168 C.3       1 UNK         0.0853 
      6 C6         19.0200  -27.1874  -46.1556 C.3       10 UNK        -0.0849 
      7 S7         17.5562  -28.1732  -46.6459 S.3       10 UNK        -0.2776 
      8 C8         16.7634  -28.5618  -45.0456 C.3       10 UNK         0.0316 
      9 C9         17.5335  -29.4968  -44.1100 C.ar      10 UNK        -0.0863 
     10 C10        18.6242  -30.2734  -44.5259 C.ar      10 UNK        -0.1009 
     11 C11        19.2894  -31.1108  -43.6249 C.ar      10 UNK        -0.0712 
     12 C12        18.8519  -31.1868  -42.3003 C.ar      10 UNK        -0.0894 
     13 C13        17.7620  -30.4245  -41.8723 C.ar      10 UNK        -0.0745 
     14 C14        17.1076  -29.5887  -42.7815 C.ar      10 UNK        -0.0972 
     15 C15        17.3077  -30.4806  -40.4211 C.3       10 UNK         0.0209 
     16 S16        18.4421  -29.5725  -39.3219 S.3       10 UNK        -0.2568 
     17 C17        18.3374  -27.8724  -39.9810 C.3       10 UNK        -0.0983 
     18 CA         19.4836  -27.5529  -40.9801 C.3       3 UNK         0.0876 
     19 N          19.2072  -26.4211  -41.8704 N.am      3 UNK        -0.4424 
     20 C          18.9279  -25.1556  -41.5288 C.2       2 UNK         0.4918 
     21 O          18.8101  -24.7784  -40.3622 O.2       2 UNK        -0.4875 
     22 CA         18.8074  -24.1246  -42.6683 C.3       2 UNK         0.0481 
     23 CB         19.7305  -22.9209  -42.4056 C.3       2 UNK        -0.1831 
     24 N          19.1403  -24.6878  -43.9832 N.am      2 UNK        -0.4498 
     25 C          18.2510  -25.0757  -44.9078 C.2       1 UNK         0.5027 
     26 O          17.0286  -25.0218  -44.7534 O.2       1 UNK        -0.4969 
     27 C          20.8600  -27.4228  -40.3033 C.2       3 UNK         0.5005 
     28 O          21.7527  -28.2153  -40.6032 O.2       3 UNK        -0.5279 
     29 N          21.0369  -26.3989  -39.4569 N.am      4 UNK        -0.4463 
     30 CA         22.2600  -26.1209  -38.6922 C.3       4 UNK         0.0283 
     31 CB         22.0187  -24.9093  -37.7784 C.3       4 UNK        -0.1875 
     32 C          23.5162  -25.8990  -39.5557 C.2       4 UNK         0.4949 
     33 O          24.6223  -26.1813  -39.0965 O.2       4 UNK        -0.5039 
     34 N          23.3215  -25.4229  -40.7931 N.am      5 UNK        -0.4663 
     35 CA         24.3719  -25.2581  -41.8002 C.3       5 UNK         0.0242 
     36 CB         23.8467  -24.3467  -42.9220 C.3       5 UNK        -0.1982 
     37 C          24.8758  -26.5917  -42.3855 C.2       5 UNK         0.5017 
     38 O          26.0157  -26.6439  -42.8486 O.2       5 UNK        -0.5012 
     39 N          24.0272  -27.6293  -42.3702 N.am      6 UNK        -0.4439 
     40 CA         24.3368  -28.9717  -42.8678 C.3       6 UNK         0.0297 
     41 CB         23.1232  -29.5203  -43.6368 C.3       6 UNK        -0.2006 
     42 C          24.7138  -29.9271  -41.7260 C.2       6 UNK         0.4892 
     43 O          25.5709  -30.7879  -41.9231 O.2       6 UNK        -0.5089 
     44 N          24.0529  -29.7741  -40.5691 N.am      7 UNK        -0.4243 
     45 CA         24.1359  -30.5640  -39.3340 C.3       7 UNK         0.0196 
     46 CB         25.5701  -30.6232  -38.7728 C.3       7 UNK        -0.2007 
     47 C          23.5102  -31.9654  -39.4469 C.2       7 UNK         0.5020 
     48 O          22.7934  -32.3723  -38.5322 O.2       7 UNK        -0.5147 
     49 N          23.7591  -32.6713  -40.5540 N.am      8 UNK        -0.4734 
     50 CA         23.1842  -33.9738  -40.8788 C.3       8 UNK         0.0238 
     51 CB         23.9582  -35.0894  -40.1516 C.3       8 UNK        -0.1912 
     52 C          23.2281  -34.1792  -42.3970 C.2       8 UNK         0.5038 
     53 O          24.1073  -33.6260  -43.0619 O.2       8 UNK        -0.5046 
     54 N          22.2953  -34.9858  -42.9103 N.am      9 UNK        -0.4200 
     55 CA         22.1826  -35.3564  -44.3297 C.3       9 UNK         0.0839 
     56 C          21.4728  -36.7227  -44.5586 C.2       9 UNK         0.5513 
     57 N          21.2925  -37.5568  -43.5399 N.am      9 UNK        -0.7519 
     58 O          21.0990  -37.0509  -45.6819 O.2       9 UNK        -0.4960 
     59 C59        21.6364  -34.2026  -45.2196 C.3       10 UNK        -0.0876 
     60 S60        20.0106  -33.5559  -44.6916 S.3       10 UNK        -0.2414 
     61 C61        20.4951  -31.9157  -44.0788 C.3       10 UNK         0.0169 
     62 H62        16.3467  -22.9597  -48.7739 H         1 UNK         0.0903 
     63 H63        17.6694  -23.3166  -49.8881 H         1 UNK         0.0903 
     64 H64        16.5828  -24.6054  -49.3659 H         1 UNK         0.0903 
     65 H65        17.4830  -25.9301  -47.7907 H         1 UNK         0.3096 
     66 H66        19.8387  -25.2105  -46.3276 H         1 UNK         0.1121 
     67 H67        19.3787  -27.5125  -45.1774 H         1 UNK         0.0849 
     68 H68        19.8158  -27.4667  -46.8480 H         1 UNK         0.0849 
     69 H69        16.5469  -27.6269  -44.5282 H         1 UNK         0.0865 
     70 H70        15.7961  -29.0199  -45.2559 H         1 UNK         0.0865 
     71 H71        18.9670  -30.2343  -45.5500 H         1 UNK         0.1346 
     72 H72        19.3675  -31.8275  -41.5978 H         1 UNK         0.1412 
     73 H73        16.2650  -28.9970  -42.4492 H         1 UNK         0.1426 
     74 H74        17.2574  -31.5210  -40.0967 H         1 UNK         0.0716 
     75 H75        16.2995  -30.0775  -40.3120 H         1 UNK         0.0716 
     76 H76        18.3338  -27.1743  -39.1424 H         1 UNK         0.0695 
     77 H77        17.3694  -27.7478  -40.4680 H         1 UNK         0.0695 
     78 H78        19.5745  -28.4025  -41.6573 H         1 UNK         0.0983 
     79 H79        19.2879  -26.6233  -42.8548 H         1 UNK         0.3095 
     80 H80        17.7770  -23.7637  -42.6649 H         1 UNK         0.0454 
     81 H81        19.6353  -22.1709  -43.1910 H         1 UNK         0.0851 
     82 H82        20.7789  -23.2156  -42.3493 H         1 UNK         0.0851 
     83 H83        19.4798  -22.4295  -41.4644 H         1 UNK         0.0851 
     84 H84        20.1252  -24.7505  -44.2007 H         1 UNK         0.2976 
     85 H85        20.2595  -25.7563  -39.3391 H         1 UNK         0.3116 
     86 H86        22.4529  -26.9919  -38.0625 H         1 UNK         0.0646 
     87 H87        21.1976  -25.0914  -37.0849 H         1 UNK         0.0847 
     88 H88        21.7820  -24.0119  -38.3516 H         1 UNK         0.0847 
     89 H89        22.9032  -24.6892  -37.1786 H         1 UNK         0.0847 
     90 H90        22.3779  -25.1996  -41.0711 H         1 UNK         0.3040 
     91 H91        25.2256  -24.7662  -41.3280 H         1 UNK         0.1015 
     92 H92        24.6157  -24.1758  -43.6768 H         1 UNK         0.0786 
     93 H93        23.5533  -23.3701  -42.5362 H         1 UNK         0.0786 
     94 H94        22.9851  -24.7827  -43.4289 H         1 UNK         0.0786 
     95 H95        23.1354  -27.5183  -41.9012 H         1 UNK         0.3172 
     96 H96        25.1802  -28.9302  -43.5603 H         1 UNK         0.0595 
     97 H97        22.2368  -29.5882  -43.0046 H         1 UNK         0.0839 
     98 H98        23.3288  -30.5209  -44.0204 H         1 UNK         0.0839 
     99 H99        22.8770  -28.8902  -44.4915 H         1 UNK         0.0839 
    100 H100       23.2940  -29.0936  -40.5641 H         1 UNK         0.2998 
    101 H101       23.5302  -30.0151  -38.6108 H         1 UNK         0.0822 
    102 H102       25.9902  -29.6241  -38.6557 H         1 UNK         0.0787 
    103 H103       25.5808  -31.0980  -37.7910 H         1 UNK         0.0787 
    104 H104       26.2392  -31.1972  -39.4141 H         1 UNK         0.0787 
    105 H105       24.3612  -32.2695  -41.2699 H         1 UNK         0.3055 
    106 H106       22.1393  -33.9864  -40.5595 H         1 UNK         0.1106 
    107 H107       25.0127  -35.0928  -40.4308 H         1 UNK         0.0828 
    108 H108       23.5529  -36.0727  -40.3931 H         1 UNK         0.0828 
    109 H109       23.9000  -34.9755  -39.0690 H         1 UNK         0.0828 
    110 H110       21.5891  -35.3819  -42.3072 H         1 UNK         0.2931 
    111 H111       23.1997  -35.5519  -44.6749 H         1 UNK         0.0412 
    112 H112       20.8358  -38.4392  -43.7126 H         1 UNK         0.3472 
    113 H113       21.6567  -37.3584  -42.6226 H         1 UNK         0.3472 
    114 H114       22.3619  -33.3881  -45.2356 H         1 UNK         0.0970 
    115 H115       21.5567  -34.5228  -46.2599 H         1 UNK         0.0970 
    116 H116       21.0223  -31.3775  -44.8680 H         1 UNK         0.0612 
    117 H117       21.2010  -32.0301  -43.2548 H         1 UNK         0.0612 
@<TRIPOS>BOND
     1    1    2 1    
     2    1   62 1    
     3    1   63 1    
     4    1   64 1    
     5    2    3 2    
     6    2    4 am   BACKBONE|DICT|INTERRES
     7    4    5 1    
     8    4   65 1    
     9    5    6 1    
    10    5   25 1    
    11    5   66 1    
    12    6    7 1    
    13    6   67 1    
    14    6   68 1    
    15    7    8 1    
    16    8    9 1    
    17    8   69 1    
    18    8   70 1    
    19    9   10 ar   
    20    9   14 ar   
    21   10   11 ar   
    22   10   71 1    
    23   11   12 ar   
    24   11   61 1    
    25   12   13 ar   
    26   12   72 1    
    27   13   14 ar   
    28   13   15 1    
    29   14   73 1    
    30   15   16 1    
    31   15   74 1    
    32   15   75 1    
    33   16   17 1    
    34   17   18 1    
    35   17   76 1    
    36   17   77 1    
    37   18   19 1    
    38   18   27 1    
    39   18   78 1    
    40   19   20 am   BACKBONE|DICT|INTERRES
    41   19   79 1    
    42   20   21 2    
    43   20   22 1    
    44   22   23 1    
    45   22   24 1    
    46   22   80 1    
    47   23   81 1    
    48   23   82 1    
    49   23   83 1    
    50   24   25 am   BACKBONE|DICT|INTERRES
    51   24   84 1    
    52   25   26 2    
    53   27   28 2    
    54   27   29 am   BACKBONE|DICT|INTERRES
    55   29   30 1    
    56   29   85 1    
    57   30   31 1    
    58   30   32 1    
    59   30   86 1    
    60   31   87 1    
    61   31   88 1    
    62   31   89 1    
    63   32   33 2    
    64   32   34 am   BACKBONE|DICT|INTERRES
    65   34   35 1    
    66   34   90 1    
    67   35   36 1    
    68   35   37 1    
    69   35   91 1    
    70   36   92 1    
    71   36   93 1    
    72   36   94 1    
    73   37   38 2    
    74   37   39 am   BACKBONE|DICT|INTERRES
    75   39   40 1    
    76   39   95 1    
    77   40   41 1    
    78   40   42 1    
    79   40   96 1    
    80   41   97 1    
    81   41   98 1    
    82   41   99 1    
    83   42   43 2    
    84   42   44 am   BACKBONE|DICT|INTERRES
    85   44   45 1    
    86   44  100 1    
    87   45   46 1    
    88   45   47 1    
    89   45  101 1    
    90   46  102 1    
    91   46  103 1    
    92   46  104 1    
    93   47   48 2    
    94   47   49 am   BACKBONE|DICT|INTERRES
    95   49   50 1    
    96   49  105 1    
    97   50   51 1    
    98   50   52 1    
    99   50  106 1    
   100   51  107 1    
   101   51  108 1    
   102   51  109 1    
   103   52   53 2    
   104   52   54 am   BACKBONE|DICT|INTERRES
   105   54   55 1    
   106   54  110 1    
   107   55   56 1    
   108   55   59 1    
   109   55  111 1    
   110   56   57 am   BACKBONE|DICT|INTERRES
   111   56   58 2    
   112   57  112 1    
   113   57  113 1    
   114   59   60 1    
   115   59  114 1    
   116   59  115 1    
   117   60   61 1    
   118   61  116 1    
   119   61  117 1    
@<TRIPOS>SUBSTRUCTURE
     1 UNK         1 GROUP             0       ****    0 ROOT    
