@<TRIPOS>MOLECULE
3R8
117   119    1
SMALL
USER_CHARGES


@<TRIPOS>ATOM
      1 CA         14.4540  -22.9887  -46.2706 C.3       0 UNK        -0.2013 
      2 C          15.5881  -23.9547  -45.9644 C.2       0 UNK         0.4866 
      3 O          16.5455  -24.0420  -46.7341 O.2       0 UNK        -0.5176 
      4 N          15.5012  -24.6729  -44.8378 N.am      1 UNK        -0.4884 
      5 CA         16.4665  -25.6815  -44.3777 C.3       1 UNK         0.0853 
      6 C6         15.8071  -26.6947  -43.4043 C.3       10 UNK        -0.0849 
      7 S7         14.5549  -27.7219  -44.2455 S.3       10 UNK        -0.2776 
      8 C8         15.0376  -29.4131  -43.7382 C.3       10 UNK         0.0316 
      9 C9         16.4473  -29.8431  -44.1497 C.ar      10 UNK        -0.0863 
     10 C10        17.1563  -30.7271  -43.3295 C.ar      10 UNK        -0.1009 
     11 C11        18.4448  -31.1544  -43.6722 C.ar      10 UNK        -0.0712 
     12 C12        19.0258  -30.6890  -44.8561 C.ar      10 UNK        -0.0894 
     13 C13        18.3180  -29.8322  -45.7040 C.ar      10 UNK        -0.0745 
     14 C14        17.0318  -29.4157  -45.3470 C.ar      10 UNK        -0.0972 
     15 C15        18.9048  -29.4044  -47.0402 C.3       10 UNK         0.0209 
     16 S16        19.3037  -27.6308  -47.0747 S.3       10 UNK        -0.2568 
     17 C17        21.0757  -27.5970  -46.6141 C.3       10 UNK        -0.0983 
     18 CA         21.3854  -26.8872  -45.2676 C.3       3 UNK         0.0876 
     19 N          20.5813  -25.6775  -45.1080 N.am      3 UNK        -0.4424 
     20 C          20.8261  -24.6310  -44.3119 C.2       2 UNK         0.4918 
     21 O          21.8471  -24.4991  -43.6385 O.2       2 UNK        -0.4875 
     22 CA         19.7069  -23.5726  -44.2369 C.3       2 UNK         0.0481 
     23 CB         19.9982  -22.4095  -45.1974 C.3       2 UNK        -0.1831 
     24 N          18.3820  -24.1331  -44.5398 N.am      2 UNK        -0.4498 
     25 C          17.7487  -25.0462  -43.7899 C.2       1 UNK         0.5027 
     26 O          18.1772  -25.4144  -42.6965 O.2       1 UNK        -0.4969 
     27 C          21.3199  -27.8521  -44.0615 C.2       3 UNK         0.5005 
     28 O          22.1000  -28.8057  -44.0338 O.2       3 UNK        -0.5279 
     29 N          20.4557  -27.5955  -43.0649 N.am      4 UNK        -0.4463 
     30 CA         20.4274  -28.3158  -41.7872 C.3       4 UNK         0.0283 
     31 CB         19.0285  -28.1978  -41.1568 C.3       4 UNK        -0.1875 
     32 C          21.5386  -27.7996  -40.8526 C.2       4 UNK         0.4949 
     33 O          21.2570  -27.2083  -39.8091 O.2       4 UNK        -0.5039 
     34 N          22.7891  -28.0021  -41.2720 N.am      5 UNK        -0.4663 
     35 CA         24.0131  -27.5484  -40.6206 C.3       5 UNK         0.0242 
     36 CB         24.3026  -26.0945  -41.0424 C.3       5 UNK        -0.1982 
     37 C          25.1574  -28.4907  -41.0172 C.2       5 UNK         0.5017 
     38 O          24.9493  -29.3939  -41.8305 O.2       5 UNK        -0.5012 
     39 N          26.3434  -28.2795  -40.4268 N.am      6 UNK        -0.4439 
     40 CA         27.5926  -29.0169  -40.6841 C.3       6 UNK         0.0297 
     41 CB         28.1443  -28.6646  -42.0824 C.3       6 UNK        -0.2006 
     42 C          27.4714  -30.5408  -40.4622 C.2       6 UNK         0.4892 
     43 O          28.0851  -31.3224  -41.1907 O.2       6 UNK        -0.5089 
     44 N          26.6620  -30.9212  -39.4620 N.am      7 UNK        -0.4243 
     45 CA         26.3110  -32.2891  -39.0629 C.3       7 UNK         0.0196 
     46 CB         27.5548  -33.0613  -38.5700 C.3       7 UNK        -0.2007 
     47 C          25.4996  -33.0765  -40.1149 C.2       7 UNK         0.5020 
     48 O          25.4766  -34.3064  -40.0492 O.2       7 UNK        -0.5147 
     49 N          24.8161  -32.3825  -41.0417 N.am      8 UNK        -0.4734 
     50 CA         23.9168  -32.9999  -42.0280 C.3       8 UNK         0.0238 
     51 CB         23.4957  -31.9621  -43.0812 C.3       8 UNK        -0.1912 
     52 C          22.6747  -33.6410  -41.3847 C.2       8 UNK         0.5038 
     53 O          22.2701  -34.7279  -41.7991 O.2       8 UNK        -0.5046 
     54 N          22.1155  -32.9640  -40.3758 N.am      9 UNK        -0.4200 
     55 CA         20.9799  -33.4207  -39.5620 C.3       9 UNK         0.0839 
     56 C          20.9014  -32.7326  -38.1680 C.2       9 UNK         0.5513 
     57 N          21.9399  -32.0440  -37.7058 N.am      9 UNK        -0.7519 
     58 O          19.8932  -32.8429  -37.4750 O.2       9 UNK        -0.4960 
     59 C59        19.6318  -33.4305  -40.3371 C.3       10 UNK        -0.0876 
     60 S60        19.1517  -31.8119  -41.0364 S.3       10 UNK        -0.2414 
     61 C61        19.1770  -32.1868  -42.8201 C.3       10 UNK         0.0169 
     62 H62        13.9990  -23.2374  -47.2288 H         1 UNK         0.0903 
     63 H63        13.6759  -23.0179  -45.5083 H         1 UNK         0.0903 
     64 H64        14.8348  -21.9695  -46.3284 H         1 UNK         0.0903 
     65 H65        14.6972  -24.5467  -44.2388 H         1 UNK         0.3096 
     66 H66        16.8026  -26.2467  -45.2505 H         1 UNK         0.1121 
     67 H67        15.3409  -26.1794  -42.5628 H         1 UNK         0.0849 
     68 H68        16.5562  -27.3580  -42.9705 H         1 UNK         0.0849 
     69 H69        14.3250  -30.1193  -44.1660 H         1 UNK         0.0865 
     70 H70        14.9262  -29.4848  -42.6549 H         1 UNK         0.0865 
     71 H71        16.6990  -31.0968  -42.4218 H         1 UNK         0.1346 
     72 H72        20.0153  -31.0235  -45.1370 H         1 UNK         0.1412 
     73 H73        16.4845  -28.7642  -46.0141 H         1 UNK         0.1426 
     74 H74        18.1710  -29.6054  -47.8221 H         1 UNK         0.0716 
     75 H75        19.7827  -29.9985  -47.2976 H         1 UNK         0.0716 
     76 H76        21.5862  -27.0568  -47.4128 H         1 UNK         0.0695 
     77 H77        21.4991  -28.6026  -46.6440 H         1 UNK         0.0695 
     78 H78        22.4294  -26.5679  -45.3083 H         1 UNK         0.0983 
     79 H79        19.7211  -25.6782  -45.6374 H         1 UNK         0.3095 
     80 H80        19.6862  -23.1810  -43.2179 H         1 UNK         0.0454 
     81 H81        20.0142  -22.7376  -46.2375 H         1 UNK         0.0851 
     82 H82        20.9684  -21.9596  -44.9820 H         1 UNK         0.0851 
     83 H83        19.2500  -21.6222  -45.1054 H         1 UNK         0.0851 
     84 H84        17.9543  -23.8844  -45.4286 H         1 UNK         0.2976 
     85 H85        19.8624  -26.7776  -43.1256 H         1 UNK         0.3116 
     86 H86        20.6168  -29.3747  -41.9739 H         1 UNK         0.0646 
     87 H87        18.2594  -28.5715  -41.8305 H         1 UNK         0.0847 
     88 H88        18.7818  -27.1689  -40.8959 H         1 UNK         0.0847 
     89 H89        18.9674  -28.7857  -40.2405 H         1 UNK         0.0847 
     90 H90        22.9349  -28.5231  -42.1340 H         1 UNK         0.3040 
     91 H91        23.8881  -27.6034  -39.5369 H         1 UNK         0.1015 
     92 H92        25.1959  -25.7047  -40.5535 H         1 UNK         0.0786 
     93 H93        23.4782  -25.4325  -40.7757 H         1 UNK         0.0786 
     94 H94        24.4550  -26.0128  -42.1197 H         1 UNK         0.0786 
     95 H95        26.4138  -27.5270  -39.7547 H         1 UNK         0.3172 
     96 H96        28.3151  -28.6630  -39.9471 H         1 UNK         0.0595 
     97 H97        27.4973  -29.0379  -42.8771 H         1 UNK         0.0839 
     98 H98        29.1323  -29.1002  -42.2364 H         1 UNK         0.0839 
     99 H99        28.2447  -27.5868  -42.2103 H         1 UNK         0.0839 
    100 H100       26.2111  -30.1867  -38.9342 H         1 UNK         0.2998 
    101 H101       25.6435  -32.1816  -38.2068 H         1 UNK         0.0822 
    102 H102       28.1036  -32.4932  -37.8189 H         1 UNK         0.0787 
    103 H103       27.2719  -34.0096  -38.1113 H         1 UNK         0.0787 
    104 H104       28.2407  -33.2899  -39.3862 H         1 UNK         0.0787 
    105 H105       24.9261  -31.3751  -41.0932 H         1 UNK         0.3055 
    106 H106       24.4705  -33.7936  -42.5348 H         1 UNK         0.1106 
    107 H107       22.8636  -32.4146  -43.8463 H         1 UNK         0.0828 
    108 H108       24.3613  -31.5355  -43.5884 H         1 UNK         0.0828 
    109 H109       22.9307  -31.1399  -42.6398 H         1 UNK         0.0828 
    110 H110       22.4910  -32.0608  -40.1310 H         1 UNK         0.2931 
    111 H111       21.1941  -34.4610  -39.3097 H         1 UNK         0.0412 
    112 H112       22.8119  -32.0023  -38.2034 H         1 UNK         0.3472 
    113 H113       21.8644  -31.6138  -36.7969 H         1 UNK         0.3472 
    114 H114       19.6853  -34.1707  -41.1359 H         1 UNK         0.0970 
    115 H115       18.8214  -33.7774  -39.6937 H         1 UNK         0.0970 
    116 H116       18.7035  -33.1539  -42.9933 H         1 UNK         0.0612 
    117 H117       20.2169  -32.2852  -43.1357 H         1 UNK         0.0612 
@<TRIPOS>BOND
     1    1    2 1    
     2    1   62 1    
     3    1   63 1    
     4    1   64 1    
     5    2    3 2    
     6    2    4 am   BACKBONE|DICT|INTERRES
     7    4    5 1    
     8    4   65 1    
     9    5    6 1    
    10    5   25 1    
    11    5   66 1    
    12    6    7 1    
    13    6   67 1    
    14    6   68 1    
    15    7    8 1    
    16    8    9 1    
    17    8   69 1    
    18    8   70 1    
    19    9   10 ar   
    20    9   14 ar   
    21   10   11 ar   
    22   10   71 1    
    23   11   12 ar   
    24   11   61 1    
    25   12   13 ar   
    26   12   72 1    
    27   13   14 ar   
    28   13   15 1    
    29   14   73 1    
    30   15   16 1    
    31   15   74 1    
    32   15   75 1    
    33   16   17 1    
    34   17   18 1    
    35   17   76 1    
    36   17   77 1    
    37   18   19 1    
    38   18   27 1    
    39   18   78 1    
    40   19   20 am   BACKBONE|DICT|INTERRES
    41   19   79 1    
    42   20   21 2    
    43   20   22 1    
    44   22   23 1    
    45   22   24 1    
    46   22   80 1    
    47   23   81 1    
    48   23   82 1    
    49   23   83 1    
    50   24   25 am   BACKBONE|DICT|INTERRES
    51   24   84 1    
    52   25   26 2    
    53   27   28 2    
    54   27   29 am   BACKBONE|DICT|INTERRES
    55   29   30 1    
    56   29   85 1    
    57   30   31 1    
    58   30   32 1    
    59   30   86 1    
    60   31   87 1    
    61   31   88 1    
    62   31   89 1    
    63   32   33 2    
    64   32   34 am   BACKBONE|DICT|INTERRES
    65   34   35 1    
    66   34   90 1    
    67   35   36 1    
    68   35   37 1    
    69   35   91 1    
    70   36   92 1    
    71   36   93 1    
    72   36   94 1    
    73   37   38 2    
    74   37   39 am   BACKBONE|DICT|INTERRES
    75   39   40 1    
    76   39   95 1    
    77   40   41 1    
    78   40   42 1    
    79   40   96 1    
    80   41   97 1    
    81   41   98 1    
    82   41   99 1    
    83   42   43 2    
    84   42   44 am   BACKBONE|DICT|INTERRES
    85   44   45 1    
    86   44  100 1    
    87   45   46 1    
    88   45   47 1    
    89   45  101 1    
    90   46  102 1    
    91   46  103 1    
    92   46  104 1    
    93   47   48 2    
    94   47   49 am   BACKBONE|DICT|INTERRES
    95   49   50 1    
    96   49  105 1    
    97   50   51 1    
    98   50   52 1    
    99   50  106 1    
   100   51  107 1    
   101   51  108 1    
   102   51  109 1    
   103   52   53 2    
   104   52   54 am   BACKBONE|DICT|INTERRES
   105   54   55 1    
   106   54  110 1    
   107   55   56 1    
   108   55   59 1    
   109   55  111 1    
   110   56   57 am   BACKBONE|DICT|INTERRES
   111   56   58 2    
   112   57  112 1    
   113   57  113 1    
   114   59   60 1    
   115   59  114 1    
   116   59  115 1    
   117   60   61 1    
   118   61  116 1    
   119   61  117 1    
@<TRIPOS>SUBSTRUCTURE
     1 UNK         1 GROUP             0       ****    0 ROOT    
