@<TRIPOS>MOLECULE
3R8
117   119    1
SMALL
USER_CHARGES


@<TRIPOS>ATOM
      1 CA         13.5760  -24.9904  -41.9380 C.3       0 UNK        -0.2013 
      2 C          14.5454  -25.2253  -43.0870 C.2       0 UNK         0.4866 
      3 O          14.5478  -24.4605  -44.0524 O.2       0 UNK        -0.5176 
      4 N          15.3617  -26.2823  -42.9958 N.am      1 UNK        -0.4884 
      5 CA         16.3888  -26.6365  -43.9813 C.3       1 UNK         0.0853 
      6 C6         16.9246  -28.0712  -43.7597 C.3       10 UNK        -0.0849 
      7 S7         15.6309  -29.3412  -43.9739 S.3       10 UNK        -0.2776 
      8 C8         16.0480  -30.0419  -45.6056 C.3       10 UNK         0.0316 
      9 C9         17.3844  -30.7732  -45.5959 C.ar      10 UNK        -0.0863 
     10 C10        17.5378  -31.9455  -44.8501 C.ar      10 UNK        -0.1009 
     11 C11        18.7640  -32.6156  -44.8245 C.ar      10 UNK        -0.0712 
     12 C12        19.8413  -32.1073  -45.5561 C.ar      10 UNK        -0.0894 
     13 C13        19.7008  -30.9410  -46.3145 C.ar      10 UNK        -0.0745 
     14 C14        18.4650  -30.2843  -46.3374 C.ar      10 UNK        -0.0972 
     15 C15        20.8814  -30.4179  -47.1269 C.3       10 UNK         0.0209 
     16 S16        21.2049  -28.6413  -46.8787 S.3       10 UNK        -0.2568 
     17 C17        21.6583  -28.5954  -45.1120 C.3       10 UNK        -0.0983 
     18 CA         21.8600  -27.1449  -44.5978 C.3       3 UNK         0.0876 
     19 N          20.6570  -26.3346  -44.8327 N.am      3 UNK        -0.4424 
     20 C          20.5881  -25.0012  -44.9311 C.2       2 UNK         0.4918 
     21 O          21.5490  -24.2566  -44.7358 O.2       2 UNK        -0.4875 
     22 CA         19.2269  -24.3877  -45.3104 C.3       2 UNK         0.0481 
     23 CB         19.2543  -23.9016  -46.7686 C.3       2 UNK        -0.1831 
     24 N          18.0950  -25.3047  -45.1344 N.am      2 UNK        -0.4498 
     25 C          17.5532  -25.6252  -43.9510 C.2       1 UNK         0.5027 
     26 O          17.9582  -25.1872  -42.8710 O.2       1 UNK        -0.4969 
     27 C          22.3355  -27.1059  -43.1244 C.2       3 UNK         0.5005 
     28 O          22.7160  -28.1394  -42.5696 O.2       3 UNK        -0.5279 
     29 N          22.3035  -25.9213  -42.5003 N.am      4 UNK        -0.4463 
     30 CA         22.6942  -25.6775  -41.1124 C.3       4 UNK         0.0283 
     31 CB         22.3927  -24.2151  -40.7478 C.3       4 UNK        -0.1875 
     32 C          24.1758  -26.0085  -40.8740 C.2       4 UNK         0.4949 
     33 O          25.0373  -25.4751  -41.5749 O.2       4 UNK        -0.5039 
     34 N          24.4262  -26.8977  -39.9037 N.am      5 UNK        -0.4663 
     35 CA         25.7307  -27.4156  -39.4649 C.3       5 UNK         0.0242 
     36 CB         26.6336  -26.2782  -38.9409 C.3       5 UNK        -0.1982 
     37 C          26.4653  -28.3088  -40.4874 C.2       5 UNK         0.5017 
     38 O          27.5738  -28.7564  -40.1897 O.2       5 UNK        -0.5012 
     39 N          25.8488  -28.5953  -41.6440 N.am      6 UNK        -0.4439 
     40 CA         26.3646  -29.5429  -42.6402 C.3       6 UNK         0.0297 
     41 CB         25.7366  -29.2309  -44.0073 C.3       6 UNK        -0.2006 
     42 C          26.0917  -31.0072  -42.2466 C.2       6 UNK         0.4892 
     43 O          26.7895  -31.9064  -42.7165 O.2       6 UNK        -0.5089 
     44 N          25.0857  -31.2073  -41.3916 N.am      7 UNK        -0.4243 
     45 CA         24.6140  -32.4613  -40.8198 C.3       7 UNK         0.0196 
     46 CB         23.8248  -33.2558  -41.8812 C.3       7 UNK        -0.2007 
     47 C          23.7310  -32.0913  -39.6187 C.2       7 UNK         0.5020 
     48 O          23.5454  -30.9016  -39.3426 O.2       7 UNK        -0.5147 
     49 N          23.1407  -33.0950  -38.9558 N.am      8 UNK        -0.4734 
     50 CA         22.1260  -32.8968  -37.9075 C.3       8 UNK         0.0238 
     51 CB         21.7803  -34.2498  -37.2650 C.3       8 UNK        -0.1912 
     52 C          20.8500  -32.1992  -38.4239 C.2       8 UNK         0.5038 
     53 O          20.2175  -31.4527  -37.6765 O.2       8 UNK        -0.5046 
     54 N          20.5302  -32.4376  -39.7006 N.am      9 UNK        -0.4200 
     55 CA         19.5101  -31.7399  -40.4948 C.3       9 UNK         0.0839 
     56 C          20.0437  -30.4742  -41.2343 C.2       9 UNK         0.5513 
     57 N          21.2928  -30.0666  -41.0453 N.am      9 UNK        -0.7519 
     58 O          19.3055  -29.8413  -41.9824 O.2       9 UNK        -0.4960 
     59 C59        18.7893  -32.7301  -41.4497 C.3       10 UNK        -0.0876 
     60 S60        19.9313  -33.6650  -42.5318 S.3       10 UNK        -0.2414 
     61 C61        18.9224  -33.9015  -44.0268 C.3       10 UNK         0.0169 
     62 H62        12.5497  -25.0038  -42.3039 H         1 UNK         0.0903 
     63 H63        13.6694  -25.7513  -41.1632 H         1 UNK         0.0903 
     64 H64        13.7632  -24.0182  -41.4827 H         1 UNK         0.0903 
     65 H65        15.3223  -26.8747  -42.1787 H         1 UNK         0.3096 
     66 H66        15.9258  -26.5913  -44.9699 H         1 UNK         0.1121 
     67 H67        17.3321  -28.1720  -42.7519 H         1 UNK         0.0849 
     68 H68        17.7554  -28.2863  -44.4329 H         1 UNK         0.0849 
     69 H69        15.2634  -30.7403  -45.9003 H         1 UNK         0.0865 
     70 H70        16.0414  -29.2452  -46.3512 H         1 UNK         0.0865 
     71 H71        16.7007  -32.3296  -44.2831 H         1 UNK         0.1346 
     72 H72        20.7891  -32.6277  -45.5347 H         1 UNK         0.1412 
     73 H73        18.3506  -29.3859  -46.9283 H         1 UNK         0.1426 
     74 H74        20.6798  -30.5916  -48.1846 H         1 UNK         0.0716 
     75 H75        21.7916  -30.9717  -46.8916 H         1 UNK         0.0716 
     76 H76        22.5678  -29.1844  -44.9898 H         1 UNK         0.0695 
     77 H77        20.8836  -29.0997  -44.5299 H         1 UNK         0.0695 
     78 H78        22.6728  -26.7045  -45.1796 H         1 UNK         0.0983 
     79 H79        19.8139  -26.8601  -45.0016 H         1 UNK         0.3095 
     80 H80        19.0703  -23.5187  -44.6678 H         1 UNK         0.0454 
     81 H81        19.4077  -24.7250  -47.4675 H         1 UNK         0.0851 
     82 H82        20.0629  -23.1866  -46.9270 H         1 UNK         0.0851 
     83 H83        18.3252  -23.3990  -47.0380 H         1 UNK         0.0851 
     84 H84        17.7038  -25.7003  -45.9781 H         1 UNK         0.2976 
     85 H85        22.0378  -25.1138  -43.0550 H         1 UNK         0.3116 
     86 H86        22.0769  -26.3202  -40.4808 H         1 UNK         0.0646 
     87 H87        21.3326  -23.9874  -40.8615 H         1 UNK         0.0847 
     88 H88        22.9547  -23.5195  -41.3727 H         1 UNK         0.0847 
     89 H89        22.6589  -24.0090  -39.7102 H         1 UNK         0.0847 
     90 H90        23.6308  -27.2968  -39.4223 H         1 UNK         0.3040 
     91 H91        25.5133  -28.0710  -38.6196 H         1 UNK         0.1015 
     92 H92        26.9605  -25.6152  -39.7423 H         1 UNK         0.0786 
     93 H93        27.5317  -26.6774  -38.4679 H         1 UNK         0.0786 
     94 H94        26.1188  -25.6743  -38.1936 H         1 UNK         0.0786 
     95 H95        24.9340  -28.1962  -41.8182 H         1 UNK         0.3172 
     96 H96        27.4456  -29.4135  -42.7257 H         1 UNK         0.0595 
     97 H97        24.6604  -29.3994  -43.9988 H         1 UNK         0.0839 
     98 H98        26.1586  -29.8699  -44.7841 H         1 UNK         0.0839 
     99 H99        25.9150  -28.1971  -44.3034 H         1 UNK         0.0839 
    100 H100       24.6016  -30.3999  -41.0162 H         1 UNK         0.2998 
    101 H101       25.4674  -33.0419  -40.4643 H         1 UNK         0.0822 
    102 H102       24.4439  -33.4853  -42.7484 H         1 UNK         0.0787 
    103 H103       23.4670  -34.2078  -41.4883 H         1 UNK         0.0787 
    104 H104       22.9562  -32.6977  -42.2345 H         1 UNK         0.0787 
    105 H105       23.3447  -34.0482  -39.2219 H         1 UNK         0.3055 
    106 H106       22.5586  -32.2509  -37.1398 H         1 UNK         0.1106 
    107 H107       21.3601  -34.9477  -37.9903 H         1 UNK         0.0828 
    108 H108       21.0449  -34.1262  -36.4687 H         1 UNK         0.0828 
    109 H109       22.6602  -34.7150  -36.8202 H         1 UNK         0.0828 
    110 H110       21.1166  -33.0674  -40.2274 H         1 UNK         0.2931 
    111 H111       18.7505  -31.3629  -39.8078 H         1 UNK         0.0412 
    112 H112       21.6476  -29.2779  -41.5785 H         1 UNK         0.3472 
    113 H113       21.9031  -30.5237  -40.3809 H         1 UNK         0.3472 
    114 H114       18.0468  -32.2039  -42.0514 H         1 UNK         0.0970 
    115 H115       18.2243  -33.4538  -40.8608 H         1 UNK         0.0970 
    116 H116       19.4006  -34.6542  -44.6551 H         1 UNK         0.0612 
    117 H117       17.9508  -34.3110  -43.7458 H         1 UNK         0.0612 
@<TRIPOS>BOND
     1    1    2 1    
     2    1   62 1    
     3    1   63 1    
     4    1   64 1    
     5    2    3 2    
     6    2    4 am   BACKBONE|DICT|INTERRES
     7    4    5 1    
     8    4   65 1    
     9    5    6 1    
    10    5   25 1    
    11    5   66 1    
    12    6    7 1    
    13    6   67 1    
    14    6   68 1    
    15    7    8 1    
    16    8    9 1    
    17    8   69 1    
    18    8   70 1    
    19    9   10 ar   
    20    9   14 ar   
    21   10   11 ar   
    22   10   71 1    
    23   11   12 ar   
    24   11   61 1    
    25   12   13 ar   
    26   12   72 1    
    27   13   14 ar   
    28   13   15 1    
    29   14   73 1    
    30   15   16 1    
    31   15   74 1    
    32   15   75 1    
    33   16   17 1    
    34   17   18 1    
    35   17   76 1    
    36   17   77 1    
    37   18   19 1    
    38   18   27 1    
    39   18   78 1    
    40   19   20 am   BACKBONE|DICT|INTERRES
    41   19   79 1    
    42   20   21 2    
    43   20   22 1    
    44   22   23 1    
    45   22   24 1    
    46   22   80 1    
    47   23   81 1    
    48   23   82 1    
    49   23   83 1    
    50   24   25 am   BACKBONE|DICT|INTERRES
    51   24   84 1    
    52   25   26 2    
    53   27   28 2    
    54   27   29 am   BACKBONE|DICT|INTERRES
    55   29   30 1    
    56   29   85 1    
    57   30   31 1    
    58   30   32 1    
    59   30   86 1    
    60   31   87 1    
    61   31   88 1    
    62   31   89 1    
    63   32   33 2    
    64   32   34 am   BACKBONE|DICT|INTERRES
    65   34   35 1    
    66   34   90 1    
    67   35   36 1    
    68   35   37 1    
    69   35   91 1    
    70   36   92 1    
    71   36   93 1    
    72   36   94 1    
    73   37   38 2    
    74   37   39 am   BACKBONE|DICT|INTERRES
    75   39   40 1    
    76   39   95 1    
    77   40   41 1    
    78   40   42 1    
    79   40   96 1    
    80   41   97 1    
    81   41   98 1    
    82   41   99 1    
    83   42   43 2    
    84   42   44 am   BACKBONE|DICT|INTERRES
    85   44   45 1    
    86   44  100 1    
    87   45   46 1    
    88   45   47 1    
    89   45  101 1    
    90   46  102 1    
    91   46  103 1    
    92   46  104 1    
    93   47   48 2    
    94   47   49 am   BACKBONE|DICT|INTERRES
    95   49   50 1    
    96   49  105 1    
    97   50   51 1    
    98   50   52 1    
    99   50  106 1    
   100   51  107 1    
   101   51  108 1    
   102   51  109 1    
   103   52   53 2    
   104   52   54 am   BACKBONE|DICT|INTERRES
   105   54   55 1    
   106   54  110 1    
   107   55   56 1    
   108   55   59 1    
   109   55  111 1    
   110   56   57 am   BACKBONE|DICT|INTERRES
   111   56   58 2    
   112   57  112 1    
   113   57  113 1    
   114   59   60 1    
   115   59  114 1    
   116   59  115 1    
   117   60   61 1    
   118   61  116 1    
   119   61  117 1    
@<TRIPOS>SUBSTRUCTURE
     1 UNK         1 GROUP             0       ****    0 ROOT    
