@<TRIPOS>MOLECULE
3R8
117   119    1
SMALL
USER_CHARGES


@<TRIPOS>ATOM
      1 CA         16.1839  -22.0073  -45.9129 C.3       0 UNK        -0.2013 
      2 C          17.0016  -23.2247  -46.3188 C.2       0 UNK         0.4866 
      3 O          17.8872  -23.1104  -47.1674 O.2       0 UNK        -0.5176 
      4 N          16.7053  -24.3882  -45.7254 N.am      1 UNK        -0.4884 
      5 CA         17.4314  -25.6460  -45.9364 C.3       1 UNK         0.0853 
      6 C6         16.4856  -26.8673  -45.7873 C.3       10 UNK        -0.0849 
      7 S7         16.9829  -28.2645  -46.8558 S.3       10 UNK        -0.2776 
      8 C8         16.3164  -29.6977  -45.9515 C.3       10 UNK         0.0316 
      9 C9         17.1435  -30.0143  -44.7154 C.ar      10 UNK        -0.0863 
     10 C10        18.3134  -30.7687  -44.8232 C.ar      10 UNK        -0.1009 
     11 C11        19.0789  -31.0558  -43.6893 C.ar      10 UNK        -0.0712 
     12 C12        18.6790  -30.5655  -42.4410 C.ar      10 UNK        -0.0894 
     13 C13        17.5087  -29.8075  -42.3215 C.ar      10 UNK        -0.0745 
     14 C14        16.7362  -29.5591  -43.4606 C.ar      10 UNK        -0.0972 
     15 C15        17.0509  -29.2825  -40.9656 C.3       10 UNK         0.0209 
     16 S16        16.6113  -27.5102  -41.0254 S.3       10 UNK        -0.2568 
     17 C17        18.0392  -26.6457  -40.2902 C.3       10 UNK        -0.0983 
     18 CA         19.4480  -27.0597  -40.7858 C.3       3 UNK         0.0876 
     19 N          19.5799  -27.0111  -42.2471 N.am      3 UNK        -0.4424 
     20 C          20.6958  -27.3021  -42.9328 C.2       2 UNK         0.4918 
     21 O          21.7295  -27.7022  -42.3925 O.2       2 UNK        -0.4875 
     22 CA         20.6952  -27.1099  -44.4653 C.3       2 UNK         0.0481 
     23 CB         21.3655  -28.2975  -45.1782 C.3       2 UNK        -0.1831 
     24 N          19.3881  -26.8658  -45.0876 N.am      2 UNK        -0.4498 
     25 C          18.6862  -25.7268  -45.0324 C.2       1 UNK         0.5027 
     26 O          19.0028  -24.7762  -44.3131 O.2       1 UNK        -0.4969 
     27 C          20.5043  -26.1658  -40.1009 C.2       3 UNK         0.5005 
     28 O          20.7417  -25.0452  -40.5597 O.2       3 UNK        -0.5279 
     29 N          21.1320  -26.6858  -39.0368 N.am      4 UNK        -0.4463 
     30 CA         22.2444  -26.1156  -38.2577 C.3       4 UNK         0.0283 
     31 CB         21.8539  -24.7785  -37.5981 C.3       4 UNK        -0.1875 
     32 C          23.5736  -25.9844  -39.0298 C.2       4 UNK         0.4949 
     33 O          24.6233  -26.2771  -38.4582 O.2       4 UNK        -0.5039 
     34 N          23.5147  -25.5637  -40.2997 N.am      5 UNK        -0.4663 
     35 CA         24.6545  -25.3975  -41.2048 C.3       5 UNK         0.0242 
     36 CB         24.1830  -24.6997  -42.4913 C.3       5 UNK        -0.1982 
     37 C          25.3603  -26.7226  -41.5345 C.2       5 UNK         0.5017 
     38 O          26.5905  -26.7757  -41.5095 O.2       5 UNK        -0.5012 
     39 N          24.5709  -27.7645  -41.8173 N.am      6 UNK        -0.4439 
     40 CA         25.0290  -29.1243  -42.0870 C.3       6 UNK         0.0297 
     41 CB         25.4809  -29.2593  -43.5554 C.3       6 UNK        -0.2006 
     42 C          23.8995  -30.0882  -41.7095 C.2       6 UNK         0.4892 
     43 O          23.4395  -30.8581  -42.5518 O.2       6 UNK        -0.5089 
     44 N          23.4550  -29.9988  -40.4463 N.am      7 UNK        -0.4243 
     45 CA         22.2643  -30.6561  -39.8894 C.3       7 UNK         0.0196 
     46 CB         22.1358  -30.2764  -38.4052 C.3       7 UNK        -0.2007 
     47 C          22.2098  -32.1878  -40.0382 C.2       7 UNK         0.5020 
     48 O          21.1149  -32.7486  -40.0530 O.2       7 UNK        -0.5147 
     49 N          23.3779  -32.8342  -40.1481 N.am      8 UNK        -0.4734 
     50 CA         23.5167  -34.2709  -40.4048 C.3       8 UNK         0.0238 
     51 CB         24.9499  -34.7022  -40.0504 C.3       8 UNK        -0.1912 
     52 C          23.1724  -34.6807  -41.8511 C.2       8 UNK         0.5038 
     53 O          23.0015  -35.8746  -42.1010 O.2       8 UNK        -0.5046 
     54 N          23.0959  -33.7056  -42.7688 N.am      9 UNK        -0.4200 
     55 CA         22.8068  -33.8669  -44.2031 C.3       9 UNK         0.0839 
     56 C          23.9341  -34.5754  -45.0146 C.2       9 UNK         0.5513 
     57 N          25.1550  -34.6764  -44.5022 N.am      9 UNK        -0.7519 
     58 O          23.7116  -35.0146  -46.1402 O.2       9 UNK        -0.4960 
     59 C59        21.3965  -34.4682  -44.4896 C.3       10 UNK        -0.0876 
     60 S60        19.9777  -33.6638  -43.6574 S.3       10 UNK        -0.2414 
     61 C61        20.3410  -31.8900  -43.8272 C.3       10 UNK         0.0169 
     62 H62        15.6814  -21.5854  -46.7830 H         1 UNK         0.0903 
     63 H63        15.4254  -22.2535  -45.1700 H         1 UNK         0.0903 
     64 H64        16.8354  -21.2423  -45.4912 H         1 UNK         0.0903 
     65 H65        15.9940  -24.4079  -45.0082 H         1 UNK         0.3096 
     66 H66        17.8035  -25.6359  -46.9640 H         1 UNK         0.1121 
     67 H67        16.4039  -27.1730  -44.7443 H         1 UNK         0.0849 
     68 H68        15.4726  -26.5990  -46.0928 H         1 UNK         0.0849 
     69 H69        15.2740  -29.5130  -45.6863 H         1 UNK         0.0865 
     70 H70        16.3100  -30.5628  -46.6163 H         1 UNK         0.0865 
     71 H71        18.6272  -31.1360  -45.7909 H         1 UNK         0.1346 
     72 H72        19.2732  -30.7876  -41.5655 H         1 UNK         0.1412 
     73 H73        15.8187  -28.9941  -43.3692 H         1 UNK         0.1426 
     74 H74        17.7952  -29.4640  -40.1897 H         1 UNK         0.0716 
     75 H75        16.1642  -29.8438  -40.6682 H         1 UNK         0.0716 
     76 H76        17.9716  -26.7796  -39.2086 H         1 UNK         0.0695 
     77 H77        17.8794  -25.5797  -40.4670 H         1 UNK         0.0695 
     78 H78        19.6400  -28.0927  -40.4932 H         1 UNK         0.0983 
     79 H79        18.7872  -26.6484  -42.7538 H         1 UNK         0.3095 
     80 H80        21.3140  -26.2303  -44.6530 H         1 UNK         0.0454 
     81 H81        20.7921  -29.2140  -45.0522 H         1 UNK         0.0851 
     82 H82        22.3657  -28.4857  -44.7869 H         1 UNK         0.0851 
     83 H83        21.4713  -28.1119  -46.2469 H         1 UNK         0.0851 
     84 H84        19.0154  -27.6177  -45.6540 H         1 UNK         0.2976 
     85 H85        20.8532  -27.6114  -38.7440 H         1 UNK         0.3116 
     86 H86        22.4277  -26.8272  -37.4509 H         1 UNK         0.0646 
     87 H87        21.6838  -23.9912  -38.3330 H         1 UNK         0.0847 
     88 H88        22.6446  -24.4299  -36.9325 H         1 UNK         0.0847 
     89 H89        20.9488  -24.8801  -36.9996 H         1 UNK         0.0847 
     90 H90        22.5936  -25.3247  -40.6602 H         1 UNK         0.3040 
     91 H91        25.3822  -24.7513  -40.7089 H         1 UNK         0.1015 
     92 H92        23.4224  -25.2828  -43.0125 H         1 UNK         0.0786 
     93 H93        25.0136  -24.5523  -43.1830 H         1 UNK         0.0786 
     94 H94        23.7618  -23.7172  -42.2772 H         1 UNK         0.0786 
     95 H95        23.5605  -27.6313  -41.8460 H         1 UNK         0.3172 
     96 H96        25.8767  -29.3568  -41.4390 H         1 UNK         0.0595 
     97 H97        25.8105  -30.2764  -43.7709 H         1 UNK         0.0839 
     98 H98        26.3161  -28.5954  -43.7783 H         1 UNK         0.0839 
     99 H99        24.6724  -29.0240  -44.2476 H         1 UNK         0.0839 
    100 H100       23.9252  -29.3448  -39.8371 H         1 UNK         0.2998 
    101 H101       21.4046  -30.2512  -40.4269 H         1 UNK         0.0822 
    102 H102       21.2109  -30.6690  -37.9796 H         1 UNK         0.0787 
    103 H103       22.9608  -30.6797  -37.8163 H         1 UNK         0.0787 
    104 H104       22.1261  -29.1979  -38.2627 H         1 UNK         0.0787 
    105 H105       24.2274  -32.2892  -40.1168 H         1 UNK         0.3055 
    106 H106       22.8249  -34.8053  -39.7496 H         1 UNK         0.1106 
    107 H107       25.0838  -35.7747  -40.1994 H         1 UNK         0.0828 
    108 H108       25.6908  -34.1932  -40.6681 H         1 UNK         0.0828 
    109 H109       25.1809  -34.4927  -39.0058 H         1 UNK         0.0828 
    110 H110       23.2548  -32.7448  -42.4777 H         1 UNK         0.2931 
    111 H111       22.8136  -32.8520  -44.5989 H         1 UNK         0.0412 
    112 H112       25.3562  -34.3069  -43.5873 H         1 UNK         0.3472 
    113 H113       25.8806  -35.1267  -45.0379 H         1 UNK         0.3472 
    114 H114       21.1919  -34.4352  -45.5612 H         1 UNK         0.0970 
    115 H115       21.3799  -35.5259  -44.2224 H         1 UNK         0.0970 
    116 H116       21.0635  -31.5974  -43.0670 H         1 UNK         0.0612 
    117 H117       20.8020  -31.6978  -44.7968 H         1 UNK         0.0612 
@<TRIPOS>BOND
     1    1    2 1    
     2    1   62 1    
     3    1   63 1    
     4    1   64 1    
     5    2    3 2    
     6    2    4 am   BACKBONE|DICT|INTERRES
     7    4    5 1    
     8    4   65 1    
     9    5    6 1    
    10    5   25 1    
    11    5   66 1    
    12    6    7 1    
    13    6   67 1    
    14    6   68 1    
    15    7    8 1    
    16    8    9 1    
    17    8   69 1    
    18    8   70 1    
    19    9   10 ar   
    20    9   14 ar   
    21   10   11 ar   
    22   10   71 1    
    23   11   12 ar   
    24   11   61 1    
    25   12   13 ar   
    26   12   72 1    
    27   13   14 ar   
    28   13   15 1    
    29   14   73 1    
    30   15   16 1    
    31   15   74 1    
    32   15   75 1    
    33   16   17 1    
    34   17   18 1    
    35   17   76 1    
    36   17   77 1    
    37   18   19 1    
    38   18   27 1    
    39   18   78 1    
    40   19   20 am   BACKBONE|DICT|INTERRES
    41   19   79 1    
    42   20   21 2    
    43   20   22 1    
    44   22   23 1    
    45   22   24 1    
    46   22   80 1    
    47   23   81 1    
    48   23   82 1    
    49   23   83 1    
    50   24   25 am   BACKBONE|DICT|INTERRES
    51   24   84 1    
    52   25   26 2    
    53   27   28 2    
    54   27   29 am   BACKBONE|DICT|INTERRES
    55   29   30 1    
    56   29   85 1    
    57   30   31 1    
    58   30   32 1    
    59   30   86 1    
    60   31   87 1    
    61   31   88 1    
    62   31   89 1    
    63   32   33 2    
    64   32   34 am   BACKBONE|DICT|INTERRES
    65   34   35 1    
    66   34   90 1    
    67   35   36 1    
    68   35   37 1    
    69   35   91 1    
    70   36   92 1    
    71   36   93 1    
    72   36   94 1    
    73   37   38 2    
    74   37   39 am   BACKBONE|DICT|INTERRES
    75   39   40 1    
    76   39   95 1    
    77   40   41 1    
    78   40   42 1    
    79   40   96 1    
    80   41   97 1    
    81   41   98 1    
    82   41   99 1    
    83   42   43 2    
    84   42   44 am   BACKBONE|DICT|INTERRES
    85   44   45 1    
    86   44  100 1    
    87   45   46 1    
    88   45   47 1    
    89   45  101 1    
    90   46  102 1    
    91   46  103 1    
    92   46  104 1    
    93   47   48 2    
    94   47   49 am   BACKBONE|DICT|INTERRES
    95   49   50 1    
    96   49  105 1    
    97   50   51 1    
    98   50   52 1    
    99   50  106 1    
   100   51  107 1    
   101   51  108 1    
   102   51  109 1    
   103   52   53 2    
   104   52   54 am   BACKBONE|DICT|INTERRES
   105   54   55 1    
   106   54  110 1    
   107   55   56 1    
   108   55   59 1    
   109   55  111 1    
   110   56   57 am   BACKBONE|DICT|INTERRES
   111   56   58 2    
   112   57  112 1    
   113   57  113 1    
   114   59   60 1    
   115   59  114 1    
   116   59  115 1    
   117   60   61 1    
   118   61  116 1    
   119   61  117 1    
@<TRIPOS>SUBSTRUCTURE
     1 UNK         1 GROUP             0       ****    0 ROOT    
