@<TRIPOS>MOLECULE
3R8
117   119    1
SMALL
USER_CHARGES


@<TRIPOS>ATOM
      1 CA         17.2537  -27.9582  -49.3196 C.3       0 UNK        -0.2013 
      2 C          17.0176  -27.0948  -48.0892 C.2       0 UNK         0.4866 
      3 O          16.5511  -25.9629  -48.2206 O.2       0 UNK        -0.5176 
      4 N          17.3334  -27.6250  -46.8993 N.am      1 UNK        -0.4884 
      5 CA         17.2360  -26.9556  -45.5973 C.3       1 UNK         0.0853 
      6 C6         15.7644  -26.6583  -45.1794 C.3       10 UNK        -0.0849 
      7 S7         15.5266  -26.1433  -43.4374 S.3       10 UNK        -0.2776 
      8 C8         15.4113  -27.7203  -42.5365 C.3       10 UNK         0.0316 
      9 C9         16.7653  -28.1784  -42.0094 C.ar      10 UNK        -0.0863 
     10 C10        17.4036  -29.2876  -42.5712 C.ar      10 UNK        -0.1009 
     11 C11        18.6162  -29.7463  -42.0492 C.ar      10 UNK        -0.0712 
     12 C12        19.1918  -29.0891  -40.9570 C.ar      10 UNK        -0.0894 
     13 C13        18.5654  -27.9770  -40.3843 C.ar      10 UNK        -0.0745 
     14 C14        17.3542  -27.5243  -40.9203 C.ar      10 UNK        -0.0972 
     15 C15        19.1713  -27.2960  -39.1595 C.3       10 UNK         0.0209 
     16 S16        20.8420  -26.6238  -39.4578 S.3       10 UNK        -0.2568 
     17 C17        20.4945  -25.2275  -40.5791 C.3       10 UNK        -0.0983 
     18 CA         20.5490  -25.6654  -42.0652 C.3       3 UNK         0.0876 
     19 N          19.5528  -24.9869  -42.8919 N.am      3 UNK        -0.4424 
     20 C          19.6176  -23.7662  -43.4422 C.2       2 UNK         0.4918 
     21 O          20.4668  -22.9238  -43.1503 O.2       2 UNK        -0.4875 
     22 CA         18.5742  -23.4551  -44.5408 C.3       2 UNK         0.0481 
     23 CB         19.2200  -22.7649  -45.7597 C.3       2 UNK        -0.1831 
     24 N          17.7889  -24.6285  -44.9640 N.am      2 UNK        -0.4498 
     25 C          18.2323  -25.7746  -45.5075 C.2       1 UNK         0.5027 
     26 O          19.4090  -25.9625  -45.8295 O.2       1 UNK        -0.4969 
     27 C          21.9584  -25.6808  -42.7043 C.2       3 UNK         0.5005 
     28 O          22.9627  -25.5335  -42.0060 O.2       3 UNK        -0.5279 
     29 N          22.0058  -25.8591  -44.0363 N.am      4 UNK        -0.4463 
     30 CA         23.2427  -25.9572  -44.8164 C.3       4 UNK         0.0283 
     31 CB         22.9115  -25.8738  -46.3148 C.3       4 UNK        -0.1875 
     32 C          24.0307  -27.2394  -44.5013 C.2       4 UNK         0.4949 
     33 O          25.2581  -27.1977  -44.4188 O.2       4 UNK        -0.5039 
     34 N          23.3049  -28.3437  -44.2869 N.am      5 UNK        -0.4663 
     35 CA         23.8364  -29.6262  -43.8313 C.3       5 UNK         0.0242 
     36 CB         23.1418  -30.7599  -44.6072 C.3       5 UNK        -0.1982 
     37 C          23.6487  -29.7329  -42.3092 C.2       5 UNK         0.5017 
     38 O          22.8839  -30.5718  -41.8322 O.2       5 UNK        -0.5012 
     39 N          24.3396  -28.8548  -41.5692 N.am      6 UNK        -0.4439 
     40 CA         24.2655  -28.7346  -40.1076 C.3       6 UNK         0.0297 
     41 CB         25.0823  -27.5135  -39.6572 C.3       6 UNK        -0.2006 
     42 C          24.7080  -29.9924  -39.3357 C.2       6 UNK         0.4892 
     43 O          24.2846  -30.1774  -38.1936 O.2       6 UNK        -0.5089 
     44 N          25.5207  -30.8498  -39.9694 N.am      7 UNK        -0.4243 
     45 CA         25.9561  -32.1543  -39.4658 C.3       7 UNK         0.0196 
     46 CB         27.2275  -32.5778  -40.2250 C.3       7 UNK        -0.2007 
     47 C          24.8326  -33.2084  -39.5574 C.2       7 UNK         0.5020 
     48 O          24.9758  -34.2060  -40.2668 O.2       7 UNK        -0.5147 
     49 N          23.7217  -32.9479  -38.8532 N.am      8 UNK        -0.4734 
     50 CA         22.5263  -33.7917  -38.7032 C.3       8 UNK         0.0238 
     51 CB         22.8499  -35.0046  -37.8049 C.3       8 UNK        -0.1912 
     52 C          21.8667  -34.2062  -40.0360 C.2       8 UNK         0.5038 
     53 O          21.3108  -35.3030  -40.1250 O.2       8 UNK        -0.5046 
     54 N          21.9505  -33.3305  -41.0466 N.am      9 UNK        -0.4200 
     55 CA         21.4791  -33.5501  -42.4232 C.3       9 UNK         0.0839 
     56 C          22.2739  -34.6324  -43.2147 C.2       9 UNK         0.5513 
     57 N          23.4578  -35.0445  -42.7741 N.am      9 UNK        -0.7519 
     58 O          21.8281  -35.0851  -44.2660 O.2       9 UNK        -0.4960 
     59 C59        19.9346  -33.7152  -42.5439 C.3       10 UNK        -0.0876 
     60 S60        18.9749  -32.4465  -41.6451 S.3       10 UNK        -0.2414 
     61 C61        19.2976  -30.9648  -42.6488 C.3       10 UNK         0.0169 
     62 H62        17.9574  -27.4678  -49.9918 H         1 UNK         0.0903 
     63 H63        17.6576  -28.9370  -49.0614 H         1 UNK         0.0903 
     64 H64        16.3178  -28.1091  -49.8571 H         1 UNK         0.0903 
     65 H65        17.7436  -28.5487  -46.8742 H         1 UNK         0.3096 
     66 H66        17.6208  -27.6843  -44.8838 H         1 UNK         0.1121 
     67 H67        15.1502  -27.5424  -45.3569 H         1 UNK         0.0849 
     68 H68        15.3386  -25.8840  -45.8198 H         1 UNK         0.0849 
     69 H69        14.7340  -27.5869  -41.6915 H         1 UNK         0.0865 
     70 H70        14.9526  -28.4835  -43.1669 H         1 UNK         0.0865 
     71 H71        16.9478  -29.8082  -43.4025 H         1 UNK         0.1346 
     72 H72        20.1242  -29.4526  -40.5451 H         1 UNK         0.1412 
     73 H73        16.8539  -26.6735  -40.4775 H         1 UNK         0.1426 
     74 H74        18.5242  -26.4970  -38.7945 H         1 UNK         0.0716 
     75 H75        19.2329  -28.0275  -38.3527 H         1 UNK         0.0716 
     76 H76        21.1904  -24.4116  -40.3767 H         1 UNK         0.0695 
     77 H77        19.5064  -24.8369  -40.3305 H         1 UNK         0.0695 
     78 H78        20.2397  -26.7089  -42.1150 H         1 UNK         0.0983 
     79 H79        18.7759  -25.5641  -43.1763 H         1 UNK         0.3095 
     80 H80        17.8627  -22.7568  -44.0981 H         1 UNK         0.0454 
     81 H81        20.0017  -23.3787  -46.2082 H         1 UNK         0.0851 
     82 H82        19.6776  -21.8164  -45.4761 H         1 UNK         0.0851 
     83 H83        18.4807  -22.5478  -46.5306 H         1 UNK         0.0851 
     84 H84        16.8139  -24.6111  -44.6887 H         1 UNK         0.2976 
     85 H85        21.1362  -25.9314  -44.5543 H         1 UNK         0.3116 
     86 H86        23.8742  -25.1044  -44.5582 H         1 UNK         0.0646 
     87 H87        22.4142  -24.9348  -46.5590 H         1 UNK         0.0847 
     88 H88        23.8185  -25.9265  -46.9187 H         1 UNK         0.0847 
     89 H89        22.2591  -26.6882  -46.6327 H         1 UNK         0.0847 
     90 H90        22.2996  -28.2688  -44.3424 H         1 UNK         0.3040 
     91 H91        24.9074  -29.6928  -44.0369 H         1 UNK         0.1015 
     92 H92        23.5176  -31.7341  -44.2919 H         1 UNK         0.0786 
     93 H93        22.0619  -30.7543  -44.4590 H         1 UNK         0.0786 
     94 H94        23.3296  -30.6753  -45.6776 H         1 UNK         0.0786 
     95 H95        24.9154  -28.1773  -42.0514 H         1 UNK         0.3172 
     96 H96        23.2193  -28.5560  -39.8516 H         1 UNK         0.0595 
     97 H97        26.1368  -27.6126  -39.9176 H         1 UNK         0.0839 
     98 H98        25.0234  -27.3818  -38.5758 H         1 UNK         0.0839 
     99 H99        24.7063  -26.5964  -40.1115 H         1 UNK         0.0839 
    100 H100       25.7956  -30.6201  -40.9128 H         1 UNK         0.2998 
    101 H101       26.2175  -32.0520  -38.4102 H         1 UNK         0.0822 
    102 H102       27.6025  -33.5334  -39.8556 H         1 UNK         0.0787 
    103 H103       27.0418  -32.6916  -41.2939 H         1 UNK         0.0787 
    104 H104       28.0273  -31.8479  -40.0985 H         1 UNK         0.0787 
    105 H105       23.7009  -32.0579  -38.3614 H         1 UNK         0.3055 
    106 H106       21.7837  -33.1836  -38.1839 H         1 UNK         0.1106 
    107 H107       21.9496  -35.5746  -37.5721 H         1 UNK         0.0828 
    108 H108       23.5514  -35.6861  -38.2876 H         1 UNK         0.0828 
    109 H109       23.2851  -34.6917  -36.8559 H         1 UNK         0.0828 
    110 H110       22.4270  -32.4486  -40.8998 H         1 UNK         0.2931 
    111 H111       21.7264  -32.6297  -42.9448 H         1 UNK         0.0412 
    112 H112       23.9649  -35.7367  -43.3022 H         1 UNK         0.3472 
    113 H113       23.8478  -34.6885  -41.9078 H         1 UNK         0.3472 
    114 H114       19.6317  -34.6933  -42.1669 H         1 UNK         0.0970 
    115 H115       19.6300  -33.6931  -43.5918 H         1 UNK         0.0970 
    116 H116       20.3698  -30.7811  -42.7009 H         1 UNK         0.0612 
    117 H117       18.9580  -31.1353  -43.6715 H         1 UNK         0.0612 
@<TRIPOS>BOND
     1    1    2 1    
     2    1   62 1    
     3    1   63 1    
     4    1   64 1    
     5    2    3 2    
     6    2    4 am   BACKBONE|DICT|INTERRES
     7    4    5 1    
     8    4   65 1    
     9    5    6 1    
    10    5   25 1    
    11    5   66 1    
    12    6    7 1    
    13    6   67 1    
    14    6   68 1    
    15    7    8 1    
    16    8    9 1    
    17    8   69 1    
    18    8   70 1    
    19    9   10 ar   
    20    9   14 ar   
    21   10   11 ar   
    22   10   71 1    
    23   11   12 ar   
    24   11   61 1    
    25   12   13 ar   
    26   12   72 1    
    27   13   14 ar   
    28   13   15 1    
    29   14   73 1    
    30   15   16 1    
    31   15   74 1    
    32   15   75 1    
    33   16   17 1    
    34   17   18 1    
    35   17   76 1    
    36   17   77 1    
    37   18   19 1    
    38   18   27 1    
    39   18   78 1    
    40   19   20 am   BACKBONE|DICT|INTERRES
    41   19   79 1    
    42   20   21 2    
    43   20   22 1    
    44   22   23 1    
    45   22   24 1    
    46   22   80 1    
    47   23   81 1    
    48   23   82 1    
    49   23   83 1    
    50   24   25 am   BACKBONE|DICT|INTERRES
    51   24   84 1    
    52   25   26 2    
    53   27   28 2    
    54   27   29 am   BACKBONE|DICT|INTERRES
    55   29   30 1    
    56   29   85 1    
    57   30   31 1    
    58   30   32 1    
    59   30   86 1    
    60   31   87 1    
    61   31   88 1    
    62   31   89 1    
    63   32   33 2    
    64   32   34 am   BACKBONE|DICT|INTERRES
    65   34   35 1    
    66   34   90 1    
    67   35   36 1    
    68   35   37 1    
    69   35   91 1    
    70   36   92 1    
    71   36   93 1    
    72   36   94 1    
    73   37   38 2    
    74   37   39 am   BACKBONE|DICT|INTERRES
    75   39   40 1    
    76   39   95 1    
    77   40   41 1    
    78   40   42 1    
    79   40   96 1    
    80   41   97 1    
    81   41   98 1    
    82   41   99 1    
    83   42   43 2    
    84   42   44 am   BACKBONE|DICT|INTERRES
    85   44   45 1    
    86   44  100 1    
    87   45   46 1    
    88   45   47 1    
    89   45  101 1    
    90   46  102 1    
    91   46  103 1    
    92   46  104 1    
    93   47   48 2    
    94   47   49 am   BACKBONE|DICT|INTERRES
    95   49   50 1    
    96   49  105 1    
    97   50   51 1    
    98   50   52 1    
    99   50  106 1    
   100   51  107 1    
   101   51  108 1    
   102   51  109 1    
   103   52   53 2    
   104   52   54 am   BACKBONE|DICT|INTERRES
   105   54   55 1    
   106   54  110 1    
   107   55   56 1    
   108   55   59 1    
   109   55  111 1    
   110   56   57 am   BACKBONE|DICT|INTERRES
   111   56   58 2    
   112   57  112 1    
   113   57  113 1    
   114   59   60 1    
   115   59  114 1    
   116   59  115 1    
   117   60   61 1    
   118   61  116 1    
   119   61  117 1    
@<TRIPOS>SUBSTRUCTURE
     1 UNK         1 GROUP             0       ****    0 ROOT    
