@<TRIPOS>MOLECULE
3R8
117   119    1
SMALL
USER_CHARGES


@<TRIPOS>ATOM
      1 CA         20.6499  -23.6362  -40.0173 C.3       0 UNK        -0.2013 
      2 C          19.4163  -24.4178  -40.4443 C.2       0 UNK         0.4866 
      3 O          18.4165  -24.4308  -39.7261 O.2       0 UNK        -0.5176 
      4 N          19.4882  -25.0707  -41.6060 N.am      1 UNK        -0.4884 
      5 CA         18.4209  -25.8587  -42.2214 C.3       1 UNK         0.0853 
      6 C6         18.7541  -27.3705  -42.0904 C.3       10 UNK        -0.0849 
      7 S7         17.3609  -28.4980  -42.4336 S.3       10 UNK        -0.2776 
      8 C8         18.0913  -30.0940  -41.9513 C.3       10 UNK         0.0316 
      9 C9         18.6986  -30.8522  -43.1273 C.ar      10 UNK        -0.0863 
     10 C10        18.0303  -31.9666  -43.6394 C.ar      10 UNK        -0.1009 
     11 C11        18.6051  -32.7401  -44.6505 C.ar      10 UNK        -0.0712 
     12 C12        19.8370  -32.3627  -45.1909 C.ar      10 UNK        -0.0894 
     13 C13        20.5235  -31.2530  -44.6891 C.ar      10 UNK        -0.0745 
     14 C14        19.9476  -30.5024  -43.6568 C.ar      10 UNK        -0.0972 
     15 C15        21.9180  -30.9296  -45.2161 C.3       10 UNK         0.0209 
     16 S16        21.9451  -29.4918  -46.3304 S.3       10 UNK        -0.2568 
     17 C17        22.4512  -28.1598  -45.1886 C.3       10 UNK        -0.0983 
     18 CA         21.8460  -26.7890  -45.5749 C.3       3 UNK         0.0876 
     19 N          20.3896  -26.8360  -45.6135 N.am      3 UNK        -0.4424 
     20 C          19.6015  -26.0761  -46.3836 C.2       2 UNK         0.4918 
     21 O          20.0084  -25.3455  -47.2870 O.2       2 UNK        -0.4875 
     22 CA         18.0996  -26.1076  -46.0370 C.3       2 UNK         0.0481 
     23 CB         17.3955  -27.2522  -46.7823 C.3       2 UNK        -0.1831 
     24 N          17.8953  -26.2647  -44.5932 N.am      2 UNK        -0.4498 
     25 C          18.2760  -25.3637  -43.6769 C.2       1 UNK         0.5027 
     26 O          18.5615  -24.1967  -43.9621 O.2       1 UNK        -0.4969 
     27 C          22.2652  -25.7169  -44.5511 C.2       3 UNK         0.5005 
     28 O          21.7484  -25.7131  -43.4280 O.2       3 UNK        -0.5279 
     29 N          23.2238  -24.8580  -44.9250 N.am      4 UNK        -0.4463 
     30 CA         23.7607  -23.7865  -44.0736 C.3       4 UNK         0.0283 
     31 CB         24.6596  -22.8682  -44.9169 C.3       4 UNK        -0.1875 
     32 C          24.5248  -24.2949  -42.8360 C.2       4 UNK         0.4949 
     33 O          24.6014  -23.5820  -41.8362 O.2       4 UNK        -0.5039 
     34 N          25.0500  -25.5252  -42.9153 N.am      5 UNK        -0.4663 
     35 CA         25.7312  -26.2323  -41.8264 C.3       5 UNK         0.0242 
     36 CB         26.6020  -27.3437  -42.4385 C.3       5 UNK        -0.1982 
     37 C          24.7752  -26.8204  -40.7685 C.2       5 UNK         0.5017 
     38 O          25.2561  -27.4048  -39.7962 O.2       5 UNK        -0.5012 
     39 N          23.4559  -26.6953  -40.9816 N.am      6 UNK        -0.4439 
     40 CA         22.3501  -27.2617  -40.2035 C.3       6 UNK         0.0297 
     41 CB         22.3766  -26.8396  -38.7206 C.3       6 UNK        -0.2006 
     42 C          22.2418  -28.7813  -40.3839 C.2       6 UNK         0.4892 
     43 O          21.2610  -29.2331  -40.9660 O.2       6 UNK        -0.5089 
     44 N          23.2478  -29.5338  -39.9168 N.am      7 UNK        -0.4243 
     45 CA         23.5010  -30.9756  -40.0957 C.3       7 UNK         0.0196 
     46 CB         23.7869  -31.2773  -41.5780 C.3       7 UNK        -0.2007 
     47 C          22.4390  -31.9644  -39.5672 C.2       7 UNK         0.5020 
     48 O          22.8058  -33.0857  -39.2146 O.2       7 UNK        -0.5147 
     49 N          21.1565  -31.5766  -39.5650 N.am      8 UNK        -0.4734 
     50 CA         19.9712  -32.3714  -39.2033 C.3       8 UNK         0.0238 
     51 CB         19.9701  -32.6874  -37.6927 C.3       8 UNK        -0.1912 
     52 C          19.7915  -33.6333  -40.0759 C.2       8 UNK         0.5038 
     53 O          19.2655  -34.6410  -39.6003 O.2       8 UNK        -0.5046 
     54 N          20.2487  -33.5538  -41.3328 N.am      9 UNK        -0.4200 
     55 CA         20.3377  -34.6561  -42.3031 C.3       9 UNK         0.0839 
     56 C          21.3766  -35.7624  -41.9381 C.2       9 UNK         0.5513 
     57 N          22.2865  -35.5381  -40.9957 N.am      9 UNK        -0.7519 
     58 O          21.3830  -36.8351  -42.5363 O.2       9 UNK        -0.4960 
     59 C59        18.9396  -35.2160  -42.7172 C.3       10 UNK        -0.0876 
     60 S60        18.8139  -35.5084  -44.5193 S.3       10 UNK        -0.2414 
     61 C61        17.9263  -34.0237  -45.1061 C.3       10 UNK         0.0169 
     62 H62        20.8865  -23.8454  -38.9746 H         1 UNK         0.0903 
     63 H63        21.5221  -23.8928  -40.6196 H         1 UNK         0.0903 
     64 H64        20.4686  -22.5664  -40.1167 H         1 UNK         0.0903 
     65 H65        20.3243  -25.0001  -42.1809 H         1 UNK         0.3096 
     66 H66        17.4690  -25.6561  -41.7255 H         1 UNK         0.1121 
     67 H67        19.6121  -27.6338  -42.7097 H         1 UNK         0.0849 
     68 H68        19.0654  -27.5699  -41.0635 H         1 UNK         0.0849 
     69 H69        18.8386  -29.9493  -41.1731 H         1 UNK         0.0865 
     70 H70        17.3068  -30.6934  -41.4869 H         1 UNK         0.0865 
     71 H71        17.0795  -32.2623  -43.2173 H         1 UNK         0.1346 
     72 H72        20.2839  -32.9695  -45.9666 H         1 UNK         0.1412 
     73 H73        20.4852  -29.6611  -43.2514 H         1 UNK         0.1426 
     74 H74        22.3171  -31.7853  -45.7629 H         1 UNK         0.0716 
     75 H75        22.6065  -30.7679  -44.3883 H         1 UNK         0.0716 
     76 H76        23.5416  -28.1112  -45.1979 H         1 UNK         0.0695 
     77 H77        22.1694  -28.4280  -44.1689 H         1 UNK         0.0695 
     78 H78        22.2207  -26.5102  -46.5625 H         1 UNK         0.0983 
     79 H79        19.9562  -27.3925  -44.8948 H         1 UNK         0.3095 
     80 H80        17.6543  -25.1611  -46.3503 H         1 UNK         0.0454 
     81 H81        17.7955  -28.2276  -46.5009 H         1 UNK         0.0851 
     82 H82        17.5200  -27.1481  -47.8610 H         1 UNK         0.0851 
     83 H83        16.3244  -27.2578  -46.5799 H         1 UNK         0.0851 
     84 H84        17.6252  -27.1837  -44.2621 H         1 UNK         0.2976 
     85 H85        23.6035  -24.9234  -45.8594 H         1 UNK         0.3116 
     86 H86        22.9159  -23.1965  -43.7113 H         1 UNK         0.0646 
     87 H87        25.0496  -22.0453  -44.3159 H         1 UNK         0.0847 
     88 H88        24.1094  -22.4254  -45.7473 H         1 UNK         0.0847 
     89 H89        25.5161  -23.4047  -45.3271 H         1 UNK         0.0847 
     90 H90        24.9474  -26.0269  -43.7852 H         1 UNK         0.3040 
     91 H91        26.3854  -25.5272  -41.3085 H         1 UNK         0.1015 
     92 H92        27.3199  -26.9388  -43.1522 H         1 UNK         0.0786 
     93 H93        25.9985  -28.0919  -42.9543 H         1 UNK         0.0786 
     94 H94        27.1750  -27.8630  -41.6689 H         1 UNK         0.0786 
     95 H95        23.1693  -26.2264  -41.8334 H         1 UNK         0.3172 
     96 H96        21.4486  -26.8320  -40.6395 H         1 UNK         0.0595 
     97 H97        23.2126  -27.2758  -38.1742 H         1 UNK         0.0839 
     98 H98        21.4632  -27.1555  -38.2150 H         1 UNK         0.0839 
     99 H99        22.4453  -25.7571  -38.6193 H         1 UNK         0.0839 
    100 H100       24.0060  -29.0197  -39.4794 H         1 UNK         0.2998 
    101 H101       24.4140  -31.1811  -39.5345 H         1 UNK         0.0822 
    102 H102       22.8971  -31.1246  -42.1871 H         1 UNK         0.0787 
    103 H103       24.5801  -30.6408  -41.9706 H         1 UNK         0.0787 
    104 H104       24.1012  -32.3130  -41.7156 H         1 UNK         0.0787 
    105 H105       20.9773  -30.6545  -39.9625 H         1 UNK         0.3055 
    106 H106       19.1033  -31.7429  -39.4070 H         1 UNK         0.1106 
    107 H107       20.7748  -33.3715  -37.4216 H         1 UNK         0.0828 
    108 H108       20.0852  -31.7814  -37.0979 H         1 UNK         0.0828 
    109 H109       19.0319  -33.1542  -37.3900 H         1 UNK         0.0828 
    110 H110       20.6559  -32.6802  -41.6321 H         1 UNK         0.2931 
    111 H111       20.7759  -34.1729  -43.1762 H         1 UNK         0.0412 
    112 H112       22.9553  -36.2608  -40.7815 H         1 UNK         0.3472 
    113 H113       22.3063  -34.6686  -40.4759 H         1 UNK         0.3472 
    114 H114       18.7154  -36.1444  -42.1889 H         1 UNK         0.0970 
    115 H115       18.1428  -34.5313  -42.4261 H         1 UNK         0.0970 
    116 H116       17.8801  -34.0439  -46.1957 H         1 UNK         0.0612 
    117 H117       16.8948  -34.0640  -44.7529 H         1 UNK         0.0612 
@<TRIPOS>BOND
     1    1    2 1    
     2    1   62 1    
     3    1   63 1    
     4    1   64 1    
     5    2    3 2    
     6    2    4 am   BACKBONE|DICT|INTERRES
     7    4    5 1    
     8    4   65 1    
     9    5    6 1    
    10    5   25 1    
    11    5   66 1    
    12    6    7 1    
    13    6   67 1    
    14    6   68 1    
    15    7    8 1    
    16    8    9 1    
    17    8   69 1    
    18    8   70 1    
    19    9   10 ar   
    20    9   14 ar   
    21   10   11 ar   
    22   10   71 1    
    23   11   12 ar   
    24   11   61 1    
    25   12   13 ar   
    26   12   72 1    
    27   13   14 ar   
    28   13   15 1    
    29   14   73 1    
    30   15   16 1    
    31   15   74 1    
    32   15   75 1    
    33   16   17 1    
    34   17   18 1    
    35   17   76 1    
    36   17   77 1    
    37   18   19 1    
    38   18   27 1    
    39   18   78 1    
    40   19   20 am   BACKBONE|DICT|INTERRES
    41   19   79 1    
    42   20   21 2    
    43   20   22 1    
    44   22   23 1    
    45   22   24 1    
    46   22   80 1    
    47   23   81 1    
    48   23   82 1    
    49   23   83 1    
    50   24   25 am   BACKBONE|DICT|INTERRES
    51   24   84 1    
    52   25   26 2    
    53   27   28 2    
    54   27   29 am   BACKBONE|DICT|INTERRES
    55   29   30 1    
    56   29   85 1    
    57   30   31 1    
    58   30   32 1    
    59   30   86 1    
    60   31   87 1    
    61   31   88 1    
    62   31   89 1    
    63   32   33 2    
    64   32   34 am   BACKBONE|DICT|INTERRES
    65   34   35 1    
    66   34   90 1    
    67   35   36 1    
    68   35   37 1    
    69   35   91 1    
    70   36   92 1    
    71   36   93 1    
    72   36   94 1    
    73   37   38 2    
    74   37   39 am   BACKBONE|DICT|INTERRES
    75   39   40 1    
    76   39   95 1    
    77   40   41 1    
    78   40   42 1    
    79   40   96 1    
    80   41   97 1    
    81   41   98 1    
    82   41   99 1    
    83   42   43 2    
    84   42   44 am   BACKBONE|DICT|INTERRES
    85   44   45 1    
    86   44  100 1    
    87   45   46 1    
    88   45   47 1    
    89   45  101 1    
    90   46  102 1    
    91   46  103 1    
    92   46  104 1    
    93   47   48 2    
    94   47   49 am   BACKBONE|DICT|INTERRES
    95   49   50 1    
    96   49  105 1    
    97   50   51 1    
    98   50   52 1    
    99   50  106 1    
   100   51  107 1    
   101   51  108 1    
   102   51  109 1    
   103   52   53 2    
   104   52   54 am   BACKBONE|DICT|INTERRES
   105   54   55 1    
   106   54  110 1    
   107   55   56 1    
   108   55   59 1    
   109   55  111 1    
   110   56   57 am   BACKBONE|DICT|INTERRES
   111   56   58 2    
   112   57  112 1    
   113   57  113 1    
   114   59   60 1    
   115   59  114 1    
   116   59  115 1    
   117   60   61 1    
   118   61  116 1    
   119   61  117 1    
@<TRIPOS>SUBSTRUCTURE
     1 UNK         1 GROUP             0       ****    0 ROOT    
