@<TRIPOS>MOLECULE
3R8
117   119    1
SMALL
USER_CHARGES


@<TRIPOS>ATOM
      1 CA         15.7280  -25.1768  -49.5951 C.3       0 UNK        -0.2013 
      2 C          16.7395  -26.1884  -49.0780 C.2       0 UNK         0.4866 
      3 O          17.8420  -26.2828  -49.6176 O.2       0 UNK        -0.5176 
      4 N          16.3731  -26.9469  -48.0367 N.am      1 UNK        -0.4884 
      5 CA         17.2232  -27.9539  -47.3863 C.3       1 UNK         0.0853 
      6 C6         16.3948  -28.9580  -46.5473 C.3       10 UNK        -0.0849 
      7 S7         15.2505  -28.1709  -45.3592 S.3       10 UNK        -0.2776 
      8 C8         14.6678  -29.6222  -44.4288 C.3       10 UNK         0.0316 
      9 C9         15.6966  -30.0706  -43.4028 C.ar      10 UNK        -0.0863 
     10 C10        16.5699  -31.1253  -43.6831 C.ar      10 UNK        -0.1009 
     11 C11        17.5283  -31.5208  -42.7454 C.ar      10 UNK        -0.0712 
     12 C12        17.5944  -30.8661  -41.5101 C.ar      10 UNK        -0.0894 
     13 C13        16.7124  -29.8223  -41.2120 C.ar      10 UNK        -0.0745 
     14 C14        15.7687  -29.4280  -42.1645 C.ar      10 UNK        -0.0972 
     15 C15        16.7498  -29.1416  -39.8498 C.3       10 UNK         0.0209 
     16 S16        18.2092  -28.0761  -39.6246 S.3       10 UNK        -0.2568 
     17 C17        17.9596  -26.7739  -40.8792 C.3       10 UNK        -0.0983 
     18 CA         19.2108  -26.6065  -41.7775 C.3       3 UNK         0.0876 
     19 N          18.8678  -26.0490  -43.0902 N.am      3 UNK        -0.4424 
     20 C          19.7275  -25.9229  -44.1107 C.2       2 UNK         0.4918 
     21 O          20.8954  -26.3154  -44.0796 O.2       2 UNK        -0.4875 
     22 CA         19.1698  -25.2556  -45.3825 C.3       2 UNK         0.0481 
     23 CB         20.2839  -24.7988  -46.3478 C.3       2 UNK        -0.1831 
     24 N          18.1996  -26.0988  -46.0911 N.am      2 UNK        -0.4498 
     25 C          18.3834  -27.3415  -46.5705 C.2       1 UNK         0.5027 
     26 O          19.4153  -27.9977  -46.4258 O.2       1 UNK        -0.4969 
     27 C          20.3019  -25.7634  -41.0758 C.2       3 UNK         0.5005 
     28 O          20.2003  -24.5327  -41.0659 O.2       3 UNK        -0.5279 
     29 N          21.3133  -26.4275  -40.5061 N.am      4 UNK        -0.4463 
     30 CA         22.4692  -25.8170  -39.8511 C.3       4 UNK         0.0283 
     31 CB         23.4810  -25.3488  -40.9182 C.3       4 UNK        -0.1875 
     32 C          23.1059  -26.8169  -38.8745 C.2       4 UNK         0.4949 
     33 O          22.6659  -27.9634  -38.7797 O.2       4 UNK        -0.5039 
     34 N          24.1551  -26.3784  -38.1697 N.am      5 UNK        -0.4663 
     35 CA         24.9598  -27.2085  -37.2690 C.3       5 UNK         0.0242 
     36 CB         25.6207  -26.2995  -36.2150 C.3       5 UNK        -0.1982 
     37 C          25.9855  -28.0492  -38.0567 C.2       5 UNK         0.5017 
     38 O          27.1911  -27.8230  -37.9337 O.2       5 UNK        -0.5012 
     39 N          25.4902  -28.9863  -38.8720 N.am      6 UNK        -0.4439 
     40 CA         26.2772  -29.9029  -39.6938 C.3       6 UNK         0.0297 
     41 CB         26.5949  -29.2447  -41.0489 C.3       6 UNK        -0.2006 
     42 C          25.5000  -31.2106  -39.8842 C.2       6 UNK         0.4892 
     43 O          24.2764  -31.2245  -39.7321 O.2       6 UNK        -0.5089 
     44 N          26.2269  -32.2847  -40.2218 N.am      7 UNK        -0.4243 
     45 CA         25.6678  -33.6172  -40.4733 C.3       7 UNK         0.0196 
     46 CB         26.8003  -34.6566  -40.4905 C.3       7 UNK        -0.2007 
     47 C          24.8500  -33.6875  -41.7734 C.2       7 UNK         0.5020 
     48 O          23.8148  -34.3533  -41.8060 O.2       7 UNK        -0.5147 
     49 N          25.3010  -32.9737  -42.8139 N.am      8 UNK        -0.4734 
     50 CA         24.6227  -32.8439  -44.1081 C.3       8 UNK         0.0238 
     51 CB         25.6765  -32.5646  -45.1967 C.3       8 UNK        -0.1912 
     52 C          23.5292  -31.7601  -44.0471 C.2       8 UNK         0.5038 
     53 O          23.5926  -30.7764  -44.7868 O.2       8 UNK        -0.5046 
     54 N          22.5842  -31.9390  -43.1172 N.am      9 UNK        -0.4200 
     55 CA         21.4956  -31.0277  -42.7225 C.3       9 UNK         0.0839 
     56 C          21.9521  -29.6890  -42.0832 C.2       9 UNK         0.5513 
     57 N          23.0255  -29.0609  -42.5404 N.am      9 UNK        -0.7519 
     58 O          21.3085  -29.2163  -41.1544 O.2       9 UNK        -0.4960 
     59 C59        20.4507  -30.7622  -43.8397 C.3       10 UNK        -0.0876 
     60 S60        19.6272  -32.2784  -44.4337 S.3       10 UNK        -0.2414 
     61 C61        18.4841  -32.6633  -43.0638 C.3       10 UNK         0.0169 
     62 H62        15.4961  -25.3791  -50.6404 H         1 UNK         0.0903 
     63 H63        14.7966  -25.2052  -49.0298 H         1 UNK         0.0903 
     64 H64        16.1364  -24.1689  -49.5255 H         1 UNK         0.0903 
     65 H65        15.4537  -26.8362  -47.6302 H         1 UNK         0.3096 
     66 H66        17.7019  -28.5282  -48.1834 H         1 UNK         0.1121 
     67 H67        15.8004  -29.5809  -47.2177 H         1 UNK         0.0849 
     68 H68        17.0573  -29.6455  -46.0185 H         1 UNK         0.0849 
     69 H69        13.7356  -29.3662  -43.9229 H         1 UNK         0.0865 
     70 H70        14.4247  -30.4332  -45.1174 H         1 UNK         0.0865 
     71 H71        16.5167  -31.6326  -44.6368 H         1 UNK         0.1346 
     72 H72        18.3290  -31.1676  -40.7757 H         1 UNK         0.1412 
     73 H73        15.0861  -28.6184  -41.9438 H         1 UNK         0.1426 
     74 H74        16.7530  -29.9057  -39.0712 H         1 UNK         0.0716 
     75 H75        15.8489  -28.5480  -39.6866 H         1 UNK         0.0716 
     76 H76        17.6916  -25.8398  -40.3815 H         1 UNK         0.0695 
     77 H77        17.0956  -27.0384  -41.4887 H         1 UNK         0.0695 
     78 H78        19.6129  -27.5970  -41.9897 H         1 UNK         0.0983 
     79 H79        17.9311  -25.6894  -43.1959 H         1 UNK         0.3095 
     80 H80        18.6311  -24.3625  -45.0620 H         1 UNK         0.0454 
     81 H81        20.8672  -25.6401  -46.7239 H         1 UNK         0.0851 
     82 H82        20.9775  -24.1210  -45.8489 H         1 UNK         0.0851 
     83 H83        19.8720  -24.2684  -47.2063 H         1 UNK         0.0851 
     84 H84        17.2961  -25.6794  -46.2601 H         1 UNK         0.2976 
     85 H85        21.3107  -27.4495  -40.5082 H         1 UNK         0.3116 
     86 H86        22.1321  -24.9580  -39.2673 H         1 UNK         0.0646 
     87 H87        23.8803  -26.1870  -41.4895 H         1 UNK         0.0847 
     88 H88        24.3269  -24.8287  -40.4682 H         1 UNK         0.0847 
     89 H89        23.0245  -24.6549  -41.6244 H         1 UNK         0.0847 
     90 H90        24.4771  -25.4319  -38.3138 H         1 UNK         0.3040 
     91 H91        24.3062  -27.9059  -36.7394 H         1 UNK         0.1015 
     92 H92        26.2833  -25.5629  -36.6714 H         1 UNK         0.0786 
     93 H93        26.2170  -26.8849  -35.5137 H         1 UNK         0.0786 
     94 H94        24.8733  -25.7619  -35.6310 H         1 UNK         0.0786 
     95 H95        24.4830  -29.1230  -38.9179 H         1 UNK         0.3172 
     96 H96        27.2103  -30.1389  -39.1774 H         1 UNK         0.0595 
     97 H97        27.1892  -29.9053  -41.6810 H         1 UNK         0.0839 
     98 H98        27.1657  -28.3250  -40.9193 H         1 UNK         0.0839 
     99 H99        25.6861  -28.9980  -41.5978 H         1 UNK         0.0839 
    100 H100       27.2280  -32.1860  -40.3160 H         1 UNK         0.2998 
    101 H101       24.9945  -33.8624  -39.6486 H         1 UNK         0.0822 
    102 H102       26.4053  -35.6601  -40.6557 H         1 UNK         0.0787 
    103 H103       27.5232  -34.4570  -41.2826 H         1 UNK         0.0787 
    104 H104       27.3371  -34.6744  -39.5417 H         1 UNK         0.0787 
    105 H105       26.1395  -32.4259  -42.6871 H         1 UNK         0.3055 
    106 H106       24.1294  -33.7869  -44.3558 H         1 UNK         0.1106 
    107 H107       25.2108  -32.4899  -46.1804 H         1 UNK         0.0828 
    108 H108       26.2086  -31.6298  -45.0162 H         1 UNK         0.0828 
    109 H109       26.4137  -33.3659  -45.2500 H         1 UNK         0.0828 
    110 H110       22.6742  -32.7683  -42.5416 H         1 UNK         0.2931 
    111 H111       20.9816  -31.5603  -41.9217 H         1 UNK         0.0412 
    112 H112       23.3075  -28.1863  -42.1339 H         1 UNK         0.3472 
    113 H113       23.4977  -29.4342  -43.3558 H         1 UNK         0.3472 
    114 H114       20.9246  -30.2751  -44.6937 H         1 UNK         0.0970 
    115 H115       19.6857  -30.0614  -43.4999 H         1 UNK         0.0970 
    116 H116       19.0636  -32.9425  -42.1829 H         1 UNK         0.0612 
    117 H117       17.9027  -33.5457  -43.3342 H         1 UNK         0.0612 
@<TRIPOS>BOND
     1    1    2 1    
     2    1   62 1    
     3    1   63 1    
     4    1   64 1    
     5    2    3 2    
     6    2    4 am   BACKBONE|DICT|INTERRES
     7    4    5 1    
     8    4   65 1    
     9    5    6 1    
    10    5   25 1    
    11    5   66 1    
    12    6    7 1    
    13    6   67 1    
    14    6   68 1    
    15    7    8 1    
    16    8    9 1    
    17    8   69 1    
    18    8   70 1    
    19    9   10 ar   
    20    9   14 ar   
    21   10   11 ar   
    22   10   71 1    
    23   11   12 ar   
    24   11   61 1    
    25   12   13 ar   
    26   12   72 1    
    27   13   14 ar   
    28   13   15 1    
    29   14   73 1    
    30   15   16 1    
    31   15   74 1    
    32   15   75 1    
    33   16   17 1    
    34   17   18 1    
    35   17   76 1    
    36   17   77 1    
    37   18   19 1    
    38   18   27 1    
    39   18   78 1    
    40   19   20 am   BACKBONE|DICT|INTERRES
    41   19   79 1    
    42   20   21 2    
    43   20   22 1    
    44   22   23 1    
    45   22   24 1    
    46   22   80 1    
    47   23   81 1    
    48   23   82 1    
    49   23   83 1    
    50   24   25 am   BACKBONE|DICT|INTERRES
    51   24   84 1    
    52   25   26 2    
    53   27   28 2    
    54   27   29 am   BACKBONE|DICT|INTERRES
    55   29   30 1    
    56   29   85 1    
    57   30   31 1    
    58   30   32 1    
    59   30   86 1    
    60   31   87 1    
    61   31   88 1    
    62   31   89 1    
    63   32   33 2    
    64   32   34 am   BACKBONE|DICT|INTERRES
    65   34   35 1    
    66   34   90 1    
    67   35   36 1    
    68   35   37 1    
    69   35   91 1    
    70   36   92 1    
    71   36   93 1    
    72   36   94 1    
    73   37   38 2    
    74   37   39 am   BACKBONE|DICT|INTERRES
    75   39   40 1    
    76   39   95 1    
    77   40   41 1    
    78   40   42 1    
    79   40   96 1    
    80   41   97 1    
    81   41   98 1    
    82   41   99 1    
    83   42   43 2    
    84   42   44 am   BACKBONE|DICT|INTERRES
    85   44   45 1    
    86   44  100 1    
    87   45   46 1    
    88   45   47 1    
    89   45  101 1    
    90   46  102 1    
    91   46  103 1    
    92   46  104 1    
    93   47   48 2    
    94   47   49 am   BACKBONE|DICT|INTERRES
    95   49   50 1    
    96   49  105 1    
    97   50   51 1    
    98   50   52 1    
    99   50  106 1    
   100   51  107 1    
   101   51  108 1    
   102   51  109 1    
   103   52   53 2    
   104   52   54 am   BACKBONE|DICT|INTERRES
   105   54   55 1    
   106   54  110 1    
   107   55   56 1    
   108   55   59 1    
   109   55  111 1    
   110   56   57 am   BACKBONE|DICT|INTERRES
   111   56   58 2    
   112   57  112 1    
   113   57  113 1    
   114   59   60 1    
   115   59  114 1    
   116   59  115 1    
   117   60   61 1    
   118   61  116 1    
   119   61  117 1    
@<TRIPOS>SUBSTRUCTURE
     1 UNK         1 GROUP             0       ****    0 ROOT    
