@<TRIPOS>MOLECULE
3R8
117   119    1
SMALL
USER_CHARGES


@<TRIPOS>ATOM
      1 CA         13.4028  -22.4265  -42.6129 C.3       0 UNK        -0.2013 
      2 C          13.9291  -22.9636  -43.9355 C.2       0 UNK         0.4866 
      3 O          14.0959  -22.1973  -44.8853 O.2       0 UNK        -0.5176 
      4 N          14.1827  -24.2757  -44.0080 N.am      1 UNK        -0.4884 
      5 CA         14.7678  -24.9546  -45.1687 C.3       1 UNK         0.0853 
      6 C6         14.4238  -26.4686  -45.1645 C.3       10 UNK        -0.0849 
      7 S7         15.0289  -27.3829  -43.6998 S.3       10 UNK        -0.2776 
      8 C8         16.4090  -28.3063  -44.4494 C.3       10 UNK         0.0316 
      9 C9         17.4292  -28.8002  -43.4323 C.ar      10 UNK        -0.0863 
     10 C10        17.8938  -30.1181  -43.4960 C.ar      10 UNK        -0.1009 
     11 C11        18.9114  -30.5530  -42.6424 C.ar      10 UNK        -0.0712 
     12 C12        19.4568  -29.6665  -41.7108 C.ar      10 UNK        -0.0894 
     13 C13        19.0089  -28.3454  -41.6437 C.ar      10 UNK        -0.0745 
     14 C14        17.9835  -27.9213  -42.4943 C.ar      10 UNK        -0.0972 
     15 C15        19.6835  -27.3679  -40.6950 C.3       10 UNK         0.0209 
     16 S16        21.2663  -26.7802  -41.3834 S.3       10 UNK        -0.2568 
     17 C17        20.7061  -25.6146  -42.6721 C.3       10 UNK        -0.0983 
     18 CA         20.5648  -26.2494  -44.0800 C.3       3 UNK         0.0876 
     19 N          19.7543  -25.3934  -44.9445 N.am      3 UNK        -0.4424 
     20 C          19.1305  -25.7936  -46.0566 C.2       2 UNK         0.4918 
     21 O          19.1699  -26.9440  -46.4962 O.2       2 UNK        -0.4875 
     22 CA         18.2774  -24.7323  -46.7748 C.3       2 UNK         0.0481 
     23 CB         18.4826  -24.7851  -48.2986 C.3       2 UNK        -0.1831 
     24 N          16.8521  -24.8962  -46.4727 N.am      2 UNK        -0.4498 
     25 C          16.2878  -24.6828  -45.2744 C.2       1 UNK         0.5027 
     26 O          16.9184  -24.2976  -44.2850 O.2       1 UNK        -0.4969 
     27 C          21.9307  -26.5629  -44.7187 C.2       3 UNK         0.5005 
     28 O          22.5376  -25.6855  -45.3384 O.2       3 UNK        -0.5279 
     29 N          22.4040  -27.7992  -44.5128 N.am      4 UNK        -0.4463 
     30 CA         23.7245  -28.2755  -44.9348 C.3       4 UNK         0.0283 
     31 CB         23.6611  -29.7994  -45.1333 C.3       4 UNK        -0.1875 
     32 C          24.8427  -27.9200  -43.9362 C.2       4 UNK         0.4949 
     33 O          25.9968  -28.2592  -44.1940 O.2       4 UNK        -0.5039 
     34 N          24.4887  -27.3090  -42.7948 N.am      5 UNK        -0.4663 
     35 CA         25.3264  -26.9143  -41.6495 C.3       5 UNK         0.0242 
     36 CB         26.4629  -25.9632  -42.0739 C.3       5 UNK        -0.1982 
     37 C          25.8619  -28.0863  -40.8035 C.2       5 UNK         0.5017 
     38 O          26.0913  -27.8979  -39.6079 O.2       5 UNK        -0.5012 
     39 N          26.0300  -29.2683  -41.4101 N.am      6 UNK        -0.4439 
     40 CA         26.3397  -30.5333  -40.7432 C.3       6 UNK         0.0297 
     41 CB         26.6098  -31.6100  -41.8066 C.3       6 UNK        -0.2006 
     42 C          25.1932  -30.9714  -39.8167 C.2       6 UNK         0.4892 
     43 O          24.0249  -30.8362  -40.1923 O.2       6 UNK        -0.5089 
     44 N          25.5538  -31.5010  -38.6392 N.am      7 UNK        -0.4243 
     45 CA         24.6387  -31.9601  -37.5900 C.3       7 UNK         0.0196 
     46 CB         25.4543  -32.4758  -36.3923 C.3       7 UNK        -0.2007 
     47 C          23.6712  -33.0370  -38.1052 C.2       7 UNK         0.5020 
     48 O          24.1108  -34.1400  -38.4365 O.2       7 UNK        -0.5147 
     49 N          22.3879  -32.6653  -38.2213 N.am      8 UNK        -0.4734 
     50 CA         21.2842  -33.4542  -38.7887 C.3       8 UNK         0.0238 
     51 CB         20.9174  -34.6184  -37.8434 C.3       8 UNK        -0.1912 
     52 C          21.5381  -33.9276  -40.2371 C.2       8 UNK         0.5038 
     53 O          21.0120  -34.9692  -40.6330 O.2       8 UNK        -0.5046 
     54 N          22.3444  -33.1652  -40.9929 N.am      9 UNK        -0.4200 
     55 CA         22.8470  -33.5040  -42.3351 C.3       9 UNK         0.0839 
     56 C          23.8044  -34.7365  -42.3665 C.2       9 UNK         0.5513 
     57 N          24.3775  -35.1655  -41.2471 N.am      9 UNK        -0.7519 
     58 O          24.0664  -35.2956  -43.4283 O.2       9 UNK        -0.4960 
     59 C59        21.7235  -33.5629  -43.4138 C.3       10 UNK        -0.0876 
     60 S60        21.0087  -31.9186  -43.7380 S.3       10 UNK        -0.2414 
     61 C61        19.4758  -31.9576  -42.7632 C.3       10 UNK         0.0169 
     62 H62        14.0873  -21.6789  -42.2132 H         1 UNK         0.0903 
     63 H63        12.4307  -21.9561  -42.7585 H         1 UNK         0.0903 
     64 H64        13.2898  -23.2148  -41.8687 H         1 UNK         0.0903 
     65 H65        14.0670  -24.8558  -43.1886 H         1 UNK         0.3096 
     66 H66        14.3114  -24.5218  -46.0624 H         1 UNK         0.1121 
     67 H67        13.3394  -26.5869  -45.1964 H         1 UNK         0.0849 
     68 H68        14.7840  -26.9465  -46.0775 H         1 UNK         0.0849 
     69 H69        15.9983  -29.1373  -45.0250 H         1 UNK         0.0865 
     70 H70        16.9319  -27.6694  -45.1617 H         1 UNK         0.0865 
     71 H71        17.4935  -30.7970  -44.2368 H         1 UNK         0.1346 
     72 H72        20.2657  -29.9924  -41.0705 H         1 UNK         0.1412 
     73 H73        17.6524  -26.8916  -42.4647 H         1 UNK         0.1426 
     74 H74        19.8756  -27.8612  -39.7410 H         1 UNK         0.0716 
     75 H75        19.0319  -26.5209  -40.4747 H         1 UNK         0.0716 
     76 H76        19.7488  -25.1987  -42.3530 H         1 UNK         0.0695 
     77 H77        21.3963  -24.7690  -42.6974 H         1 UNK         0.0695 
     78 H78        20.0304  -27.1949  -43.9882 H         1 UNK         0.0983 
     79 H79        19.6547  -24.4316  -44.6543 H         1 UNK         0.3095 
     80 H80        18.5877  -23.7423  -46.4332 H         1 UNK         0.0454 
     81 H81        18.1484  -25.7331  -48.7223 H         1 UNK         0.0851 
     82 H82        17.9409  -23.9835  -48.8007 H         1 UNK         0.0851 
     83 H83        19.5372  -24.6702  -48.5528 H         1 UNK         0.0851 
     84 H84        16.2747  -25.2314  -47.2305 H         1 UNK         0.2976 
     85 H85        21.8414  -28.4530  -43.9844 H         1 UNK         0.3116 
     86 H86        23.9800  -27.8166  -45.8923 H         1 UNK         0.0646 
     87 H87        24.5936  -30.1788  -45.5532 H         1 UNK         0.0847 
     88 H88        22.8621  -30.0819  -45.8191 H         1 UNK         0.0847 
     89 H89        23.4967  -30.3214  -44.1899 H         1 UNK         0.0847 
     90 H90        23.5015  -27.1272  -42.6702 H         1 UNK         0.3040 
     91 H91        24.6627  -26.3516  -40.9903 H         1 UNK         0.1015 
     92 H92        26.0779  -25.1073  -42.6282 H         1 UNK         0.0786 
     93 H93        27.2048  -26.4625  -42.6975 H         1 UNK         0.0786 
     94 H94        26.9880  -25.5739  -41.2005 H         1 UNK         0.0786 
     95 H95        25.8638  -29.2980  -42.4084 H         1 UNK         0.3172 
     96 H96        27.2452  -30.3898  -40.1500 H         1 UNK         0.0595 
     97 H97        27.4659  -31.3476  -42.4284 H         1 UNK         0.0839 
     98 H98        25.7513  -31.7529  -42.4636 H         1 UNK         0.0839 
     99 H99        26.8288  -32.5735  -41.3438 H         1 UNK         0.0839 
    100 H100       26.5390  -31.5976  -38.4404 H         1 UNK         0.2998 
    101 H101       24.0615  -31.0950  -37.2567 H         1 UNK         0.0822 
    102 H102       26.0867  -31.6924  -35.9741 H         1 UNK         0.0787 
    103 H103       24.7967  -32.8209  -35.5931 H         1 UNK         0.0787 
    104 H104       26.0957  -33.3135  -36.6700 H         1 UNK         0.0787 
    105 H105       22.1498  -31.7171  -37.9623 H         1 UNK         0.3055 
    106 H106       20.4220  -32.7874  -38.8430 H         1 UNK         0.1106 
    107 H107       21.7126  -35.3629  -37.7927 H         1 UNK         0.0828 
    108 H108       20.7255  -34.2631  -36.8311 H         1 UNK         0.0828 
    109 H109       20.0148  -35.1298  -38.1804 H         1 UNK         0.0828 
    110 H110       22.7554  -32.3333  -40.5799 H         1 UNK         0.2931 
    111 H111       23.4976  -32.6712  -42.6030 H         1 UNK         0.0412 
    112 H112       25.0018  -35.9551  -41.2894 H         1 UNK         0.3472 
    113 H113       24.1839  -34.7277  -40.3522 H         1 UNK         0.3472 
    114 H114       20.9410  -34.2731  -43.1446 H         1 UNK         0.0970 
    115 H115       22.1223  -33.9122  -44.3676 H         1 UNK         0.0970 
    116 H116       18.7582  -32.6289  -43.2372 H         1 UNK         0.0612 
    117 H117       19.6707  -32.3574  -41.7687 H         1 UNK         0.0612 
@<TRIPOS>BOND
     1    1    2 1    
     2    1   62 1    
     3    1   63 1    
     4    1   64 1    
     5    2    3 2    
     6    2    4 am   BACKBONE|DICT|INTERRES
     7    4    5 1    
     8    4   65 1    
     9    5    6 1    
    10    5   25 1    
    11    5   66 1    
    12    6    7 1    
    13    6   67 1    
    14    6   68 1    
    15    7    8 1    
    16    8    9 1    
    17    8   69 1    
    18    8   70 1    
    19    9   10 ar   
    20    9   14 ar   
    21   10   11 ar   
    22   10   71 1    
    23   11   12 ar   
    24   11   61 1    
    25   12   13 ar   
    26   12   72 1    
    27   13   14 ar   
    28   13   15 1    
    29   14   73 1    
    30   15   16 1    
    31   15   74 1    
    32   15   75 1    
    33   16   17 1    
    34   17   18 1    
    35   17   76 1    
    36   17   77 1    
    37   18   19 1    
    38   18   27 1    
    39   18   78 1    
    40   19   20 am   BACKBONE|DICT|INTERRES
    41   19   79 1    
    42   20   21 2    
    43   20   22 1    
    44   22   23 1    
    45   22   24 1    
    46   22   80 1    
    47   23   81 1    
    48   23   82 1    
    49   23   83 1    
    50   24   25 am   BACKBONE|DICT|INTERRES
    51   24   84 1    
    52   25   26 2    
    53   27   28 2    
    54   27   29 am   BACKBONE|DICT|INTERRES
    55   29   30 1    
    56   29   85 1    
    57   30   31 1    
    58   30   32 1    
    59   30   86 1    
    60   31   87 1    
    61   31   88 1    
    62   31   89 1    
    63   32   33 2    
    64   32   34 am   BACKBONE|DICT|INTERRES
    65   34   35 1    
    66   34   90 1    
    67   35   36 1    
    68   35   37 1    
    69   35   91 1    
    70   36   92 1    
    71   36   93 1    
    72   36   94 1    
    73   37   38 2    
    74   37   39 am   BACKBONE|DICT|INTERRES
    75   39   40 1    
    76   39   95 1    
    77   40   41 1    
    78   40   42 1    
    79   40   96 1    
    80   41   97 1    
    81   41   98 1    
    82   41   99 1    
    83   42   43 2    
    84   42   44 am   BACKBONE|DICT|INTERRES
    85   44   45 1    
    86   44  100 1    
    87   45   46 1    
    88   45   47 1    
    89   45  101 1    
    90   46  102 1    
    91   46  103 1    
    92   46  104 1    
    93   47   48 2    
    94   47   49 am   BACKBONE|DICT|INTERRES
    95   49   50 1    
    96   49  105 1    
    97   50   51 1    
    98   50   52 1    
    99   50  106 1    
   100   51  107 1    
   101   51  108 1    
   102   51  109 1    
   103   52   53 2    
   104   52   54 am   BACKBONE|DICT|INTERRES
   105   54   55 1    
   106   54  110 1    
   107   55   56 1    
   108   55   59 1    
   109   55  111 1    
   110   56   57 am   BACKBONE|DICT|INTERRES
   111   56   58 2    
   112   57  112 1    
   113   57  113 1    
   114   59   60 1    
   115   59  114 1    
   116   59  115 1    
   117   60   61 1    
   118   61  116 1    
   119   61  117 1    
@<TRIPOS>SUBSTRUCTURE
     1 UNK         1 GROUP             0       ****    0 ROOT    
