@<TRIPOS>MOLECULE
3R8
117   119    1
SMALL
USER_CHARGES


@<TRIPOS>ATOM
      1 CA         20.1992  -27.9458  -41.5506 C.3       0 UNK        -0.2013 
      2 C          19.2169  -26.8425  -41.9106 C.2       0 UNK         0.4866 
      3 O          19.0989  -25.8715  -41.1630 O.2       0 UNK        -0.5176 
      4 N          18.5188  -26.9849  -43.0452 N.am      1 UNK        -0.4884 
      5 CA         17.6024  -25.9798  -43.5990 C.3       1 UNK         0.0853 
      6 C6         16.3811  -26.6144  -44.3248 C.3       10 UNK        -0.0849 
      7 S7         15.4122  -27.7367  -43.2554 S.3       10 UNK        -0.2776 
      8 C8         15.5789  -29.3413  -44.1088 C.3       10 UNK         0.0316 
      9 C9         16.9954  -29.8867  -44.0092 C.ar      10 UNK        -0.0863 
     10 C10        17.4042  -30.5791  -42.8656 C.ar      10 UNK        -0.1009 
     11 C11        18.7188  -31.0401  -42.7467 C.ar      10 UNK        -0.0712 
     12 C12        19.6273  -30.8058  -43.7831 C.ar      10 UNK        -0.0894 
     13 C13        19.2311  -30.0988  -44.9221 C.ar      10 UNK        -0.0745 
     14 C14        17.9088  -29.6677  -45.0435 C.ar      10 UNK        -0.0972 
     15 C15        20.2528  -29.7029  -45.9718 C.3       10 UNK         0.0209 
     16 S16        21.1431  -28.2429  -45.3668 S.3       10 UNK        -0.2568 
     17 C17        21.9211  -27.5545  -46.8700 C.3       10 UNK        -0.0983 
     18 CA         21.9045  -26.0019  -46.8800 C.3       3 UNK         0.0876 
     19 N          20.5312  -25.4968  -46.8072 N.am      3 UNK        -0.4424 
     20 C          20.1448  -24.2328  -47.0184 C.2       2 UNK         0.4918 
     21 O          20.8967  -23.3440  -47.4184 O.2       2 UNK        -0.4875 
     22 CA         18.6709  -23.8970  -46.7087 C.3       2 UNK         0.0481 
     23 CB         17.8478  -23.8688  -48.0064 C.3       2 UNK        -0.1831 
     24 N          18.0215  -24.7999  -45.7445 N.am      2 UNK        -0.4498 
     25 C          18.4134  -24.9937  -44.4740 C.2       1 UNK         0.5027 
     26 O          19.4042  -24.4376  -43.9966 O.2       1 UNK        -0.4969 
     27 C          22.8165  -25.4410  -45.7614 C.2       3 UNK         0.5005 
     28 O          24.0300  -25.3661  -45.9599 O.2       3 UNK        -0.5279 
     29 N          22.2222  -25.1101  -44.6002 N.am      4 UNK        -0.4463 
     30 CA         22.8627  -24.7252  -43.3358 C.3       4 UNK         0.0283 
     31 CB         23.5582  -23.3547  -43.4707 C.3       4 UNK        -0.1875 
     32 C          23.7957  -25.8092  -42.7510 C.2       4 UNK         0.4949 
     33 O          24.7196  -25.4804  -42.0060 O.2       4 UNK        -0.5039 
     34 N          23.5431  -27.0865  -43.0749 N.am      5 UNK        -0.4663 
     35 CA         24.4014  -28.2402  -42.7701 C.3       5 UNK         0.0242 
     36 CB         24.0873  -29.3715  -43.7676 C.3       5 UNK        -0.1982 
     37 C          24.3462  -28.7279  -41.3060 C.2       5 UNK         0.5017 
     38 O          24.3439  -29.9366  -41.0712 O.2       5 UNK        -0.5012 
     39 N          24.2975  -27.7924  -40.3463 N.am      6 UNK        -0.4439 
     40 CA         24.4398  -27.9743  -38.8903 C.3       6 UNK         0.0297 
     41 CB         25.9202  -28.2540  -38.5559 C.3       6 UNK        -0.2006 
     42 C          23.5033  -29.0179  -38.2370 C.2       6 UNK         0.4892 
     43 O          23.8314  -29.5388  -37.1698 O.2       6 UNK        -0.5089 
     44 N          22.3698  -29.3137  -38.8913 N.am      7 UNK        -0.4243 
     45 CA         21.4028  -30.3712  -38.5645 C.3       7 UNK         0.0196 
     46 CB         20.6824  -30.0754  -37.2320 C.3       7 UNK        -0.2007 
     47 C          22.0011  -31.7955  -38.6218 C.2       7 UNK         0.5020 
     48 O          21.5208  -32.6903  -37.9253 O.2       7 UNK        -0.5147 
     49 N          23.0251  -31.9987  -39.4645 N.am      8 UNK        -0.4734 
     50 CA         23.7734  -33.2559  -39.5949 C.3       8 UNK         0.0238 
     51 CB         25.1456  -32.9505  -40.2205 C.3       8 UNK        -0.1912 
     52 C          23.0486  -34.3636  -40.3862 C.2       8 UNK         0.5038 
     53 O          23.6092  -35.4510  -40.5314 O.2       8 UNK        -0.5046 
     54 N          21.8408  -34.0835  -40.8933 N.am      9 UNK        -0.4200 
     55 CA         20.9950  -35.0271  -41.6426 C.3       9 UNK         0.0839 
     56 C          20.4363  -36.2258  -40.8170 C.2       9 UNK         0.5513 
     57 N          20.4766  -36.1966  -39.4897 N.am      9 UNK        -0.7519 
     58 O          19.9682  -37.2027  -41.3962 O.2       9 UNK        -0.4960 
     59 C59        19.8818  -34.2907  -42.4365 C.3       10 UNK        -0.0876 
     60 S60        18.6458  -33.4564  -41.3782 S.3       10 UNK        -0.2414 
     61 C61        19.1711  -31.7199  -41.4647 C.3       10 UNK         0.0169 
     62 H62        19.7499  -28.6160  -40.8194 H         1 UNK         0.0903 
     63 H63        20.4910  -28.5273  -42.4230 H         1 UNK         0.0903 
     64 H64        21.1019  -27.5142  -41.1201 H         1 UNK         0.0903 
     65 H65        18.6365  -27.8244  -43.5971 H         1 UNK         0.3096 
     66 H66        17.2025  -25.3814  -42.7772 H         1 UNK         0.1121 
     67 H67        15.6949  -25.8320  -44.6548 H         1 UNK         0.0849 
     68 H68        16.6884  -27.1440  -45.2259 H         1 UNK         0.0849 
     69 H69        14.8826  -30.0525  -43.6617 H         1 UNK         0.0865 
     70 H70        15.2752  -29.2379  -45.1518 H         1 UNK         0.0865 
     71 H71        16.7051  -30.7386  -42.0558 H         1 UNK         0.1346 
     72 H72        20.6568  -31.1216  -43.6828 H         1 UNK         0.1412 
     73 H73        17.6049  -29.1224  -45.9263 H         1 UNK         0.1426 
     74 H74        19.7631  -29.4813  -46.9212 H         1 UNK         0.0716 
     75 H75        20.9552  -30.5173  -46.1550 H         1 UNK         0.0716 
     76 H76        21.4001  -27.9301  -47.7517 H         1 UNK         0.0695 
     77 H77        22.9421  -27.9342  -46.9436 H         1 UNK         0.0695 
     78 H78        22.3279  -25.6653  -47.8289 H         1 UNK         0.0983 
     79 H79        19.8404  -26.1609  -46.4919 H         1 UNK         0.3095 
     80 H80        18.6552  -22.8947  -46.2760 H         1 UNK         0.0454 
     81 H81        18.2871  -23.1837  -48.7330 H         1 UNK         0.0851 
     82 H82        16.8278  -23.5303  -47.8242 H         1 UNK         0.0851 
     83 H83        17.7985  -24.8521  -48.4759 H         1 UNK         0.0851 
     84 H84        17.2016  -25.2865  -46.0766 H         1 UNK         0.2976 
     85 H85        21.2084  -25.1525  -44.5588 H         1 UNK         0.3116 
     86 H86        22.0509  -24.6116  -42.6156 H         1 UNK         0.0646 
     87 H87        24.4276  -23.4047  -44.1268 H         1 UNK         0.0847 
     88 H88        22.8778  -22.6032  -43.8712 H         1 UNK         0.0847 
     89 H89        23.9037  -22.9925  -42.5018 H         1 UNK         0.0847 
     90 H90        22.7532  -27.2703  -43.6788 H         1 UNK         0.3040 
     91 H91        25.4360  -27.9359  -42.9437 H         1 UNK         0.1015 
     92 H92        24.7861  -30.2015  -43.6551 H         1 UNK         0.0786 
     93 H93        24.1661  -29.0271  -44.7989 H         1 UNK         0.0786 
     94 H94        23.0832  -29.7706  -43.6196 H         1 UNK         0.0786 
     95 H95        24.3232  -26.8299  -40.6737 H         1 UNK         0.3172 
     96 H96        24.1748  -27.0160  -38.4416 H         1 UNK         0.0595 
     97 H97        26.2391  -29.2259  -38.9349 H         1 UNK         0.0839 
     98 H98        26.0918  -28.2515  -37.4787 H         1 UNK         0.0839 
     99 H99        26.5752  -27.4955  -38.9846 H         1 UNK         0.0839 
    100 H100       22.2210  -28.8364  -39.7676 H         1 UNK         0.2998 
    101 H101       20.6482  -30.3358  -39.3483 H         1 UNK         0.0822 
    102 H102       19.8584  -30.7714  -37.0699 H         1 UNK         0.0787 
    103 H103       20.2611  -29.0702  -37.2230 H         1 UNK         0.0787 
    104 H104       21.3544  -30.1660  -36.3783 H         1 UNK         0.0787 
    105 H105       23.3813  -31.2138  -40.0066 H         1 UNK         0.3055 
    106 H106       23.9435  -33.6524  -38.5913 H         1 UNK         0.1106 
    107 H107       25.6841  -32.1948  -39.6480 H         1 UNK         0.0828 
    108 H108       25.7743  -33.8414  -40.2491 H         1 UNK         0.0828 
    109 H109       25.0481  -32.5872  -41.2443 H         1 UNK         0.0828 
    110 H110       21.4400  -33.1814  -40.6939 H         1 UNK         0.2931 
    111 H111       21.6486  -35.4812  -42.3901 H         1 UNK         0.0412 
    112 H112       20.1167  -36.9787  -38.9656 H         1 UNK         0.3472 
    113 H113       20.8447  -35.3906  -39.0085 H         1 UNK         0.3472 
    114 H114       20.3297  -33.5686  -43.1196 H         1 UNK         0.0970 
    115 H115       19.3516  -34.9969  -43.0782 H         1 UNK         0.0970 
    116 H116       18.7452  -31.1900  -40.6116 H         1 UNK         0.0612 
    117 H117       20.2541  -31.6551  -41.3571 H         1 UNK         0.0612 
@<TRIPOS>BOND
     1    1    2 1    
     2    1   62 1    
     3    1   63 1    
     4    1   64 1    
     5    2    3 2    
     6    2    4 am   BACKBONE|DICT|INTERRES
     7    4    5 1    
     8    4   65 1    
     9    5    6 1    
    10    5   25 1    
    11    5   66 1    
    12    6    7 1    
    13    6   67 1    
    14    6   68 1    
    15    7    8 1    
    16    8    9 1    
    17    8   69 1    
    18    8   70 1    
    19    9   10 ar   
    20    9   14 ar   
    21   10   11 ar   
    22   10   71 1    
    23   11   12 ar   
    24   11   61 1    
    25   12   13 ar   
    26   12   72 1    
    27   13   14 ar   
    28   13   15 1    
    29   14   73 1    
    30   15   16 1    
    31   15   74 1    
    32   15   75 1    
    33   16   17 1    
    34   17   18 1    
    35   17   76 1    
    36   17   77 1    
    37   18   19 1    
    38   18   27 1    
    39   18   78 1    
    40   19   20 am   BACKBONE|DICT|INTERRES
    41   19   79 1    
    42   20   21 2    
    43   20   22 1    
    44   22   23 1    
    45   22   24 1    
    46   22   80 1    
    47   23   81 1    
    48   23   82 1    
    49   23   83 1    
    50   24   25 am   BACKBONE|DICT|INTERRES
    51   24   84 1    
    52   25   26 2    
    53   27   28 2    
    54   27   29 am   BACKBONE|DICT|INTERRES
    55   29   30 1    
    56   29   85 1    
    57   30   31 1    
    58   30   32 1    
    59   30   86 1    
    60   31   87 1    
    61   31   88 1    
    62   31   89 1    
    63   32   33 2    
    64   32   34 am   BACKBONE|DICT|INTERRES
    65   34   35 1    
    66   34   90 1    
    67   35   36 1    
    68   35   37 1    
    69   35   91 1    
    70   36   92 1    
    71   36   93 1    
    72   36   94 1    
    73   37   38 2    
    74   37   39 am   BACKBONE|DICT|INTERRES
    75   39   40 1    
    76   39   95 1    
    77   40   41 1    
    78   40   42 1    
    79   40   96 1    
    80   41   97 1    
    81   41   98 1    
    82   41   99 1    
    83   42   43 2    
    84   42   44 am   BACKBONE|DICT|INTERRES
    85   44   45 1    
    86   44  100 1    
    87   45   46 1    
    88   45   47 1    
    89   45  101 1    
    90   46  102 1    
    91   46  103 1    
    92   46  104 1    
    93   47   48 2    
    94   47   49 am   BACKBONE|DICT|INTERRES
    95   49   50 1    
    96   49  105 1    
    97   50   51 1    
    98   50   52 1    
    99   50  106 1    
   100   51  107 1    
   101   51  108 1    
   102   51  109 1    
   103   52   53 2    
   104   52   54 am   BACKBONE|DICT|INTERRES
   105   54   55 1    
   106   54  110 1    
   107   55   56 1    
   108   55   59 1    
   109   55  111 1    
   110   56   57 am   BACKBONE|DICT|INTERRES
   111   56   58 2    
   112   57  112 1    
   113   57  113 1    
   114   59   60 1    
   115   59  114 1    
   116   59  115 1    
   117   60   61 1    
   118   61  116 1    
   119   61  117 1    
@<TRIPOS>SUBSTRUCTURE
     1 UNK         1 GROUP             0       ****    0 ROOT    
