@<TRIPOS>MOLECULE
3R8
117   119    1
SMALL
USER_CHARGES


@<TRIPOS>ATOM
      1 CA         14.2059  -21.6049  -45.4238 C.3       0 UNK        -0.2013 
      2 C          15.5587  -22.2907  -45.5452 C.2       0 UNK         0.4866 
      3 O          16.5905  -21.6188  -45.5170 O.2       0 UNK        -0.5176 
      4 N          15.5633  -23.6221  -45.6880 N.am      1 UNK        -0.4884 
      5 CA         16.7728  -24.4484  -45.7466 C.3       1 UNK         0.0853 
      6 C6         16.4584  -25.8496  -46.3265 C.3       10 UNK        -0.0849 
      7 S7         17.9474  -26.7203  -46.9254 S.3       10 UNK        -0.2776 
      8 C8         17.2604  -28.3524  -47.3493 C.3       10 UNK         0.0316 
      9 C9         17.3894  -29.3534  -46.2074 C.ar      10 UNK        -0.0863 
     10 C10        18.4164  -30.3035  -46.2214 C.ar      10 UNK        -0.1009 
     11 C11        18.5031  -31.2765  -45.2206 C.ar      10 UNK        -0.0712 
     12 C12        17.5597  -31.2816  -44.1878 C.ar      10 UNK        -0.0894 
     13 C13        16.5399  -30.3235  -44.1479 C.ar      10 UNK        -0.0745 
     14 C14        16.4565  -29.3686  -45.1657 C.ar      10 UNK        -0.0972 
     15 C15        15.5017  -30.3421  -43.0314 C.3       10 UNK         0.0209 
     16 S16        16.2414  -30.2155  -41.3701 S.3       10 UNK        -0.2568 
     17 C17        16.8376  -28.4890  -41.3192 C.3       10 UNK        -0.0983 
     18 CA         18.2940  -28.2919  -41.8191 C.3       3 UNK         0.0876 
     19 N          18.5433  -26.8765  -42.1209 N.am      3 UNK        -0.4424 
     20 C          19.5400  -26.4123  -42.8838 C.2       2 UNK         0.4918 
     21 O          20.4028  -27.1243  -43.3936 O.2       2 UNK        -0.4875 
     22 CA         19.5572  -24.8961  -43.1346 C.3       2 UNK         0.0481 
     23 CB         20.9865  -24.3596  -43.3329 C.3       2 UNK        -0.1831 
     24 N          18.7621  -24.5978  -44.3224 N.am      2 UNK        -0.4498 
     25 C          17.4243  -24.5584  -44.3527 C.2       1 UNK         0.5027 
     26 O          16.7130  -24.6507  -43.3474 O.2       1 UNK        -0.4969 
     27 C          19.3592  -28.9275  -40.8889 C.2       3 UNK         0.5005 
     28 O          19.4050  -30.1510  -40.7758 O.2       3 UNK        -0.5279 
     29 N          20.2214  -28.1157  -40.2580 N.am      4 UNK        -0.4463 
     30 CA         21.4274  -28.5926  -39.5738 C.3       4 UNK         0.0283 
     31 CB         21.8950  -27.5500  -38.5454 C.3       4 UNK        -0.1875 
     32 C          22.5523  -28.9134  -40.5736 C.2       4 UNK         0.4949 
     33 O          23.1724  -29.9737  -40.4726 O.2       4 UNK        -0.5039 
     34 N          22.7932  -27.9833  -41.5119 N.am      5 UNK        -0.4663 
     35 CA         23.8088  -28.0126  -42.5759 C.3       5 UNK         0.0242 
     36 CB         23.3929  -28.9961  -43.6875 C.3       5 UNK        -0.1982 
     37 C          25.2333  -28.2842  -42.0540 C.2       5 UNK         0.5017 
     38 O          25.9432  -29.1192  -42.6133 O.2       5 UNK        -0.5012 
     39 N          25.6044  -27.6174  -40.9497 N.am      6 UNK        -0.4439 
     40 CA         26.8594  -27.7998  -40.2021 C.3       6 UNK         0.0297 
     41 CB         28.0626  -27.2756  -41.0152 C.3       6 UNK        -0.2006 
     42 C          27.0573  -29.2493  -39.7032 C.2       6 UNK         0.4892 
     43 O          28.1767  -29.7629  -39.7216 O.2       6 UNK        -0.5089 
     44 N          25.9456  -29.8723  -39.2851 N.am      7 UNK        -0.4243 
     45 CA         25.7869  -31.2561  -38.8252 C.3       7 UNK         0.0196 
     46 CB         26.7300  -31.5878  -37.6483 C.3       7 UNK        -0.2007 
     47 C          25.8397  -32.3120  -39.9473 C.2       7 UNK         0.5020 
     48 O          25.8651  -33.5031  -39.6340 O.2       7 UNK        -0.5147 
     49 N          25.8150  -31.8969  -41.2243 N.am      8 UNK        -0.4734 
     50 CA         25.6973  -32.8132  -42.3655 C.3       8 UNK         0.0238 
     51 CB         26.1793  -32.1265  -43.6529 C.3       8 UNK        -0.1912 
     52 C          24.2640  -33.3433  -42.5432 C.2       8 UNK         0.5038 
     53 O          24.1008  -34.4892  -42.9649 O.2       8 UNK        -0.5046 
     54 N          23.2670  -32.5134  -42.2114 N.am      9 UNK        -0.4200 
     55 CA         21.8420  -32.8742  -42.1905 C.3       9 UNK         0.0839 
     56 C          21.3398  -33.1411  -40.7455 C.2       9 UNK         0.5513 
     57 N          21.8871  -32.4917  -39.7241 N.am      9 UNK        -0.7519 
     58 O          20.4585  -33.9733  -40.5475 O.2       9 UNK        -0.4960 
     59 C59        20.9670  -31.8042  -42.8913 C.3       10 UNK        -0.0876 
     60 S60        21.2006  -31.7614  -44.6985 S.3       10 UNK        -0.2414 
     61 C61        19.5829  -32.3509  -45.2925 C.3       10 UNK         0.0169 
     62 H62        13.3814  -22.3155  -45.4785 H         1 UNK         0.0903 
     63 H63        14.1369  -21.0782  -44.4724 H         1 UNK         0.0903 
     64 H64        14.0803  -20.8779  -46.2258 H         1 UNK         0.0903 
     65 H65        14.6871  -24.1247  -45.6678 H         1 UNK         0.3096 
     66 H66        17.4739  -23.9459  -46.4178 H         1 UNK         0.1121 
     67 H67        15.9329  -26.4628  -45.5937 H         1 UNK         0.0849 
     68 H68        15.7831  -25.7535  -47.1787 H         1 UNK         0.0849 
     69 H69        16.2150  -28.2560  -47.6468 H         1 UNK         0.0865 
     70 H70        17.7840  -28.7262  -48.2306 H         1 UNK         0.0865 
     71 H71        19.1385  -30.3040  -47.0267 H         1 UNK         0.1346 
     72 H72        17.6115  -32.0348  -43.4135 H         1 UNK         0.1412 
     73 H73        15.6506  -28.6492  -45.1563 H         1 UNK         0.1426 
     74 H74        14.9443  -31.2777  -43.0924 H         1 UNK         0.0716 
     75 H75        14.7701  -29.5426  -43.1580 H         1 UNK         0.0716 
     76 H76        16.1530  -27.8878  -41.9202 H         1 UNK         0.0695 
     77 H77        16.7350  -28.1205  -40.2970 H         1 UNK         0.0695 
     78 H78        18.3919  -28.8212  -42.7689 H         1 UNK         0.0983 
     79 H79        17.8520  -26.2180  -41.7875 H         1 UNK         0.3095 
     80 H80        19.1258  -24.3889  -42.2688 H         1 UNK         0.0454 
     81 H81        21.6085  -24.5755  -42.4635 H         1 UNK         0.0851 
     82 H82        20.9873  -23.2781  -43.4690 H         1 UNK         0.0851 
     83 H83        21.4745  -24.8053  -44.2008 H         1 UNK         0.0851 
     84 H84        19.2643  -24.5739  -45.1988 H         1 UNK         0.2976 
     85 H85        20.1031  -27.1190  -40.3610 H         1 UNK         0.3116 
     86 H86        21.1908  -29.5109  -39.0314 H         1 UNK         0.0646 
     87 H87        22.1356  -26.5925  -39.0085 H         1 UNK         0.0847 
     88 H88        21.1299  -27.3720  -37.7895 H         1 UNK         0.0847 
     89 H89        22.7885  -27.8931  -38.0219 H         1 UNK         0.0847 
     90 H90        22.1915  -27.1733  -41.5265 H         1 UNK         0.3040 
     91 H91        23.8300  -27.0138  -43.0149 H         1 UNK         0.1015 
     92 H92        24.0659  -28.9297  -44.5430 H         1 UNK         0.0786 
     93 H93        22.3873  -28.7877  -44.0518 H         1 UNK         0.0786 
     94 H94        23.4137  -30.0266  -43.3397 H         1 UNK         0.0786 
     95 H95        24.9459  -26.9595  -40.5552 H         1 UNK         0.3172 
     96 H96        26.7750  -27.1823  -39.3067 H         1 UNK         0.0595 
     97 H97        28.2481  -27.8826  -41.9021 H         1 UNK         0.0839 
     98 H98        28.9747  -27.2896  -40.4172 H         1 UNK         0.0839 
     99 H99        27.9057  -26.2470  -41.3394 H         1 UNK         0.0839 
    100 H100       25.0725  -29.3724  -39.3911 H         1 UNK         0.2998 
    101 H101       24.7682  -31.3081  -38.4378 H         1 UNK         0.0822 
    102 H102       26.4632  -32.5420  -37.1922 H         1 UNK         0.0787 
    103 H103       26.6730  -30.8305  -36.8666 H         1 UNK         0.0787 
    104 H104       27.7693  -31.6658  -37.9682 H         1 UNK         0.0787 
    105 H105       25.8186  -30.9035  -41.4292 H         1 UNK         0.3055 
    106 H106       26.3468  -33.6731  -42.1847 H         1 UNK         0.1106 
    107 H107       27.1782  -31.7071  -43.5327 H         1 UNK         0.0828 
    108 H108       26.2220  -32.8388  -44.4777 H         1 UNK         0.0828 
    109 H109       25.5109  -31.3217  -43.9592 H         1 UNK         0.0828 
    110 H110       23.4965  -31.6068  -41.8240 H         1 UNK         0.2931 
    111 H111       21.6967  -33.8096  -42.7346 H         1 UNK         0.0412 
    112 H112       21.5587  -32.6810  -38.7911 H         1 UNK         0.3472 
    113 H113       22.5328  -31.7300  -39.8920 H         1 UNK         0.3472 
    114 H114       19.9110  -31.9712  -42.6755 H         1 UNK         0.0970 
    115 H115       21.1972  -30.8127  -42.5019 H         1 UNK         0.0970 
    116 H116       19.6939  -32.6775  -46.3275 H         1 UNK         0.0612 
    117 H117       19.2876  -33.2370  -44.7282 H         1 UNK         0.0612 
@<TRIPOS>BOND
     1    1    2 1    
     2    1   62 1    
     3    1   63 1    
     4    1   64 1    
     5    2    3 2    
     6    2    4 am   BACKBONE|DICT|INTERRES
     7    4    5 1    
     8    4   65 1    
     9    5    6 1    
    10    5   25 1    
    11    5   66 1    
    12    6    7 1    
    13    6   67 1    
    14    6   68 1    
    15    7    8 1    
    16    8    9 1    
    17    8   69 1    
    18    8   70 1    
    19    9   10 ar   
    20    9   14 ar   
    21   10   11 ar   
    22   10   71 1    
    23   11   12 ar   
    24   11   61 1    
    25   12   13 ar   
    26   12   72 1    
    27   13   14 ar   
    28   13   15 1    
    29   14   73 1    
    30   15   16 1    
    31   15   74 1    
    32   15   75 1    
    33   16   17 1    
    34   17   18 1    
    35   17   76 1    
    36   17   77 1    
    37   18   19 1    
    38   18   27 1    
    39   18   78 1    
    40   19   20 am   BACKBONE|DICT|INTERRES
    41   19   79 1    
    42   20   21 2    
    43   20   22 1    
    44   22   23 1    
    45   22   24 1    
    46   22   80 1    
    47   23   81 1    
    48   23   82 1    
    49   23   83 1    
    50   24   25 am   BACKBONE|DICT|INTERRES
    51   24   84 1    
    52   25   26 2    
    53   27   28 2    
    54   27   29 am   BACKBONE|DICT|INTERRES
    55   29   30 1    
    56   29   85 1    
    57   30   31 1    
    58   30   32 1    
    59   30   86 1    
    60   31   87 1    
    61   31   88 1    
    62   31   89 1    
    63   32   33 2    
    64   32   34 am   BACKBONE|DICT|INTERRES
    65   34   35 1    
    66   34   90 1    
    67   35   36 1    
    68   35   37 1    
    69   35   91 1    
    70   36   92 1    
    71   36   93 1    
    72   36   94 1    
    73   37   38 2    
    74   37   39 am   BACKBONE|DICT|INTERRES
    75   39   40 1    
    76   39   95 1    
    77   40   41 1    
    78   40   42 1    
    79   40   96 1    
    80   41   97 1    
    81   41   98 1    
    82   41   99 1    
    83   42   43 2    
    84   42   44 am   BACKBONE|DICT|INTERRES
    85   44   45 1    
    86   44  100 1    
    87   45   46 1    
    88   45   47 1    
    89   45  101 1    
    90   46  102 1    
    91   46  103 1    
    92   46  104 1    
    93   47   48 2    
    94   47   49 am   BACKBONE|DICT|INTERRES
    95   49   50 1    
    96   49  105 1    
    97   50   51 1    
    98   50   52 1    
    99   50  106 1    
   100   51  107 1    
   101   51  108 1    
   102   51  109 1    
   103   52   53 2    
   104   52   54 am   BACKBONE|DICT|INTERRES
   105   54   55 1    
   106   54  110 1    
   107   55   56 1    
   108   55   59 1    
   109   55  111 1    
   110   56   57 am   BACKBONE|DICT|INTERRES
   111   56   58 2    
   112   57  112 1    
   113   57  113 1    
   114   59   60 1    
   115   59  114 1    
   116   59  115 1    
   117   60   61 1    
   118   61  116 1    
   119   61  117 1    
@<TRIPOS>SUBSTRUCTURE
     1 UNK         1 GROUP             0       ****    0 ROOT    
