@<TRIPOS>MOLECULE
3R8
117   119    1
SMALL
USER_CHARGES


@<TRIPOS>ATOM
      1 CA         15.2430  -22.1200  -47.1995 C.3       0 UNK        -0.2013 
      2 C          16.4915  -22.8502  -46.7282 C.2       0 UNK         0.4866 
      3 O          17.4950  -22.2087  -46.4169 O.2       0 UNK        -0.5176 
      4 N          16.4384  -24.1875  -46.6778 N.am      1 UNK        -0.4884 
      5 CA         17.5240  -25.0601  -46.2119 C.3       1 UNK         0.0853 
      6 C6         17.2878  -26.5433  -46.6054 C.3       10 UNK        -0.0849 
      7 S7         15.6435  -27.1789  -46.1176 S.3       10 UNK        -0.2776 
      8 C8         15.7835  -28.9402  -46.5541 C.3       10 UNK         0.0316 
      9 C9         16.5272  -29.7363  -45.4912 C.ar      10 UNK        -0.0863 
     10 C10        17.7788  -30.2962  -45.7648 C.ar      10 UNK        -0.1009 
     11 C11        18.4376  -31.0681  -44.8015 C.ar      10 UNK        -0.0712 
     12 C12        17.8422  -31.2644  -43.5517 C.ar      10 UNK        -0.0894 
     13 C13        16.6057  -30.6837  -43.2567 C.ar      10 UNK        -0.0745 
     14 C14        15.9447  -29.9379  -44.2367 C.ar      10 UNK        -0.0972 
     15 C15        15.9948  -30.8367  -41.8720 C.3       10 UNK         0.0209 
     16 S16        15.9361  -29.2449  -40.9868 S.3       10 UNK        -0.2568 
     17 C17        17.7074  -28.8695  -40.7320 C.3       10 UNK        -0.0983 
     18 CA         18.3642  -28.0628  -41.8912 C.3       3 UNK         0.0876 
     19 N          17.5788  -26.9030  -42.3306 N.am      3 UNK        -0.4424 
     20 C          17.3555  -25.7657  -41.6574 C.2       2 UNK         0.4918 
     21 O          17.6806  -25.5908  -40.4822 O.2       2 UNK        -0.4875 
     22 CA         16.6881  -24.6122  -42.4427 C.3       2 UNK         0.0481 
     23 CB         17.2710  -23.2407  -42.0436 C.3       2 UNK        -0.1831 
     24 N          16.7180  -24.7609  -43.9081 N.am      2 UNK        -0.4498 
     25 C          17.7932  -24.9186  -44.7001 C.2       1 UNK         0.5027 
     26 O          18.9498  -24.9897  -44.2830 O.2       1 UNK        -0.4969 
     27 C          19.8466  -27.7099  -41.6056 C.2       3 UNK         0.5005 
     28 O          20.4879  -28.3830  -40.7955 O.2       3 UNK        -0.5279 
     29 N          20.3656  -26.6507  -42.2484 N.am      4 UNK        -0.4463 
     30 CA         21.7196  -26.1386  -42.0465 C.3       4 UNK         0.0283 
     31 CB         21.8059  -24.6992  -42.5790 C.3       4 UNK        -0.1875 
     32 C          22.7660  -27.0333  -42.7259 C.2       4 UNK         0.4949 
     33 O          22.6208  -27.3607  -43.9051 O.2       4 UNK        -0.5039 
     34 N          23.8157  -27.3710  -41.9740 N.am      5 UNK        -0.4663 
     35 CA         24.9629  -28.1799  -42.3749 C.3       5 UNK         0.0242 
     36 CB         24.5431  -29.6535  -42.5463 C.3       5 UNK        -0.1982 
     37 C          26.0374  -28.0434  -41.2886 C.2       5 UNK         0.5017 
     38 O          25.7555  -27.4926  -40.2195 O.2       5 UNK        -0.5012 
     39 N          27.2385  -28.5725  -41.5614 N.am      6 UNK        -0.4439 
     40 CA         28.3330  -28.6738  -40.5876 C.3       6 UNK         0.0297 
     41 CB         29.6162  -29.1408  -41.2940 C.3       6 UNK        -0.2006 
     42 C          27.9893  -29.6056  -39.4097 C.2       6 UNK         0.4892 
     43 O          28.3321  -29.2934  -38.2689 O.2       6 UNK        -0.5089 
     44 N          27.2870  -30.7042  -39.7112 N.am      7 UNK        -0.4243 
     45 CA         26.7057  -31.6501  -38.7664 C.3       7 UNK         0.0196 
     46 CB         27.7986  -32.5262  -38.1240 C.3       7 UNK        -0.2007 
     47 C          25.7028  -32.5203  -39.5304 C.2       7 UNK         0.5020 
     48 O          25.9303  -32.8063  -40.7086 O.2       7 UNK        -0.5147 
     49 N          24.6341  -32.9414  -38.8410 N.am      8 UNK        -0.4734 
     50 CA         23.6022  -33.9260  -39.2174 C.3       8 UNK         0.0238 
     51 CB         24.2286  -35.3284  -39.3499 C.3       8 UNK        -0.1912 
     52 C          22.7294  -33.6192  -40.4533 C.2       8 UNK         0.5038 
     53 O          21.5600  -34.0053  -40.4541 O.2       8 UNK        -0.5046 
     54 N          23.2953  -32.9753  -41.4802 N.am      9 UNK        -0.4200 
     55 CA         22.7090  -32.7857  -42.8190 C.3       9 UNK         0.0839 
     56 C          22.6361  -34.1015  -43.6585 C.2       9 UNK         0.5513 
     57 N          23.3975  -35.1372  -43.3232 N.am      9 UNK        -0.7519 
     58 O          21.9087  -34.1896  -44.6426 O.2       9 UNK        -0.4960 
     59 C59        21.3802  -31.9681  -42.7865 C.3       10 UNK        -0.0876 
     60 S60        21.1576  -30.8967  -44.2512 S.3       10 UNK        -0.2414 
     61 C61        19.7795  -31.7093  -45.1228 C.3       10 UNK         0.0169 
     62 H62        14.4361  -22.8093  -47.4478 H         1 UNK         0.0903 
     63 H63        14.8862  -21.4466  -46.4207 H         1 UNK         0.0903 
     64 H64        15.4672  -21.5275  -48.0861 H         1 UNK         0.0903 
     65 H65        15.5904  -24.6670  -46.9492 H         1 UNK         0.3096 
     66 H66        18.4386  -24.7320  -46.7119 H         1 UNK         0.1121 
     67 H67        17.3762  -26.6450  -47.6882 H         1 UNK         0.0849 
     68 H68        18.0648  -27.1864  -46.1860 H         1 UNK         0.0849 
     69 H69        14.7799  -29.3535  -46.6645 H         1 UNK         0.0865 
     70 H70        16.2604  -29.0406  -47.5304 H         1 UNK         0.0865 
     71 H71        18.2335  -30.1460  -46.7346 H         1 UNK         0.1346 
     72 H72        18.3504  -31.8520  -42.8009 H         1 UNK         0.1412 
     73 H73        14.9830  -29.4949  -44.0144 H         1 UNK         0.1426 
     74 H74        16.5464  -31.5639  -41.2740 H         1 UNK         0.0716 
     75 H75        14.9801  -31.2248  -41.9700 H         1 UNK         0.0716 
     76 H76        17.7901  -28.3128  -39.7969 H         1 UNK         0.0695 
     77 H77        18.2409  -29.8080  -40.5710 H         1 UNK         0.0695 
     78 H78        18.4134  -28.7132  -42.7627 H         1 UNK         0.0983 
     79 H79        17.2395  -26.9496  -43.2802 H         1 UNK         0.3095 
     80 H80        15.6352  -24.6229  -42.1583 H         1 UNK         0.0454 
     81 H81        18.3414  -23.1840  -42.2448 H         1 UNK         0.0851 
     82 H82        16.7854  -22.4297  -42.5862 H         1 UNK         0.0851 
     83 H83        17.1294  -23.0455  -40.9800 H         1 UNK         0.0851 
     84 H84        15.8159  -24.7520  -44.3644 H         1 UNK         0.2976 
     85 H85        19.7978  -26.1573  -42.9315 H         1 UNK         0.3116 
     86 H86        21.9138  -26.1113  -40.9718 H         1 UNK         0.0646 
     87 H87        22.7927  -24.2731  -42.3939 H         1 UNK         0.0847 
     88 H88        21.0752  -24.0511  -42.0947 H         1 UNK         0.0847 
     89 H89        21.6292  -24.6563  -43.6547 H         1 UNK         0.0847 
     90 H90        23.8861  -27.0302  -41.0214 H         1 UNK         0.3040 
     91 H91        25.3630  -27.7908  -43.3137 H         1 UNK         0.1015 
     92 H92        23.8089  -29.7624  -43.3435 H         1 UNK         0.0786 
     93 H93        24.1033  -30.0542  -41.6319 H         1 UNK         0.0786 
     94 H94        25.3903  -30.2877  -42.8092 H         1 UNK         0.0786 
     95 H95        27.3949  -28.9885  -42.4688 H         1 UNK         0.3172 
     96 H96        28.5132  -27.6764  -40.1805 H         1 UNK         0.0595 
     97 H97        29.9133  -28.4455  -42.0794 H         1 UNK         0.0839 
     98 H98        29.4974  -30.1271  -41.7442 H         1 UNK         0.0839 
     99 H99        30.4466  -29.2035  -40.5891 H         1 UNK         0.0839 
    100 H100       27.0528  -30.8948  -40.6772 H         1 UNK         0.2998 
    101 H101       26.1779  -31.0900  -37.9915 H         1 UNK         0.0822 
    102 H102       28.4995  -31.9313  -37.5386 H         1 UNK         0.0787 
    103 H103       27.3624  -33.2638  -37.4490 H         1 UNK         0.0787 
    104 H104       28.3698  -33.0704  -38.8773 H         1 UNK         0.0787 
    105 H105       24.5412  -32.5945  -37.8953 H         1 UNK         0.3055 
    106 H106       22.9115  -33.9592  -38.3727 H         1 UNK         0.1106 
    107 H107       24.9612  -35.3731  -40.1563 H         1 UNK         0.0828 
    108 H108       24.7282  -35.6274  -38.4284 H         1 UNK         0.0828 
    109 H109       23.4669  -36.0805  -39.5612 H         1 UNK         0.0828 
    110 H110       24.2859  -32.7588  -41.3883 H         1 UNK         0.2931 
    111 H111       23.4515  -32.1825  -43.3407 H         1 UNK         0.0412 
    112 H112       23.3530  -35.9795  -43.8755 H         1 UNK         0.3472 
    113 H113       24.0242  -35.0802  -42.5371 H         1 UNK         0.3472 
    114 H114       21.3758  -31.2998  -41.9237 H         1 UNK         0.0970 
    115 H115       20.5236  -32.6283  -42.6475 H         1 UNK         0.0970 
    116 H116       19.7402  -32.7709  -44.8798 H         1 UNK         0.0612 
    117 H117       19.9774  -31.6556  -46.1943 H         1 UNK         0.0612 
@<TRIPOS>BOND
     1    1    2 1    
     2    1   62 1    
     3    1   63 1    
     4    1   64 1    
     5    2    3 2    
     6    2    4 am   BACKBONE|DICT|INTERRES
     7    4    5 1    
     8    4   65 1    
     9    5    6 1    
    10    5   25 1    
    11    5   66 1    
    12    6    7 1    
    13    6   67 1    
    14    6   68 1    
    15    7    8 1    
    16    8    9 1    
    17    8   69 1    
    18    8   70 1    
    19    9   10 ar   
    20    9   14 ar   
    21   10   11 ar   
    22   10   71 1    
    23   11   12 ar   
    24   11   61 1    
    25   12   13 ar   
    26   12   72 1    
    27   13   14 ar   
    28   13   15 1    
    29   14   73 1    
    30   15   16 1    
    31   15   74 1    
    32   15   75 1    
    33   16   17 1    
    34   17   18 1    
    35   17   76 1    
    36   17   77 1    
    37   18   19 1    
    38   18   27 1    
    39   18   78 1    
    40   19   20 am   BACKBONE|DICT|INTERRES
    41   19   79 1    
    42   20   21 2    
    43   20   22 1    
    44   22   23 1    
    45   22   24 1    
    46   22   80 1    
    47   23   81 1    
    48   23   82 1    
    49   23   83 1    
    50   24   25 am   BACKBONE|DICT|INTERRES
    51   24   84 1    
    52   25   26 2    
    53   27   28 2    
    54   27   29 am   BACKBONE|DICT|INTERRES
    55   29   30 1    
    56   29   85 1    
    57   30   31 1    
    58   30   32 1    
    59   30   86 1    
    60   31   87 1    
    61   31   88 1    
    62   31   89 1    
    63   32   33 2    
    64   32   34 am   BACKBONE|DICT|INTERRES
    65   34   35 1    
    66   34   90 1    
    67   35   36 1    
    68   35   37 1    
    69   35   91 1    
    70   36   92 1    
    71   36   93 1    
    72   36   94 1    
    73   37   38 2    
    74   37   39 am   BACKBONE|DICT|INTERRES
    75   39   40 1    
    76   39   95 1    
    77   40   41 1    
    78   40   42 1    
    79   40   96 1    
    80   41   97 1    
    81   41   98 1    
    82   41   99 1    
    83   42   43 2    
    84   42   44 am   BACKBONE|DICT|INTERRES
    85   44   45 1    
    86   44  100 1    
    87   45   46 1    
    88   45   47 1    
    89   45  101 1    
    90   46  102 1    
    91   46  103 1    
    92   46  104 1    
    93   47   48 2    
    94   47   49 am   BACKBONE|DICT|INTERRES
    95   49   50 1    
    96   49  105 1    
    97   50   51 1    
    98   50   52 1    
    99   50  106 1    
   100   51  107 1    
   101   51  108 1    
   102   51  109 1    
   103   52   53 2    
   104   52   54 am   BACKBONE|DICT|INTERRES
   105   54   55 1    
   106   54  110 1    
   107   55   56 1    
   108   55   59 1    
   109   55  111 1    
   110   56   57 am   BACKBONE|DICT|INTERRES
   111   56   58 2    
   112   57  112 1    
   113   57  113 1    
   114   59   60 1    
   115   59  114 1    
   116   59  115 1    
   117   60   61 1    
   118   61  116 1    
   119   61  117 1    
@<TRIPOS>SUBSTRUCTURE
     1 UNK         1 GROUP             0       ****    0 ROOT    
