@<TRIPOS>MOLECULE
3R8
117   119    1
SMALL
USER_CHARGES


@<TRIPOS>ATOM
      1 CA         23.0891  -26.3297  -48.8312 C.3       0 UNK        -0.2013 
      2 C          22.7535  -27.0199  -47.5178 C.2       0 UNK         0.4866 
      3 O          23.4173  -26.7765  -46.5104 O.2       0 UNK        -0.5176 
      4 N          21.7283  -27.8816  -47.5201 N.am      1 UNK        -0.4884 
      5 CA         21.2502  -28.6106  -46.3382 C.3       1 UNK         0.0853 
      6 C6         20.4557  -29.8789  -46.7419 C.3       10 UNK        -0.0849 
      7 S7         18.8990  -29.5247  -47.6411 S.3       10 UNK        -0.2776 
      8 C8         17.6748  -30.5249  -46.7322 C.3       10 UNK         0.0316 
      9 C9         17.4598  -30.0647  -45.2942 C.ar      10 UNK        -0.0863 
     10 C10        18.0458  -30.7716  -44.2406 C.ar      10 UNK        -0.1009 
     11 C11        17.8092  -30.3996  -42.9159 C.ar      10 UNK        -0.0712 
     12 C12        16.9558  -29.3285  -42.6443 C.ar      10 UNK        -0.0894 
     13 C13        16.3804  -28.5888  -43.6860 C.ar      10 UNK        -0.0745 
     14 C14        16.6387  -28.9672  -45.0100 C.ar      10 UNK        -0.0972 
     15 C15        15.4331  -27.4191  -43.4109 C.3       10 UNK         0.0209 
     16 S16        15.7427  -26.5325  -41.8406 S.3       10 UNK        -0.2568 
     17 C17        17.0844  -25.3835  -42.2913 C.3       10 UNK        -0.0983 
     18 CA         18.5078  -25.9915  -42.1748 C.3       3 UNK         0.0876 
     19 N          19.5207  -25.1085  -42.7432 N.am      3 UNK        -0.4424 
     20 C          19.8562  -24.9510  -44.0290 C.2       2 UNK         0.4918 
     21 O          20.7945  -24.2274  -44.3621 O.2       2 UNK        -0.4875 
     22 CA         19.0538  -25.6685  -45.1384 C.3       2 UNK         0.0481 
     23 CB         18.4514  -24.6512  -46.1214 C.3       2 UNK        -0.1831 
     24 N          19.8871  -26.6125  -45.8770 N.am      2 UNK        -0.4498 
     25 C          20.4492  -27.7180  -45.3652 C.2       1 UNK         0.5027 
     26 O          20.3446  -28.0564  -44.1878 O.2       1 UNK        -0.4969 
     27 C          18.9249  -26.2583  -40.7205 C.2       3 UNK         0.5005 
     28 O          19.3286  -25.3185  -40.0298 O.2       3 UNK        -0.5279 
     29 N          18.8321  -27.5253  -40.2919 N.am      4 UNK        -0.4463 
     30 CA         19.0607  -28.0779  -38.9467 C.3       4 UNK         0.0283 
     31 CB         18.0924  -27.4609  -37.9195 C.3       4 UNK        -0.1875 
     32 C          20.5137  -28.0131  -38.4399 C.2       4 UNK         0.4949 
     33 O          21.0015  -28.9980  -37.8869 O.2       4 UNK        -0.5039 
     34 N          21.1754  -26.8667  -38.6239 N.am      5 UNK        -0.4663 
     35 CA         22.5514  -26.6032  -38.1949 C.3       5 UNK         0.0242 
     36 CB         22.7083  -25.0907  -37.9640 C.3       5 UNK        -0.1982 
     37 C          23.6129  -27.1083  -39.1893 C.2       5 UNK         0.5017 
     38 O          24.7955  -27.1183  -38.8440 O.2       5 UNK        -0.5012 
     39 N          23.1923  -27.4843  -40.4046 N.am      6 UNK        -0.4439 
     40 CA         24.0582  -27.9864  -41.4715 C.3       6 UNK         0.0297 
     41 CB         23.2691  -28.0021  -42.7893 C.3       6 UNK        -0.2006 
     42 C          24.5917  -29.3940  -41.1647 C.2       6 UNK         0.4892 
     43 O          23.8910  -30.1973  -40.5464 O.2       6 UNK        -0.5089 
     44 N          25.7958  -29.6908  -41.6725 N.am      7 UNK        -0.4243 
     45 CA         26.4671  -30.9917  -41.5454 C.3       7 UNK         0.0196 
     46 CB         27.9056  -30.8677  -42.0740 C.3       7 UNK        -0.2007 
     47 C          25.7346  -32.1540  -42.2449 C.2       7 UNK         0.5020 
     48 O          25.9861  -33.3123  -41.9129 O.2       7 UNK        -0.5147 
     49 N          24.8421  -31.8305  -43.1908 N.am      8 UNK        -0.4734 
     50 CA         23.9530  -32.7774  -43.8666 C.3       8 UNK         0.0238 
     51 CB         23.3272  -32.0849  -45.0897 C.3       8 UNK        -0.1912 
     52 C          22.8448  -33.3366  -42.9541 C.2       8 UNK         0.5038 
     53 O          22.3326  -34.4200  -43.2397 O.2       8 UNK        -0.5046 
     54 N          22.4747  -32.5909  -41.9050 N.am      9 UNK        -0.4200 
     55 CA         21.4131  -32.9548  -40.9586 C.3       9 UNK         0.0839 
     56 C          21.9003  -33.9787  -39.9007 C.2       9 UNK         0.5513 
     57 N          21.0089  -34.8295  -39.4104 N.am      9 UNK        -0.7519 
     58 O          23.0594  -33.9883  -39.4919 O.2       9 UNK        -0.4960 
     59 C59        20.7931  -31.7047  -40.2826 C.3       10 UNK        -0.0876 
     60 S60        20.1556  -30.5050  -41.4989 S.3       10 UNK        -0.2414 
     61 C61        18.4827  -31.1551  -41.7831 C.3       10 UNK         0.0169 
     62 H62        22.4264  -26.6420  -49.6381 H         1 UNK         0.0903 
     63 H63        23.0021  -25.2492  -48.7197 H         1 UNK         0.0903 
     64 H64        24.1127  -26.5604  -49.1250 H         1 UNK         0.0903 
     65 H65        21.2151  -28.0552  -48.3740 H         1 UNK         0.3096 
     66 H66        22.1291  -28.9440  -45.7815 H         1 UNK         0.1121 
     67 H67        20.2515  -30.4806  -45.8566 H         1 UNK         0.0849 
     68 H68        21.0759  -30.5124  -47.3780 H         1 UNK         0.0849 
     69 H69        16.7248  -30.4809  -47.2667 H         1 UNK         0.0865 
     70 H70        17.9812  -31.5720  -46.7577 H         1 UNK         0.0865 
     71 H71        18.6893  -31.6159  -44.4469 H         1 UNK         0.1346 
     72 H72        16.7416  -29.0758  -41.6159 H         1 UNK         0.1412 
     73 H73        16.1831  -28.4206  -45.8247 H         1 UNK         0.1426 
     74 H74        14.4166  -27.8134  -43.3812 H         1 UNK         0.0716 
     75 H75        15.4592  -26.7053  -44.2357 H         1 UNK         0.0716 
     76 H76        16.9995  -24.5002  -41.6553 H         1 UNK         0.0695 
     77 H77        16.8938  -25.0236  -43.3023 H         1 UNK         0.0695 
     78 H78        18.5442  -26.9462  -42.6997 H         1 UNK         0.0983 
     79 H79        20.0546  -24.6208  -42.0356 H         1 UNK         0.3095 
     80 H80        18.2225  -26.2410  -44.7326 H         1 UNK         0.0454 
     81 H81        17.8070  -23.9420  -45.6003 H         1 UNK         0.0851 
     82 H82        17.8419  -25.1437  -46.8793 H         1 UNK         0.0851 
     83 H83        19.2229  -24.0744  -46.6332 H         1 UNK         0.0851 
     84 H84        20.0530  -26.4113  -46.8515 H         1 UNK         0.2976 
     85 H85        18.5829  -28.2214  -40.9817 H         1 UNK         0.3116 
     86 H86        18.8114  -29.1374  -39.0250 H         1 UNK         0.0646 
     87 H87        18.2753  -26.3959  -37.7730 H         1 UNK         0.0847 
     88 H88        17.0547  -27.5825  -38.2304 H         1 UNK         0.0847 
     89 H89        18.1981  -27.9433  -36.9469 H         1 UNK         0.0847 
     90 H90        20.6693  -26.1074  -39.0773 H         1 UNK         0.3040 
     91 H91        22.7307  -27.1147  -37.2464 H         1 UNK         0.1015 
     92 H92        23.7119  -24.8491  -37.6108 H         1 UNK         0.0786 
     93 H93        22.0068  -24.7300  -37.2114 H         1 UNK         0.0786 
     94 H94        22.5385  -24.5234  -38.8801 H         1 UNK         0.0786 
     95 H95        22.1982  -27.4968  -40.5755 H         1 UNK         0.3172 
     96 H96        24.9013  -27.3000  -41.5759 H         1 UNK         0.0595 
     97 H97        22.4473  -28.7186  -42.7513 H         1 UNK         0.0839 
     98 H98        23.9058  -28.2814  -43.6295 H         1 UNK         0.0839 
     99 H99        22.8488  -27.0225  -43.0193 H         1 UNK         0.0839 
    100 H100       26.2968  -28.9754  -42.1805 H         1 UNK         0.2998 
    101 H101       26.5117  -31.2372  -40.4821 H         1 UNK         0.0822 
    102 H102       28.4449  -31.8098  -41.9640 H         1 UNK         0.0787 
    103 H103       27.9257  -30.6029  -43.1319 H         1 UNK         0.0787 
    104 H104       28.4672  -30.1109  -41.5258 H         1 UNK         0.0787 
    105 H105       24.7200  -30.8532  -43.4093 H         1 UNK         0.3055 
    106 H106       24.5512  -33.6236  -44.2123 H         1 UNK         0.1106 
    107 H107       24.0906  -31.7300  -45.7823 H         1 UNK         0.0828 
    108 H108       22.6863  -32.7736  -45.6423 H         1 UNK         0.0828 
    109 H109       22.7118  -31.2330  -44.7979 H         1 UNK         0.0828 
    110 H110       22.9829  -31.7419  -41.6878 H         1 UNK         0.2931 
    111 H111       20.6185  -33.4374  -41.5315 H         1 UNK         0.0412 
    112 H112       21.3002  -35.4948  -38.7108 H         1 UNK         0.3472 
    113 H113       20.0534  -34.8293  -39.7324 H         1 UNK         0.3472 
    114 H114       19.9845  -31.9869  -39.6058 H         1 UNK         0.0970 
    115 H115       21.5367  -31.1967  -39.6654 H         1 UNK         0.0970 
    116 H116       18.5375  -32.2165  -42.0290 H         1 UNK         0.0612 
    117 H117       17.8991  -31.0756  -40.8647 H         1 UNK         0.0612 
@<TRIPOS>BOND
     1    1    2 1    
     2    1   62 1    
     3    1   63 1    
     4    1   64 1    
     5    2    3 2    
     6    2    4 am   BACKBONE|DICT|INTERRES
     7    4    5 1    
     8    4   65 1    
     9    5    6 1    
    10    5   25 1    
    11    5   66 1    
    12    6    7 1    
    13    6   67 1    
    14    6   68 1    
    15    7    8 1    
    16    8    9 1    
    17    8   69 1    
    18    8   70 1    
    19    9   10 ar   
    20    9   14 ar   
    21   10   11 ar   
    22   10   71 1    
    23   11   12 ar   
    24   11   61 1    
    25   12   13 ar   
    26   12   72 1    
    27   13   14 ar   
    28   13   15 1    
    29   14   73 1    
    30   15   16 1    
    31   15   74 1    
    32   15   75 1    
    33   16   17 1    
    34   17   18 1    
    35   17   76 1    
    36   17   77 1    
    37   18   19 1    
    38   18   27 1    
    39   18   78 1    
    40   19   20 am   BACKBONE|DICT|INTERRES
    41   19   79 1    
    42   20   21 2    
    43   20   22 1    
    44   22   23 1    
    45   22   24 1    
    46   22   80 1    
    47   23   81 1    
    48   23   82 1    
    49   23   83 1    
    50   24   25 am   BACKBONE|DICT|INTERRES
    51   24   84 1    
    52   25   26 2    
    53   27   28 2    
    54   27   29 am   BACKBONE|DICT|INTERRES
    55   29   30 1    
    56   29   85 1    
    57   30   31 1    
    58   30   32 1    
    59   30   86 1    
    60   31   87 1    
    61   31   88 1    
    62   31   89 1    
    63   32   33 2    
    64   32   34 am   BACKBONE|DICT|INTERRES
    65   34   35 1    
    66   34   90 1    
    67   35   36 1    
    68   35   37 1    
    69   35   91 1    
    70   36   92 1    
    71   36   93 1    
    72   36   94 1    
    73   37   38 2    
    74   37   39 am   BACKBONE|DICT|INTERRES
    75   39   40 1    
    76   39   95 1    
    77   40   41 1    
    78   40   42 1    
    79   40   96 1    
    80   41   97 1    
    81   41   98 1    
    82   41   99 1    
    83   42   43 2    
    84   42   44 am   BACKBONE|DICT|INTERRES
    85   44   45 1    
    86   44  100 1    
    87   45   46 1    
    88   45   47 1    
    89   45  101 1    
    90   46  102 1    
    91   46  103 1    
    92   46  104 1    
    93   47   48 2    
    94   47   49 am   BACKBONE|DICT|INTERRES
    95   49   50 1    
    96   49  105 1    
    97   50   51 1    
    98   50   52 1    
    99   50  106 1    
   100   51  107 1    
   101   51  108 1    
   102   51  109 1    
   103   52   53 2    
   104   52   54 am   BACKBONE|DICT|INTERRES
   105   54   55 1    
   106   54  110 1    
   107   55   56 1    
   108   55   59 1    
   109   55  111 1    
   110   56   57 am   BACKBONE|DICT|INTERRES
   111   56   58 2    
   112   57  112 1    
   113   57  113 1    
   114   59   60 1    
   115   59  114 1    
   116   59  115 1    
   117   60   61 1    
   118   61  116 1    
   119   61  117 1    
@<TRIPOS>SUBSTRUCTURE
     1 UNK         1 GROUP             0       ****    0 ROOT    
