@<TRIPOS>MOLECULE
3R8
117   119    1
SMALL
USER_CHARGES


@<TRIPOS>ATOM
      1 CA         16.7952  -23.6886  -40.1104 C.3       0 UNK        -0.2013 
      2 C          16.6644  -24.2265  -41.5276 C.2       0 UNK         0.4866 
      3 O          15.5984  -24.1096  -42.1322 O.2       0 UNK        -0.5176 
      4 N          17.7403  -24.8122  -42.0608 N.am      1 UNK        -0.4884 
      5 CA         17.8366  -25.3628  -43.4112 C.3       1 UNK         0.0853 
      6 C6         17.0983  -26.7240  -43.5557 C.3       10 UNK        -0.0849 
      7 S7         16.2862  -26.8657  -45.1779 S.3       10 UNK        -0.2776 
      8 C8         15.5799  -28.5478  -45.0825 C.3       10 UNK         0.0316 
      9 C9         16.5910  -29.6636  -45.3405 C.ar      10 UNK        -0.0863 
     10 C10        16.5199  -30.8550  -44.6073 C.ar      10 UNK        -0.1009 
     11 C11        17.3978  -31.9107  -44.8785 C.ar      10 UNK        -0.0712 
     12 C12        18.3312  -31.7794  -45.9086 C.ar      10 UNK        -0.0894 
     13 C13        18.4753  -30.5648  -46.5827 C.ar      10 UNK        -0.0745 
     14 C14        17.5787  -29.5265  -46.3230 C.ar      10 UNK        -0.0972 
     15 C15        19.6497  -30.3389  -47.5256 C.3       10 UNK         0.0209 
     16 S16        21.2880  -30.7378  -46.7984 S.3       10 UNK        -0.2568 
     17 C17        21.1341  -30.4953  -44.9863 C.3       10 UNK        -0.0983 
     18 CA         21.8365  -29.2293  -44.4651 C.3       3 UNK         0.0876 
     19 N          21.2459  -28.0082  -45.0179 N.am      3 UNK        -0.4424 
     20 C          21.8514  -26.8152  -45.0048 C.2       2 UNK         0.4918 
     21 O          22.9716  -26.6226  -44.5315 O.2       2 UNK        -0.4875 
     22 CA         21.0390  -25.6327  -45.5615 C.3       2 UNK         0.0481 
     23 CB         21.0257  -25.6605  -47.0982 C.3       2 UNK        -0.1831 
     24 N          19.6607  -25.5740  -45.0535 N.am      2 UNK        -0.4498 
     25 C          19.3315  -25.4689  -43.7584 C.2       1 UNK         0.5027 
     26 O          20.1609  -25.4778  -42.8440 O.2       1 UNK        -0.4969 
     27 C          21.8250  -29.2353  -42.9224 C.2       3 UNK         0.5005 
     28 O          22.6501  -29.9226  -42.3212 O.2       3 UNK        -0.5279 
     29 N          20.8991  -28.4944  -42.2957 N.am      4 UNK        -0.4463 
     30 CA         20.8348  -28.3364  -40.8410 C.3       4 UNK         0.0283 
     31 CB         19.4418  -27.8543  -40.4103 C.3       4 UNK        -0.1875 
     32 C          21.9445  -27.4086  -40.3266 C.2       4 UNK         0.4949 
     33 O          22.5653  -27.7195  -39.3119 O.2       4 UNK        -0.5039 
     34 N          22.2327  -26.3335  -41.0743 N.am      5 UNK        -0.4663 
     35 CA         23.3784  -25.4445  -40.8540 C.3       5 UNK         0.0242 
     36 CB         23.2646  -24.2263  -41.7839 C.3       5 UNK        -0.1982 
     37 C          24.7301  -26.1578  -41.0461 C.2       5 UNK         0.5017 
     38 O          25.6815  -25.8564  -40.3258 O.2       5 UNK        -0.5012 
     39 N          24.7729  -27.1214  -41.9778 N.am      6 UNK        -0.4439 
     40 CA         25.8998  -28.0334  -42.2007 C.3       6 UNK         0.0297 
     41 CB         25.7980  -28.6158  -43.6203 C.3       6 UNK        -0.2006 
     42 C          25.9983  -29.1707  -41.1601 C.2       6 UNK         0.4892 
     43 O          26.9729  -29.9223  -41.2014 O.2       6 UNK        -0.5089 
     44 N          25.0022  -29.2890  -40.2672 N.am      7 UNK        -0.4243 
     45 CA         24.8532  -30.2922  -39.2050 C.3       7 UNK         0.0196 
     46 CB         26.0015  -30.1925  -38.1777 C.3       7 UNK        -0.2007 
     47 C          24.6291  -31.7303  -39.7161 C.2       7 UNK         0.5020 
     48 O          24.8867  -32.6822  -38.9780 O.2       7 UNK        -0.5147 
     49 N          24.1207  -31.8750  -40.9465 N.am      8 UNK        -0.4734 
     50 CA         23.7321  -33.1568  -41.5404 C.3       8 UNK         0.0238 
     51 CB         23.9692  -33.1105  -43.0583 C.3       8 UNK        -0.1912 
     52 C          22.2697  -33.5071  -41.2187 C.2       8 UNK         0.5038 
     53 O          21.9751  -34.6776  -40.9747 O.2       8 UNK        -0.5046 
     54 N          21.4001  -32.4882  -41.1925 N.am      9 UNK        -0.4200 
     55 CA         19.9853  -32.5721  -40.7816 C.3       9 UNK         0.0839 
     56 C          19.7028  -31.7723  -39.4758 C.2       9 UNK         0.5513 
     57 N          20.7110  -31.4263  -38.6834 N.am      9 UNK        -0.7519 
     58 O          18.5546  -31.4725  -39.1607 O.2       9 UNK        -0.4960 
     59 C59        19.0198  -32.1976  -41.9433 C.3       10 UNK        -0.0876 
     60 S60        18.9895  -33.4868  -43.2346 S.3       10 UNK        -0.2414 
     61 C61        17.3787  -33.1833  -44.0432 C.3       10 UNK         0.0169 
     62 H62        16.0637  -24.1664  -39.4592 H         1 UNK         0.0903 
     63 H63        17.7868  -23.8691  -39.6954 H         1 UNK         0.0903 
     64 H64        16.6126  -22.6144  -40.0982 H         1 UNK         0.0903 
     65 H65        18.6214  -24.8355  -41.5604 H         1 UNK         0.3096 
     66 H66        17.3991  -24.6217  -44.0847 H         1 UNK         0.1121 
     67 H67        17.7599  -27.5778  -43.3943 H         1 UNK         0.0849 
     68 H68        16.3138  -26.8181  -42.8031 H         1 UNK         0.0849 
     69 H69        15.0981  -28.6769  -44.1119 H         1 UNK         0.0865 
     70 H70        14.7886  -28.6308  -45.8286 H         1 UNK         0.0865 
     71 H71        15.7797  -30.9625  -43.8260 H         1 UNK         0.1346 
     72 H72        19.0241  -32.5859  -46.1076 H         1 UNK         0.1412 
     73 H73        17.6636  -28.6011  -46.8755 H         1 UNK         0.1426 
     74 H74        19.5063  -30.9429  -48.4223 H         1 UNK         0.0716 
     75 H75        19.6758  -29.3005  -47.8593 H         1 UNK         0.0716 
     76 H76        21.5615  -31.3870  -44.5258 H         1 UNK         0.0695 
     77 H77        20.1015  -30.4762  -44.6505 H         1 UNK         0.0695 
     78 H78        22.8807  -29.2728  -44.7799 H         1 UNK         0.0983 
     79 H79        20.3315  -28.0937  -45.4357 H         1 UNK         0.3095 
     80 H80        21.5414  -24.7158  -45.2458 H         1 UNK         0.0454 
     81 H81        20.4939  -26.5298  -47.4868 H         1 UNK         0.0851 
     82 H82        20.5523  -24.7677  -47.5070 H         1 UNK         0.0851 
     83 H83        22.0409  -25.6956  -47.4964 H         1 UNK         0.0851 
     84 H84        18.9206  -25.5789  -45.7420 H         1 UNK         0.2976 
     85 H85        20.2801  -27.9216  -42.8490 H         1 UNK         0.3116 
     86 H86        20.9988  -29.3139  -40.3882 H         1 UNK         0.0646 
     87 H87        18.6616  -28.5319  -40.7578 H         1 UNK         0.0847 
     88 H88        19.3693  -27.8124  -39.3227 H         1 UNK         0.0847 
     89 H89        19.2174  -26.8583  -40.7864 H         1 UNK         0.0847 
     90 H90        21.6253  -26.1093  -41.8591 H         1 UNK         0.3040 
     91 H91        23.3361  -25.0943  -39.8203 H         1 UNK         0.1015 
     92 H92        23.2857  -24.5157  -42.8350 H         1 UNK         0.0786 
     93 H93        24.0887  -23.5308  -41.6194 H         1 UNK         0.0786 
     94 H94        22.3379  -23.6795  -41.6081 H         1 UNK         0.0786 
     95 H95        23.9591  -27.2459  -42.5669 H         1 UNK         0.3172 
     96 H96        26.8237  -27.4547  -42.1390 H         1 UNK         0.0595 
     97 H97        24.9577  -29.3026  -43.7133 H         1 UNK         0.0839 
     98 H98        26.6986  -29.1761  -43.8750 H         1 UNK         0.0839 
     99 H99        25.6817  -27.8325  -44.3698 H         1 UNK         0.0839 
    100 H100       24.2435  -28.6202  -40.3197 H         1 UNK         0.2998 
    101 H101       23.9333  -30.0262  -38.6825 H         1 UNK         0.0822 
    102 H102       25.8004  -30.8131  -37.3036 H         1 UNK         0.0787 
    103 H103       26.9517  -30.5238  -38.5974 H         1 UNK         0.0787 
    104 H104       26.1283  -29.1695  -37.8234 H         1 UNK         0.0787 
    105 H105       23.8725  -31.0387  -41.4715 H         1 UNK         0.3055 
    106 H106       24.3574  -33.9534  -41.1300 H         1 UNK         0.1106 
    107 H107       25.0266  -32.9761  -43.2862 H         1 UNK         0.0828 
    108 H108       23.6498  -34.0388  -43.5340 H         1 UNK         0.0828 
    109 H109       23.4234  -32.2951  -43.5305 H         1 UNK         0.0828 
    110 H110       21.7469  -31.5615  -41.4096 H         1 UNK         0.2931 
    111 H111       19.7562  -33.6010  -40.4989 H         1 UNK         0.0412 
    112 H112       20.5163  -30.9196  -37.8343 H         1 UNK         0.3472 
    113 H113       21.6512  -31.7146  -38.8966 H         1 UNK         0.3472 
    114 H114       17.9979  -32.0799  -41.5788 H         1 UNK         0.0970 
    115 H115       19.2948  -31.2404  -42.3881 H         1 UNK         0.0970 
    116 H116       17.1483  -34.0276  -44.6940 H         1 UNK         0.0612 
    117 H117       16.5917  -33.1504  -43.2883 H         1 UNK         0.0612 
@<TRIPOS>BOND
     1    1    2 1    
     2    1   62 1    
     3    1   63 1    
     4    1   64 1    
     5    2    3 2    
     6    2    4 am   BACKBONE|DICT|INTERRES
     7    4    5 1    
     8    4   65 1    
     9    5    6 1    
    10    5   25 1    
    11    5   66 1    
    12    6    7 1    
    13    6   67 1    
    14    6   68 1    
    15    7    8 1    
    16    8    9 1    
    17    8   69 1    
    18    8   70 1    
    19    9   10 ar   
    20    9   14 ar   
    21   10   11 ar   
    22   10   71 1    
    23   11   12 ar   
    24   11   61 1    
    25   12   13 ar   
    26   12   72 1    
    27   13   14 ar   
    28   13   15 1    
    29   14   73 1    
    30   15   16 1    
    31   15   74 1    
    32   15   75 1    
    33   16   17 1    
    34   17   18 1    
    35   17   76 1    
    36   17   77 1    
    37   18   19 1    
    38   18   27 1    
    39   18   78 1    
    40   19   20 am   BACKBONE|DICT|INTERRES
    41   19   79 1    
    42   20   21 2    
    43   20   22 1    
    44   22   23 1    
    45   22   24 1    
    46   22   80 1    
    47   23   81 1    
    48   23   82 1    
    49   23   83 1    
    50   24   25 am   BACKBONE|DICT|INTERRES
    51   24   84 1    
    52   25   26 2    
    53   27   28 2    
    54   27   29 am   BACKBONE|DICT|INTERRES
    55   29   30 1    
    56   29   85 1    
    57   30   31 1    
    58   30   32 1    
    59   30   86 1    
    60   31   87 1    
    61   31   88 1    
    62   31   89 1    
    63   32   33 2    
    64   32   34 am   BACKBONE|DICT|INTERRES
    65   34   35 1    
    66   34   90 1    
    67   35   36 1    
    68   35   37 1    
    69   35   91 1    
    70   36   92 1    
    71   36   93 1    
    72   36   94 1    
    73   37   38 2    
    74   37   39 am   BACKBONE|DICT|INTERRES
    75   39   40 1    
    76   39   95 1    
    77   40   41 1    
    78   40   42 1    
    79   40   96 1    
    80   41   97 1    
    81   41   98 1    
    82   41   99 1    
    83   42   43 2    
    84   42   44 am   BACKBONE|DICT|INTERRES
    85   44   45 1    
    86   44  100 1    
    87   45   46 1    
    88   45   47 1    
    89   45  101 1    
    90   46  102 1    
    91   46  103 1    
    92   46  104 1    
    93   47   48 2    
    94   47   49 am   BACKBONE|DICT|INTERRES
    95   49   50 1    
    96   49  105 1    
    97   50   51 1    
    98   50   52 1    
    99   50  106 1    
   100   51  107 1    
   101   51  108 1    
   102   51  109 1    
   103   52   53 2    
   104   52   54 am   BACKBONE|DICT|INTERRES
   105   54   55 1    
   106   54  110 1    
   107   55   56 1    
   108   55   59 1    
   109   55  111 1    
   110   56   57 am   BACKBONE|DICT|INTERRES
   111   56   58 2    
   112   57  112 1    
   113   57  113 1    
   114   59   60 1    
   115   59  114 1    
   116   59  115 1    
   117   60   61 1    
   118   61  116 1    
   119   61  117 1    
@<TRIPOS>SUBSTRUCTURE
     1 UNK         1 GROUP             0       ****    0 ROOT    
