@<TRIPOS>MOLECULE
3R8
117   119    1
SMALL
USER_CHARGES


@<TRIPOS>ATOM
      1 CA         20.5408  -22.6752  -42.1366 C.3       0 UNK        -0.2013 
      2 C          19.9082  -23.7989  -42.9442 C.2       0 UNK         0.4866 
      3 O          20.5081  -24.8679  -43.0737 O.2       0 UNK        -0.5176 
      4 N          18.7240  -23.5361  -43.5159 N.am      1 UNK        -0.4884 
      5 CA         17.8789  -24.4278  -44.3325 C.3       1 UNK         0.0853 
      6 C6         16.9567  -25.3509  -43.4823 C.3       10 UNK        -0.0849 
      7 S7         17.7483  -26.8104  -42.7140 S.3       10 UNK        -0.2776 
      8 C8         16.6394  -28.1551  -43.2589 C.3       10 UNK         0.0316 
      9 C9         17.4221  -29.4421  -43.4433 C.ar      10 UNK        -0.0863 
     10 C10        17.5498  -30.3632  -42.4000 C.ar      10 UNK        -0.1009 
     11 C11        18.3675  -31.4895  -42.5448 C.ar      10 UNK        -0.0712 
     12 C12        19.0468  -31.6912  -43.7513 C.ar      10 UNK        -0.0894 
     13 C13        18.9100  -30.7854  -44.8066 C.ar      10 UNK        -0.0745 
     14 C14        18.0745  -29.6765  -44.6541 C.ar      10 UNK        -0.0972 
     15 C15        19.7219  -30.9649  -46.0824 C.3       10 UNK         0.0209 
     16 S16        20.7083  -29.4883  -46.5142 S.3       10 UNK        -0.2568 
     17 C17        21.4240  -28.9804  -44.9086 C.3       10 UNK        -0.0983 
     18 CA         22.2785  -27.6883  -44.9921 C.3       3 UNK         0.0876 
     19 N          21.5138  -26.5213  -45.4553 N.am      3 UNK        -0.4424 
     20 C          21.5157  -26.0604  -46.7150 C.2       2 UNK         0.4918 
     21 O          22.2342  -26.5235  -47.6023 O.2       2 UNK        -0.4875 
     22 CA         20.6055  -24.8631  -47.0629 C.3       2 UNK         0.0481 
     23 CB         19.8687  -25.0671  -48.4038 C.3       2 UNK        -0.1831 
     24 N          19.6779  -24.4612  -45.9992 N.am      2 UNK        -0.4498 
     25 C          18.6022  -25.1103  -45.5231 C.2       1 UNK         0.5027 
     26 O          18.1747  -26.1677  -45.9875 O.2       1 UNK        -0.4969 
     27 C          22.9881  -27.3661  -43.6614 C.2       3 UNK         0.5005 
     28 O          23.0593  -28.2246  -42.7782 O.2       3 UNK        -0.5279 
     29 N          23.5061  -26.1324  -43.5449 N.am      4 UNK        -0.4463 
     30 CA         24.3283  -25.6109  -42.4435 C.3       4 UNK         0.0283 
     31 CB         25.7373  -26.2387  -42.4903 C.3       4 UNK        -0.1875 
     32 C          23.6658  -25.7338  -41.0561 C.2       4 UNK         0.4949 
     33 O          24.3160  -26.1522  -40.0977 O.2       4 UNK        -0.5039 
     34 N          22.3794  -25.3635  -40.9893 N.am      5 UNK        -0.4663 
     35 CA         21.4900  -25.4372  -39.8244 C.3       5 UNK         0.0242 
     36 CB         21.9997  -24.5646  -38.6565 C.3       5 UNK        -0.1982 
     37 C          21.1928  -26.8926  -39.4315 C.2       5 UNK         0.5017 
     38 O          21.3379  -27.2639  -38.2654 O.2       5 UNK        -0.5012 
     39 N          20.7680  -27.6758  -40.4347 N.am      6 UNK        -0.4439 
     40 CA         20.3587  -29.0815  -40.3509 C.3       6 UNK         0.0297 
     41 CB         19.0856  -29.2180  -39.4858 C.3       6 UNK        -0.2006 
     42 C          21.4921  -30.0260  -39.9024 C.2       6 UNK         0.4892 
     43 O          21.2384  -30.9886  -39.1757 O.2       6 UNK        -0.5089 
     44 N          22.7242  -29.7475  -40.3491 N.am      7 UNK        -0.4243 
     45 CA         23.9143  -30.5334  -40.0157 C.3       7 UNK         0.0196 
     46 CB         25.1705  -29.6948  -40.2944 C.3       7 UNK        -0.2007 
     47 C          23.9819  -31.8612  -40.7848 C.2       7 UNK         0.5020 
     48 O          24.5074  -32.8416  -40.2568 O.2       7 UNK        -0.5147 
     49 N          23.4486  -31.8756  -42.0149 N.am      8 UNK        -0.4734 
     50 CA         23.5034  -33.0127  -42.9418 C.3       8 UNK         0.0238 
     51 CB         23.0014  -32.5636  -44.3220 C.3       8 UNK        -0.1912 
     52 C          22.7522  -34.2731  -42.4727 C.2       8 UNK         0.5038 
     53 O          23.0732  -35.3634  -42.9479 O.2       8 UNK        -0.5046 
     54 N          21.7899  -34.1149  -41.5541 N.am      9 UNK        -0.4200 
     55 CA         21.0803  -35.2276  -40.8994 C.3       9 UNK         0.0839 
     56 C          21.8892  -35.8966  -39.7484 C.2       9 UNK         0.5513 
     57 N          23.0441  -35.3786  -39.3432 N.am      9 UNK        -0.7519 
     58 O          21.4618  -36.9176  -39.2158 O.2       9 UNK        -0.4960 
     59 C59        19.6564  -34.8287  -40.4254 C.3       10 UNK        -0.0876 
     60 S60        18.6145  -34.1830  -41.7799 S.3       10 UNK        -0.2414 
     61 C61        18.6020  -32.4125  -41.3555 C.3       10 UNK         0.0169 
     62 H62        20.1407  -21.7017  -42.4191 H         1 UNK         0.0903 
     63 H63        20.3574  -22.8207  -41.0730 H         1 UNK         0.0903 
     64 H64        21.6183  -22.6513  -42.2978 H         1 UNK         0.0903 
     65 H65        18.3266  -22.6180  -43.3675 H         1 UNK         0.3096 
     66 H66        17.1986  -23.7371  -44.8344 H         1 UNK         0.1121 
     67 H67        16.1195  -25.6748  -44.1017 H         1 UNK         0.0849 
     68 H68        16.4996  -24.7676  -42.6817 H         1 UNK         0.0849 
     69 H69        15.8399  -28.2879  -42.5285 H         1 UNK         0.0865 
     70 H70        16.1570  -27.8994  -44.2033 H         1 UNK         0.0865 
     71 H71        17.0521  -30.1745  -41.4590 H         1 UNK         0.1346 
     72 H72        19.7047  -32.5420  -43.8561 H         1 UNK         0.1412 
     73 H73        17.9931  -28.9527  -45.4548 H         1 UNK         0.1426 
     74 H74        19.0433  -31.1882  -46.9064 H         1 UNK         0.0716 
     75 H75        20.3938  -31.8197  -45.9998 H         1 UNK         0.0716 
     76 H76        22.0228  -29.8141  -44.5423 H         1 UNK         0.0695 
     77 H77        20.6258  -28.8309  -44.1808 H         1 UNK         0.0695 
     78 H78        23.0936  -27.8875  -45.6910 H         1 UNK         0.0983 
     79 H79        20.9348  -26.0614  -44.7594 H         1 UNK         0.3095 
     80 H80        21.2779  -24.0139  -47.1923 H         1 UNK         0.0454 
     81 H81        19.2442  -25.9608  -48.3918 H         1 UNK         0.0851 
     82 H82        20.5764  -25.1823  -49.2255 H         1 UNK         0.0851 
     83 H83        19.2335  -24.2148  -48.6440 H         1 UNK         0.0851 
     84 H84        19.9262  -23.6066  -45.5201 H         1 UNK         0.2976 
     85 H85        23.3521  -25.4942  -44.3133 H         1 UNK         0.3116 
     86 H86        24.4415  -24.5412  -42.6258 H         1 UNK         0.0646 
     87 H87        26.2102  -26.0816  -43.4594 H         1 UNK         0.0847 
     88 H88        25.7067  -27.3116  -42.3032 H         1 UNK         0.0847 
     89 H89        26.3908  -25.7956  -41.7378 H         1 UNK         0.0847 
     90 H90        21.9182  -25.1047  -41.8591 H         1 UNK         0.3040 
     91 H91        20.5318  -25.0225  -40.1394 H         1 UNK         0.1015 
     92 H92        22.9230  -24.9529  -38.2262 H         1 UNK         0.0786 
     93 H93        21.2631  -24.5253  -37.8532 H         1 UNK         0.0786 
     94 H94        22.1834  -23.5396  -38.9782 H         1 UNK         0.0786 
     95 H95        20.7147  -27.2627  -41.3563 H         1 UNK         0.3172 
     96 H96        20.1048  -29.3796  -41.3688 H         1 UNK         0.0595 
     97 H97        19.2714  -28.9540  -38.4447 H         1 UNK         0.0839 
     98 H98        18.7092  -30.2397  -39.4893 H         1 UNK         0.0839 
     99 H99        18.2860  -28.5769  -39.8571 H         1 UNK         0.0839 
    100 H100       22.8486  -28.9794  -41.0048 H         1 UNK         0.2998 
    101 H101       23.8885  -30.7659  -38.9487 H         1 UNK         0.0822 
    102 H102       25.1607  -28.7642  -39.7266 H         1 UNK         0.0787 
    103 H103       26.0738  -30.2379  -40.0133 H         1 UNK         0.0787 
    104 H104       25.2560  -29.4423  -41.3517 H         1 UNK         0.0787 
    105 H105       23.0480  -31.0155  -42.3633 H         1 UNK         0.3055 
    106 H106       24.5529  -33.2991  -43.0420 H         1 UNK         0.1106 
    107 H107       23.6184  -31.7622  -44.7289 H         1 UNK         0.0828 
    108 H108       21.9742  -32.2078  -44.2737 H         1 UNK         0.0828 
    109 H109       23.0294  -33.3857  -45.0387 H         1 UNK         0.0828 
    110 H110       21.6112  -33.1894  -41.1950 H         1 UNK         0.2931 
    111 H111       20.9452  -36.0114  -41.6475 H         1 UNK         0.0412 
    112 H112       23.5498  -35.8335  -38.5997 H         1 UNK         0.3472 
    113 H113       23.4245  -34.5399  -39.7665 H         1 UNK         0.3472 
    114 H114       19.7113  -34.1029  -39.6117 H         1 UNK         0.0970 
    115 H115       19.1413  -35.6975  -40.0109 H         1 UNK         0.0970 
    116 H116       17.8498  -32.2514  -40.5821 H         1 UNK         0.0612 
    117 H117       19.5636  -32.1431  -40.9215 H         1 UNK         0.0612 
@<TRIPOS>BOND
     1    1    2 1    
     2    1   62 1    
     3    1   63 1    
     4    1   64 1    
     5    2    3 2    
     6    2    4 am   BACKBONE|DICT|INTERRES
     7    4    5 1    
     8    4   65 1    
     9    5    6 1    
    10    5   25 1    
    11    5   66 1    
    12    6    7 1    
    13    6   67 1    
    14    6   68 1    
    15    7    8 1    
    16    8    9 1    
    17    8   69 1    
    18    8   70 1    
    19    9   10 ar   
    20    9   14 ar   
    21   10   11 ar   
    22   10   71 1    
    23   11   12 ar   
    24   11   61 1    
    25   12   13 ar   
    26   12   72 1    
    27   13   14 ar   
    28   13   15 1    
    29   14   73 1    
    30   15   16 1    
    31   15   74 1    
    32   15   75 1    
    33   16   17 1    
    34   17   18 1    
    35   17   76 1    
    36   17   77 1    
    37   18   19 1    
    38   18   27 1    
    39   18   78 1    
    40   19   20 am   BACKBONE|DICT|INTERRES
    41   19   79 1    
    42   20   21 2    
    43   20   22 1    
    44   22   23 1    
    45   22   24 1    
    46   22   80 1    
    47   23   81 1    
    48   23   82 1    
    49   23   83 1    
    50   24   25 am   BACKBONE|DICT|INTERRES
    51   24   84 1    
    52   25   26 2    
    53   27   28 2    
    54   27   29 am   BACKBONE|DICT|INTERRES
    55   29   30 1    
    56   29   85 1    
    57   30   31 1    
    58   30   32 1    
    59   30   86 1    
    60   31   87 1    
    61   31   88 1    
    62   31   89 1    
    63   32   33 2    
    64   32   34 am   BACKBONE|DICT|INTERRES
    65   34   35 1    
    66   34   90 1    
    67   35   36 1    
    68   35   37 1    
    69   35   91 1    
    70   36   92 1    
    71   36   93 1    
    72   36   94 1    
    73   37   38 2    
    74   37   39 am   BACKBONE|DICT|INTERRES
    75   39   40 1    
    76   39   95 1    
    77   40   41 1    
    78   40   42 1    
    79   40   96 1    
    80   41   97 1    
    81   41   98 1    
    82   41   99 1    
    83   42   43 2    
    84   42   44 am   BACKBONE|DICT|INTERRES
    85   44   45 1    
    86   44  100 1    
    87   45   46 1    
    88   45   47 1    
    89   45  101 1    
    90   46  102 1    
    91   46  103 1    
    92   46  104 1    
    93   47   48 2    
    94   47   49 am   BACKBONE|DICT|INTERRES
    95   49   50 1    
    96   49  105 1    
    97   50   51 1    
    98   50   52 1    
    99   50  106 1    
   100   51  107 1    
   101   51  108 1    
   102   51  109 1    
   103   52   53 2    
   104   52   54 am   BACKBONE|DICT|INTERRES
   105   54   55 1    
   106   54  110 1    
   107   55   56 1    
   108   55   59 1    
   109   55  111 1    
   110   56   57 am   BACKBONE|DICT|INTERRES
   111   56   58 2    
   112   57  112 1    
   113   57  113 1    
   114   59   60 1    
   115   59  114 1    
   116   59  115 1    
   117   60   61 1    
   118   61  116 1    
   119   61  117 1    
@<TRIPOS>SUBSTRUCTURE
     1 UNK         1 GROUP             0       ****    0 ROOT    
