@<TRIPOS>MOLECULE
3R8
117   119    1
SMALL
USER_CHARGES


@<TRIPOS>ATOM
      1 CA         16.6123  -25.5329  -39.5359 C.3       0 UNK        -0.2013 
      2 C          16.6170  -25.2599  -41.0327 C.2       0 UNK         0.4866 
      3 O          16.1352  -24.2124  -41.4662 O.2       0 UNK        -0.5176 
      4 N          17.1475  -26.1993  -41.8248 N.am      1 UNK        -0.4884 
      5 CA         17.2842  -26.0932  -43.2822 C.3       1 UNK         0.0853 
      6 C6         17.6330  -27.4563  -43.9285 C.3       10 UNK        -0.0849 
      7 S7         16.4566  -28.7872  -43.5081 S.3       10 UNK        -0.2776 
      8 C8         16.7192  -29.9517  -44.8862 C.3       10 UNK         0.0316 
      9 C9         18.1872  -30.3234  -45.0449 C.ar      10 UNK        -0.0863 
     10 C10        18.7954  -31.2033  -44.1460 C.ar      10 UNK        -0.1009 
     11 C11        20.1505  -31.5342  -44.2733 C.ar      10 UNK        -0.0712 
     12 C12        20.8975  -30.9507  -45.3041 C.ar      10 UNK        -0.0894 
     13 C13        20.2998  -30.0695  -46.2118 C.ar      10 UNK        -0.0745 
     14 C14        18.9409  -29.7727  -46.0837 C.ar      10 UNK        -0.0972 
     15 C15        21.1119  -29.4490  -47.3429 C.3       10 UNK         0.0209 
     16 S16        21.0883  -27.6252  -47.3056 S.3       10 UNK        -0.2568 
     17 C17        22.0338  -27.3002  -45.7863 C.3       10 UNK        -0.0983 
     18 CA         22.3107  -25.7913  -45.5480 C.3       3 UNK         0.0876 
     19 N          21.0945  -25.0473  -45.2274 N.am      3 UNK        -0.4424 
     20 C          20.4309  -24.2260  -46.0461 C.2       2 UNK         0.4918 
     21 O          20.7599  -24.0161  -47.2150 O.2       2 UNK        -0.4875 
     22 CA         19.1850  -23.5272  -45.4574 C.3       2 UNK         0.0481 
     23 CB         18.4470  -22.6605  -46.4951 C.3       2 UNK        -0.1831 
     24 N          18.2339  -24.4811  -44.8750 N.am      2 UNK        -0.4498 
     25 C          18.3542  -25.0498  -43.6680 C.2       1 UNK         0.5027 
     26 O          19.2977  -24.8212  -42.9062 O.2       1 UNK        -0.4969 
     27 C          23.2673  -25.6372  -44.3580 C.2       3 UNK         0.5005 
     28 O          22.8101  -25.5913  -43.2140 O.2       3 UNK        -0.5279 
     29 N          24.5804  -25.6545  -44.6251 N.am      4 UNK        -0.4463 
     30 CA         25.6166  -25.7636  -43.5885 C.3       4 UNK         0.0283 
     31 CB         26.9928  -25.4580  -44.2011 C.3       4 UNK        -0.1875 
     32 C          25.6223  -27.1486  -42.9115 C.2       4 UNK         0.4949 
     33 O          25.9776  -27.2568  -41.7386 O.2       4 UNK        -0.5039 
     34 N          25.1993  -28.1752  -43.6620 N.am      5 UNK        -0.4663 
     35 CA         25.0686  -29.5633  -43.2184 C.3       5 UNK         0.0242 
     36 CB         25.1715  -30.4792  -44.4508 C.3       5 UNK        -0.1982 
     37 C          23.7692  -29.8546  -42.4447 C.2       5 UNK         0.5017 
     38 O          23.5999  -30.9910  -42.0053 O.2       5 UNK        -0.5012 
     39 N          22.8761  -28.8611  -42.2904 N.am      6 UNK        -0.4439 
     40 CA         21.5418  -28.9893  -41.6822 C.3       6 UNK         0.0297 
     41 CB         20.8573  -27.6162  -41.6378 C.3       6 UNK        -0.2006 
     42 C          21.5232  -29.6307  -40.2833 C.2       6 UNK         0.4892 
     43 O          20.5886  -30.3679  -39.9690 O.2       6 UNK        -0.5089 
     44 N          22.5748  -29.3752  -39.4921 N.am      7 UNK        -0.4243 
     45 CA         22.7876  -29.9375  -38.1564 C.3       7 UNK         0.0196 
     46 CB         24.0296  -29.2847  -37.5290 C.3       7 UNK        -0.2007 
     47 C          22.9170  -31.4720  -38.1280 C.2       7 UNK         0.5020 
     48 O          22.5899  -32.0765  -37.1066 O.2       7 UNK        -0.5147 
     49 N          23.3591  -32.0863  -39.2364 N.am      8 UNK        -0.4734 
     50 CA         23.4651  -33.5432  -39.3783 C.3       8 UNK         0.0238 
     51 CB         24.3484  -33.8778  -40.5915 C.3       8 UNK        -0.1912 
     52 C          22.0981  -34.2398  -39.5040 C.2       8 UNK         0.5038 
     53 O          22.0099  -35.4363  -39.2254 O.2       8 UNK        -0.5046 
     54 N          21.0698  -33.4861  -39.9113 N.am      9 UNK        -0.4200 
     55 CA         19.6779  -33.9400  -40.0352 C.3       9 UNK         0.0839 
     56 C          18.8276  -33.6583  -38.7619 C.2       9 UNK         0.5513 
     57 N          19.3856  -33.1129  -37.6863 N.am      9 UNK        -0.7519 
     58 O          17.6371  -33.9602  -38.7401 O.2       9 UNK        -0.4960 
     59 C59        19.0141  -33.3658  -41.3146 C.3       10 UNK        -0.0876 
     60 S60        19.8413  -33.9437  -42.8402 S.3       10 UNK        -0.2414 
     61 C61        20.8398  -32.4868  -43.2959 C.3       10 UNK         0.0169 
     62 H62        17.0588  -26.4977  -39.2955 H         1 UNK         0.0903 
     63 H63        17.1744  -24.7598  -39.0125 H         1 UNK         0.0903 
     64 H64        15.5908  -25.5280  -39.1565 H         1 UNK         0.0903 
     65 H65        17.5176  -27.0452  -41.4173 H         1 UNK         0.3096 
     66 H66        16.3242  -25.7557  -43.6800 H         1 UNK         0.1121 
     67 H67        17.6610  -27.3548  -45.0152 H         1 UNK         0.0849 
     68 H68        18.6296  -27.7866  -43.6300 H         1 UNK         0.0849 
     69 H69        16.1313  -30.8534  -44.7083 H         1 UNK         0.0865 
     70 H70        16.3300  -29.5120  -45.8060 H         1 UNK         0.0865 
     71 H71        18.2036  -31.6226  -43.3461 H         1 UNK         0.1346 
     72 H72        21.9481  -31.1869  -45.4014 H         1 UNK         0.1412 
     73 H73        18.4773  -29.0924  -46.7852 H         1 UNK         0.1426 
     74 H74        20.6993  -29.7848  -48.2951 H         1 UNK         0.0716 
     75 H75        22.1468  -29.7939  -47.3183 H         1 UNK         0.0716 
     76 H76        21.4904  -27.7318  -44.9432 H         1 UNK         0.0695 
     77 H77        22.9694  -27.8569  -45.8657 H         1 UNK         0.0695 
     78 H78        22.7908  -25.3621  -46.4304 H         1 UNK         0.0983 
     79 H79        20.7989  -25.1053  -44.2566 H         1 UNK         0.3095 
     80 H80        19.5384  -22.8595  -44.6689 H         1 UNK         0.0454 
     81 H81        19.1089  -21.9002  -46.9119 H         1 UNK         0.0851 
     82 H82        18.0713  -23.2572  -47.3272 H         1 UNK         0.0851 
     83 H83        17.6017  -22.1377  -46.0474 H         1 UNK         0.0851 
     84 H84        17.4587  -24.7488  -45.4650 H         1 UNK         0.2976 
     85 H85        24.8917  -25.6765  -45.5867 H         1 UNK         0.3116 
     86 H86        25.4128  -25.0176  -42.8171 H         1 UNK         0.0646 
     87 H87        27.7756  -25.5092  -43.4429 H         1 UNK         0.0847 
     88 H88        27.0242  -24.4554  -44.6278 H         1 UNK         0.0847 
     89 H89        27.2552  -26.1674  -44.9869 H         1 UNK         0.0847 
     90 H90        24.9495  -27.9864  -44.6210 H         1 UNK         0.3040 
     91 H91        25.8975  -29.7982  -42.5468 H         1 UNK         0.1015 
     92 H92        26.1166  -30.3347  -44.9746 H         1 UNK         0.0786 
     93 H93        24.3626  -30.2967  -45.1593 H         1 UNK         0.0786 
     94 H94        25.1226  -31.5311  -44.1650 H         1 UNK         0.0786 
     95 H95        23.1178  -27.9470  -42.6480 H         1 UNK         0.3172 
     96 H96        20.9507  -29.6260  -42.3401 H         1 UNK         0.0595 
     97 H97        20.7344  -27.2027  -42.6376 H         1 UNK         0.0839 
     98 H98        21.4268  -26.8965  -41.0485 H         1 UNK         0.0839 
     99 H99        19.8627  -27.6861  -41.1959 H         1 UNK         0.0839 
    100 H100       23.2984  -28.7689  -39.8506 H         1 UNK         0.2998 
    101 H101       21.9182  -29.6763  -37.5493 H         1 UNK         0.0822 
    102 H102       23.9147  -28.2033  -37.4518 H         1 UNK         0.0787 
    103 H103       24.2022  -29.6628  -36.5202 H         1 UNK         0.0787 
    104 H104       24.9295  -29.4874  -38.1115 H         1 UNK         0.0787 
    105 H105       23.5609  -31.5350  -40.0658 H         1 UNK         0.3055 
    106 H106       23.9507  -33.9383  -38.4830 H         1 UNK         0.1106 
    107 H107       23.8816  -33.5709  -41.5282 H         1 UNK         0.0828 
    108 H108       25.3213  -33.3908  -40.5246 H         1 UNK         0.0828 
    109 H109       24.5268  -34.9519  -40.6572 H         1 UNK         0.0828 
    110 H110       21.2220  -32.4976  -40.0662 H         1 UNK         0.2931 
    111 H111       19.6751  -35.0266  -40.1396 H         1 UNK         0.0412 
    112 H112       18.8191  -32.9452  -36.8697 H         1 UNK         0.3472 
    113 H113       20.3653  -32.8699  -37.6788 H         1 UNK         0.3472 
    114 H114       19.0003  -32.2752  -41.2766 H         1 UNK         0.0970 
    115 H115       17.9702  -33.6783  -41.3787 H         1 UNK         0.0970 
    116 H116       21.7718  -32.8526  -43.7294 H         1 UNK         0.0612 
    117 H117       21.1222  -31.9443  -42.3954 H         1 UNK         0.0612 
@<TRIPOS>BOND
     1    1    2 1    
     2    1   62 1    
     3    1   63 1    
     4    1   64 1    
     5    2    3 2    
     6    2    4 am   BACKBONE|DICT|INTERRES
     7    4    5 1    
     8    4   65 1    
     9    5    6 1    
    10    5   25 1    
    11    5   66 1    
    12    6    7 1    
    13    6   67 1    
    14    6   68 1    
    15    7    8 1    
    16    8    9 1    
    17    8   69 1    
    18    8   70 1    
    19    9   10 ar   
    20    9   14 ar   
    21   10   11 ar   
    22   10   71 1    
    23   11   12 ar   
    24   11   61 1    
    25   12   13 ar   
    26   12   72 1    
    27   13   14 ar   
    28   13   15 1    
    29   14   73 1    
    30   15   16 1    
    31   15   74 1    
    32   15   75 1    
    33   16   17 1    
    34   17   18 1    
    35   17   76 1    
    36   17   77 1    
    37   18   19 1    
    38   18   27 1    
    39   18   78 1    
    40   19   20 am   BACKBONE|DICT|INTERRES
    41   19   79 1    
    42   20   21 2    
    43   20   22 1    
    44   22   23 1    
    45   22   24 1    
    46   22   80 1    
    47   23   81 1    
    48   23   82 1    
    49   23   83 1    
    50   24   25 am   BACKBONE|DICT|INTERRES
    51   24   84 1    
    52   25   26 2    
    53   27   28 2    
    54   27   29 am   BACKBONE|DICT|INTERRES
    55   29   30 1    
    56   29   85 1    
    57   30   31 1    
    58   30   32 1    
    59   30   86 1    
    60   31   87 1    
    61   31   88 1    
    62   31   89 1    
    63   32   33 2    
    64   32   34 am   BACKBONE|DICT|INTERRES
    65   34   35 1    
    66   34   90 1    
    67   35   36 1    
    68   35   37 1    
    69   35   91 1    
    70   36   92 1    
    71   36   93 1    
    72   36   94 1    
    73   37   38 2    
    74   37   39 am   BACKBONE|DICT|INTERRES
    75   39   40 1    
    76   39   95 1    
    77   40   41 1    
    78   40   42 1    
    79   40   96 1    
    80   41   97 1    
    81   41   98 1    
    82   41   99 1    
    83   42   43 2    
    84   42   44 am   BACKBONE|DICT|INTERRES
    85   44   45 1    
    86   44  100 1    
    87   45   46 1    
    88   45   47 1    
    89   45  101 1    
    90   46  102 1    
    91   46  103 1    
    92   46  104 1    
    93   47   48 2    
    94   47   49 am   BACKBONE|DICT|INTERRES
    95   49   50 1    
    96   49  105 1    
    97   50   51 1    
    98   50   52 1    
    99   50  106 1    
   100   51  107 1    
   101   51  108 1    
   102   51  109 1    
   103   52   53 2    
   104   52   54 am   BACKBONE|DICT|INTERRES
   105   54   55 1    
   106   54  110 1    
   107   55   56 1    
   108   55   59 1    
   109   55  111 1    
   110   56   57 am   BACKBONE|DICT|INTERRES
   111   56   58 2    
   112   57  112 1    
   113   57  113 1    
   114   59   60 1    
   115   59  114 1    
   116   59  115 1    
   117   60   61 1    
   118   61  116 1    
   119   61  117 1    
@<TRIPOS>SUBSTRUCTURE
     1 UNK         1 GROUP             0       ****    0 ROOT    
