@<TRIPOS>MOLECULE
3R8
117   119    1
SMALL
USER_CHARGES


@<TRIPOS>ATOM
      1 CA         13.6355  -26.6772  -44.3509 C.3       0 UNK        -0.2013 
      2 C          14.9132  -25.9949  -43.8854 C.2       0 UNK         0.4866 
      3 O          14.8706  -24.8290  -43.4923 O.2       0 UNK        -0.5176 
      4 N          16.0431  -26.7158  -43.9343 N.am      1 UNK        -0.4884 
      5 CA         17.3865  -26.2741  -43.5242 C.3       1 UNK         0.0853 
      6 C6         17.5204  -26.0113  -41.9969 C.3       10 UNK        -0.0849 
      7 S7         17.1372  -27.4771  -40.9771 S.3       10 UNK        -0.2776 
      8 C8         18.7977  -28.0194  -40.4548 C.3       10 UNK         0.0316 
      9 C9         19.4901  -28.8338  -41.5375 C.ar      10 UNK        -0.0863 
     10 C10        19.3548  -30.2251  -41.5586 C.ar      10 UNK        -0.1009 
     11 C11        19.9854  -30.9894  -42.5453 C.ar      10 UNK        -0.0712 
     12 C12        20.7609  -30.3479  -43.5167 C.ar      10 UNK        -0.0894 
     13 C13        20.9158  -28.9587  -43.4969 C.ar      10 UNK        -0.0745 
     14 C14        20.2747  -28.2055  -42.5088 C.ar      10 UNK        -0.0972 
     15 C15        21.7852  -28.2652  -44.5310 C.3       10 UNK         0.0209 
     16 S16        20.7685  -27.6212  -45.8886 S.3       10 UNK        -0.2568 
     17 C17        21.9335  -26.4790  -46.7186 C.3       10 UNK        -0.0983 
     18 CA         21.8064  -24.9837  -46.2957 C.3       3 UNK         0.0876 
     19 N          20.4258  -24.5350  -46.1485 N.am      3 UNK        -0.4424 
     20 C          19.5215  -24.4062  -47.1218 C.2       2 UNK         0.4918 
     21 O          19.7860  -24.5358  -48.3184 O.2       2 UNK        -0.4875 
     22 CA         18.0729  -24.1214  -46.6694 C.3       2 UNK         0.0481 
     23 CB         17.0787  -24.0923  -47.8451 C.3       2 UNK        -0.1831 
     24 N          17.6115  -25.1055  -45.6825 N.am      2 UNK        -0.4498 
     25 C          17.9070  -25.0910  -44.3741 C.2       1 UNK         0.5027 
     26 O          18.5800  -24.1996  -43.8526 O.2       1 UNK        -0.4969 
     27 C          22.5346  -24.6871  -44.9741 C.2       3 UNK         0.5005 
     28 O          21.9121  -24.7370  -43.9097 O.2       3 UNK        -0.5279 
     29 N          23.8364  -24.3820  -45.0597 N.am      4 UNK        -0.4463 
     30 CA         24.6788  -24.0510  -43.9046 C.3       4 UNK         0.0283 
     31 CB         25.8682  -23.1968  -44.3729 C.3       4 UNK        -0.1875 
     32 C          25.1837  -25.2890  -43.1442 C.2       4 UNK         0.4949 
     33 O          25.4562  -25.1920  -41.9471 O.2       4 UNK        -0.5039 
     34 N          25.3105  -26.4278  -43.8390 N.am      5 UNK        -0.4663 
     35 CA         25.8373  -27.6932  -43.3157 C.3       5 UNK         0.0242 
     36 CB         26.3723  -28.5261  -44.4965 C.3       5 UNK        -0.1982 
     37 C          24.7985  -28.4605  -42.4729 C.2       5 UNK         0.5017 
     38 O          24.4674  -29.6023  -42.7963 O.2       5 UNK        -0.5012 
     39 N          24.2776  -27.8037  -41.4297 N.am      6 UNK        -0.4439 
     40 CA         23.2616  -28.3354  -40.5228 C.3       6 UNK         0.0297 
     41 CB         22.7049  -27.1979  -39.6525 C.3       6 UNK        -0.2006 
     42 C          23.7876  -29.4897  -39.6583 C.2       6 UNK         0.4892 
     43 O          24.9041  -29.4122  -39.1400 O.2       6 UNK        -0.5089 
     44 N          22.9512  -30.5188  -39.5044 N.am      7 UNK        -0.4243 
     45 CA         23.1899  -31.7419  -38.7462 C.3       7 UNK         0.0196 
     46 CB         24.2203  -32.6282  -39.4799 C.3       7 UNK        -0.2007 
     47 C          21.8437  -32.4640  -38.5875 C.2       7 UNK         0.5020 
     48 O          20.8226  -31.9769  -39.0798 O.2       7 UNK        -0.5147 
     49 N          21.8600  -33.6286  -37.9261 N.am      8 UNK        -0.4734 
     50 CA         20.7119  -34.5427  -37.8665 C.3       8 UNK         0.0238 
     51 CB         20.9405  -35.5817  -36.7565 C.3       8 UNK        -0.1912 
     52 C          20.4406  -35.2399  -39.2143 C.2       8 UNK         0.5038 
     53 O          19.2893  -35.5685  -39.5018 O.2       8 UNK        -0.5046 
     54 N          21.5056  -35.4392  -40.0053 N.am      9 UNK        -0.4200 
     55 CA         21.5078  -36.0140  -41.3626 C.3       9 UNK         0.0839 
     56 C          21.0950  -37.5160  -41.4408 C.2       9 UNK         0.5513 
     57 N          21.1264  -38.2666  -40.3460 N.am      9 UNK        -0.7519 
     58 O          20.7722  -38.0216  -42.5131 O.2       9 UNK        -0.4960 
     59 C59        20.7607  -35.1291  -42.4028 C.3       10 UNK        -0.0876 
     60 S60        21.3703  -33.4063  -42.4437 S.3       10 UNK        -0.2414 
     61 C61        19.7966  -32.5010  -42.5758 C.3       10 UNK         0.0169 
     62 H62        12.9053  -26.6961  -43.5422 H         1 UNK         0.0903 
     63 H63        13.2023  -26.1311  -45.1885 H         1 UNK         0.0903 
     64 H64        13.8126  -27.7039  -44.6706 H         1 UNK         0.0903 
     65 H65        15.9935  -27.6717  -44.2599 H         1 UNK         0.3096 
     66 H66        18.0531  -27.1022  -43.7691 H         1 UNK         0.1121 
     67 H67        16.8564  -25.2013  -41.6914 H         1 UNK         0.0849 
     68 H68        18.5273  -25.6711  -41.7497 H         1 UNK         0.0849 
     69 H69        19.4074  -27.1606  -40.1700 H         1 UNK         0.0865 
     70 H70        18.6975  -28.6231  -39.5513 H         1 UNK         0.0865 
     71 H71        18.7528  -30.7147  -40.8049 H         1 UNK         0.1346 
     72 H72        21.2510  -30.9333  -44.2825 H         1 UNK         0.1412 
     73 H73        20.3979  -27.1306  -42.4952 H         1 UNK         0.1426 
     74 H74        22.5352  -28.9506  -44.9290 H         1 UNK         0.0716 
     75 H75        22.3322  -27.4524  -44.0533 H         1 UNK         0.0716 
     76 H76        22.9557  -26.8426  -46.5980 H         1 UNK         0.0695 
     77 H77        21.7310  -26.5556  -47.7878 H         1 UNK         0.0695 
     78 H78        22.2676  -24.3640  -47.0680 H         1 UNK         0.0983 
     79 H79        20.1352  -24.3988  -45.1835 H         1 UNK         0.3095 
     80 H80        18.0677  -23.1306  -46.2105 H         1 UNK         0.0454 
     81 H81        17.3618  -23.3356  -48.5780 H         1 UNK         0.0851 
     82 H82        17.0382  -25.0505  -48.3646 H         1 UNK         0.0851 
     83 H83        16.0711  -23.8503  -47.5068 H         1 UNK         0.0851 
     84 H84        17.0726  -25.8821  -46.0380 H         1 UNK         0.2976 
     85 H85        24.2778  -24.3492  -45.9685 H         1 UNK         0.3116 
     86 H86        24.0935  -23.4525  -43.2027 H         1 UNK         0.0646 
     87 H87        26.4984  -22.9108  -43.5294 H         1 UNK         0.0847 
     88 H88        25.5329  -22.2754  -44.8494 H         1 UNK         0.0847 
     89 H89        26.4998  -23.7329  -45.0825 H         1 UNK         0.0847 
     90 H90        25.0396  -26.4220  -44.8107 H         1 UNK         0.3040 
     91 H91        26.6809  -27.4758  -42.6563 H         1 UNK         0.1015 
     92 H92        27.1477  -27.9887  -45.0428 H         1 UNK         0.0786 
     93 H93        25.5805  -28.7834  -45.2013 H         1 UNK         0.0786 
     94 H94        26.8148  -29.4602  -44.1474 H         1 UNK         0.0786 
     95 H95        24.6188  -26.8642  -41.2517 H         1 UNK         0.3172 
     96 H96        22.4527  -28.7263  -41.1366 H         1 UNK         0.0595 
     97 H97        22.2640  -26.4105  -40.2644 H         1 UNK         0.0839 
     98 H98        23.4816  -26.7487  -39.0323 H         1 UNK         0.0839 
     99 H99        21.9240  -27.5641  -38.9847 H         1 UNK         0.0839 
    100 H100       22.0280  -30.4889  -39.9246 H         1 UNK         0.2998 
    101 H101       23.5604  -31.4784  -37.7536 H         1 UNK         0.0822 
    102 H102       25.1682  -32.1089  -39.6211 H         1 UNK         0.0787 
    103 H103       24.4419  -33.5362  -38.9190 H         1 UNK         0.0787 
    104 H104       23.8590  -32.9280  -40.4648 H         1 UNK         0.0787 
    105 H105       22.7252  -33.9493  -37.5142 H         1 UNK         0.3055 
    106 H106       19.8204  -33.9628  -37.6152 H         1 UNK         0.1106 
    107 H107       21.0566  -35.1035  -35.7837 H         1 UNK         0.0828 
    108 H108       20.0917  -36.2630  -36.6803 H         1 UNK         0.0828 
    109 H109       21.8285  -36.1872  -36.9419 H         1 UNK         0.0828 
    110 H110       22.4053  -35.1388  -39.6638 H         1 UNK         0.2931 
    111 H111       22.5579  -36.0154  -41.6570 H         1 UNK         0.0412 
    112 H112       21.3992  -37.8696  -39.4615 H         1 UNK         0.3472 
    113 H113       20.8686  -39.2395  -40.4061 H         1 UNK         0.3472 
    114 H114       19.6887  -35.1409  -42.1999 H         1 UNK         0.0970 
    115 H115       20.8797  -35.5378  -43.4077 H         1 UNK         0.0970 
    116 H116       19.2985  -32.7798  -43.5053 H         1 UNK         0.0612 
    117 H117       19.1434  -32.8187  -41.7612 H         1 UNK         0.0612 
@<TRIPOS>BOND
     1    1    2 1    
     2    1   62 1    
     3    1   63 1    
     4    1   64 1    
     5    2    3 2    
     6    2    4 am   BACKBONE|DICT|INTERRES
     7    4    5 1    
     8    4   65 1    
     9    5    6 1    
    10    5   25 1    
    11    5   66 1    
    12    6    7 1    
    13    6   67 1    
    14    6   68 1    
    15    7    8 1    
    16    8    9 1    
    17    8   69 1    
    18    8   70 1    
    19    9   10 ar   
    20    9   14 ar   
    21   10   11 ar   
    22   10   71 1    
    23   11   12 ar   
    24   11   61 1    
    25   12   13 ar   
    26   12   72 1    
    27   13   14 ar   
    28   13   15 1    
    29   14   73 1    
    30   15   16 1    
    31   15   74 1    
    32   15   75 1    
    33   16   17 1    
    34   17   18 1    
    35   17   76 1    
    36   17   77 1    
    37   18   19 1    
    38   18   27 1    
    39   18   78 1    
    40   19   20 am   BACKBONE|DICT|INTERRES
    41   19   79 1    
    42   20   21 2    
    43   20   22 1    
    44   22   23 1    
    45   22   24 1    
    46   22   80 1    
    47   23   81 1    
    48   23   82 1    
    49   23   83 1    
    50   24   25 am   BACKBONE|DICT|INTERRES
    51   24   84 1    
    52   25   26 2    
    53   27   28 2    
    54   27   29 am   BACKBONE|DICT|INTERRES
    55   29   30 1    
    56   29   85 1    
    57   30   31 1    
    58   30   32 1    
    59   30   86 1    
    60   31   87 1    
    61   31   88 1    
    62   31   89 1    
    63   32   33 2    
    64   32   34 am   BACKBONE|DICT|INTERRES
    65   34   35 1    
    66   34   90 1    
    67   35   36 1    
    68   35   37 1    
    69   35   91 1    
    70   36   92 1    
    71   36   93 1    
    72   36   94 1    
    73   37   38 2    
    74   37   39 am   BACKBONE|DICT|INTERRES
    75   39   40 1    
    76   39   95 1    
    77   40   41 1    
    78   40   42 1    
    79   40   96 1    
    80   41   97 1    
    81   41   98 1    
    82   41   99 1    
    83   42   43 2    
    84   42   44 am   BACKBONE|DICT|INTERRES
    85   44   45 1    
    86   44  100 1    
    87   45   46 1    
    88   45   47 1    
    89   45  101 1    
    90   46  102 1    
    91   46  103 1    
    92   46  104 1    
    93   47   48 2    
    94   47   49 am   BACKBONE|DICT|INTERRES
    95   49   50 1    
    96   49  105 1    
    97   50   51 1    
    98   50   52 1    
    99   50  106 1    
   100   51  107 1    
   101   51  108 1    
   102   51  109 1    
   103   52   53 2    
   104   52   54 am   BACKBONE|DICT|INTERRES
   105   54   55 1    
   106   54  110 1    
   107   55   56 1    
   108   55   59 1    
   109   55  111 1    
   110   56   57 am   BACKBONE|DICT|INTERRES
   111   56   58 2    
   112   57  112 1    
   113   57  113 1    
   114   59   60 1    
   115   59  114 1    
   116   59  115 1    
   117   60   61 1    
   118   61  116 1    
   119   61  117 1    
@<TRIPOS>SUBSTRUCTURE
     1 UNK         1 GROUP             0       ****    0 ROOT    
