@<TRIPOS>MOLECULE
3R8
117   119    1
SMALL
USER_CHARGES


@<TRIPOS>ATOM
      1 CA         16.4421  -25.2809  -42.6413 C.3       0 UNK        -0.2013 
      2 C          17.3044  -25.9806  -43.6799 C.2       0 UNK         0.4866 
      3 O          17.9827  -26.9472  -43.3407 O.2       0 UNK        -0.5176 
      4 N          17.2903  -25.4824  -44.9252 N.am      1 UNK        -0.4884 
      5 CA         17.9686  -25.9412  -46.1545 C.3       1 UNK         0.0853 
      6 C6         17.2969  -27.1756  -46.8281 C.3       10 UNK        -0.0849 
      7 S7         17.7285  -28.8138  -46.1392 S.3       10 UNK        -0.2776 
      8 C8         16.1683  -29.3351  -45.3655 C.3       10 UNK         0.0316 
      9 C9         16.4482  -30.3369  -44.2578 C.ar      10 UNK        -0.0863 
     10 C10        16.5967  -31.6983  -44.5382 C.ar      10 UNK        -0.1009 
     11 C11        16.9058  -32.6005  -43.5141 C.ar      10 UNK        -0.0712 
     12 C12        17.0791  -32.1300  -42.2079 C.ar      10 UNK        -0.0894 
     13 C13        16.9366  -30.7698  -41.9188 C.ar      10 UNK        -0.0745 
     14 C14        16.5947  -29.8871  -42.9451 C.ar      10 UNK        -0.0972 
     15 C15        17.1533  -30.2509  -40.5026 C.3       10 UNK         0.0209 
     16 S16        18.2791  -28.8158  -40.4420 S.3       10 UNK        -0.2568 
     17 C17        19.8692  -29.5799  -40.9163 C.3       10 UNK        -0.0983 
     18 CA         20.9885  -28.5800  -41.3084 C.3       3 UNK         0.0876 
     19 N          20.7790  -27.9663  -42.6312 N.am      3 UNK        -0.4424 
     20 C          21.7155  -27.2608  -43.2913 C.2       2 UNK         0.4918 
     21 O          22.7760  -26.9024  -42.7779 O.2       2 UNK        -0.4875 
     22 CA         21.4583  -26.8780  -44.7547 C.3       2 UNK         0.0481 
     23 CB         21.9960  -27.9834  -45.6831 C.3       2 UNK        -0.1831 
     24 N          20.0458  -26.6222  -45.0136 N.am      2 UNK        -0.4498 
     25 C          19.5138  -26.0437  -46.0932 C.2       1 UNK         0.5027 
     26 O          20.1835  -25.5929  -47.0245 O.2       1 UNK        -0.4969 
     27 C          21.3052  -27.5747  -40.1810 C.2       3 UNK         0.5005 
     28 O          21.9876  -27.9380  -39.2232 O.2       3 UNK        -0.5279 
     29 N          20.8603  -26.3203  -40.3407 N.am      4 UNK        -0.4463 
     30 CA         21.1577  -25.1967  -39.4496 C.3       4 UNK         0.0283 
     31 CB         20.3423  -23.9737  -39.8997 C.3       4 UNK        -0.1875 
     32 C          22.6559  -24.8407  -39.3601 C.2       4 UNK         0.4949 
     33 O          23.0638  -24.2512  -38.3589 O.2       4 UNK        -0.5039 
     34 N          23.4398  -25.1952  -40.3886 N.am      5 UNK        -0.4663 
     35 CA         24.8862  -24.9748  -40.4488 C.3       5 UNK         0.0242 
     36 CB         25.2054  -24.0402  -41.6279 C.3       5 UNK        -0.1982 
     37 C          25.6621  -26.2932  -40.5857 C.2       5 UNK         0.5017 
     38 O          26.6855  -26.4591  -39.9216 O.2       5 UNK        -0.5012 
     39 N          25.1841  -27.1967  -41.4516 N.am      6 UNK        -0.4439 
     40 CA         25.8756  -28.4291  -41.8356 C.3       6 UNK         0.0297 
     41 CB         25.4739  -28.7873  -43.2776 C.3       6 UNK        -0.2006 
     42 C          25.5957  -29.6244  -40.9111 C.2       6 UNK         0.4892 
     43 O          26.2687  -30.6450  -41.0620 O.2       6 UNK        -0.5089 
     44 N          24.5907  -29.5211  -40.0264 N.am      7 UNK        -0.4243 
     45 CA         24.0216  -30.5698  -39.1601 C.3       7 UNK         0.0196 
     46 CB         25.0722  -31.1666  -38.2026 C.3       7 UNK        -0.2007 
     47 C          23.2691  -31.6728  -39.9310 C.2       7 UNK         0.5020 
     48 O          22.1628  -32.0396  -39.5360 O.2       7 UNK        -0.5147 
     49 N          23.8665  -32.1688  -41.0187 N.am      8 UNK        -0.4734 
     50 CA         23.2617  -33.0801  -41.9884 C.3       8 UNK         0.0238 
     51 CB         24.3922  -33.7755  -42.7667 C.3       8 UNK        -0.1912 
     52 C          22.3181  -32.3385  -42.9529 C.2       8 UNK         0.5038 
     53 O          22.3683  -31.1109  -43.0515 O.2       8 UNK        -0.5046 
     54 N          21.5056  -33.1152  -43.6782 N.am      9 UNK        -0.4200 
     55 CA         20.5177  -32.6506  -44.6694 C.3       9 UNK         0.0839 
     56 C          21.1066  -31.9545  -45.9351 C.2       9 UNK         0.5513 
     57 N          22.4168  -31.9408  -46.1488 N.am      9 UNK        -0.7519 
     58 O          20.3554  -31.4273  -46.7498 O.2       9 UNK        -0.4960 
     59 C59        19.5615  -33.8008  -45.0903 C.3       10 UNK        -0.0876 
     60 S60        18.7734  -34.6495  -43.6776 S.3       10 UNK        -0.2414 
     61 C61        17.0484  -34.0855  -43.8126 C.3       10 UNK         0.0169 
     62 H62        15.8815  -24.4483  -43.0653 H         1 UNK         0.0903 
     63 H63        15.7311  -25.9863  -42.2123 H         1 UNK         0.0903 
     64 H64        17.0665  -24.8967  -41.8353 H         1 UNK         0.0903 
     65 H65        16.7252  -24.6573  -45.0743 H         1 UNK         0.3096 
     66 H66        17.7930  -25.1121  -46.8429 H         1 UNK         0.1121 
     67 H67        17.5793  -27.1990  -47.8822 H         1 UNK         0.0849 
     68 H68        16.2130  -27.0523  -46.8311 H         1 UNK         0.0849 
     69 H69        15.6484  -28.4667  -44.9575 H         1 UNK         0.0865 
     70 H70        15.5098  -29.7690  -46.1193 H         1 UNK         0.0865 
     71 H71        16.4835  -32.0504  -45.5545 H         1 UNK         0.1346 
     72 H72        17.3337  -32.8263  -41.4204 H         1 UNK         0.1412 
     73 H73        16.4774  -28.8366  -42.7226 H         1 UNK         0.1426 
     74 H74        17.5472  -31.0354  -39.8545 H         1 UNK         0.0716 
     75 H75        16.1887  -29.9582  -40.0864 H         1 UNK         0.0716 
     76 H76        19.7024  -30.2767  -41.7395 H         1 UNK         0.0695 
     77 H77        20.2024  -30.1936  -40.0778 H         1 UNK         0.0695 
     78 H78        21.8990  -29.1728  -41.4125 H         1 UNK         0.0983 
     79 H79        19.8970  -28.1818  -43.0772 H         1 UNK         0.3095 
     80 H80        22.0094  -25.9561  -44.9507 H         1 UNK         0.0454 
     81 H81        23.0396  -28.2105  -45.4611 H         1 UNK         0.0851 
     82 H82        21.9478  -27.6900  -46.7313 H         1 UNK         0.0851 
     83 H83        21.4303  -28.9089  -45.5691 H         1 UNK         0.0851 
     84 H84        19.3769  -26.8952  -44.2919 H         1 UNK         0.2976 
     85 H85        20.2956  -26.1258  -41.1553 H         1 UNK         0.3116 
     86 H86        20.8301  -25.4777  -38.4466 H         1 UNK         0.0646 
     87 H87        20.6107  -23.6582  -40.9087 H         1 UNK         0.0847 
     88 H88        20.5149  -23.1245  -39.2369 H         1 UNK         0.0847 
     89 H89        19.2720  -24.1807  -39.8842 H         1 UNK         0.0847 
     90 H90        23.0193  -25.6900  -41.1675 H         1 UNK         0.3040 
     91 H91        25.2393  -24.4935  -39.5339 H         1 UNK         0.1015 
     92 H92        24.8680  -24.4559  -42.5785 H         1 UNK         0.0786 
     93 H93        26.2791  -23.8649  -41.7092 H         1 UNK         0.0786 
     94 H94        24.7278  -23.0686  -41.5004 H         1 UNK         0.0786 
     95 H95        24.3258  -26.9940  -41.9626 H         1 UNK         0.3172 
     96 H96        26.9529  -28.2502  -41.8217 H         1 UNK         0.0595 
     97 H97        24.4178  -29.0526  -43.3483 H         1 UNK         0.0839 
     98 H98        26.0447  -29.6425  -43.6420 H         1 UNK         0.0839 
     99 H99        25.6597  -27.9599  -43.9626 H         1 UNK         0.0839 
    100 H100       24.0950  -28.6395  -39.9917 H         1 UNK         0.2998 
    101 H101       23.2791  -30.0684  -38.5386 H         1 UNK         0.0822 
    102 H102       24.6015  -31.8425  -37.4875 H         1 UNK         0.0787 
    103 H103       25.8347  -31.7397  -38.7304 H         1 UNK         0.0787 
    104 H104       25.5741  -30.3867  -37.6299 H         1 UNK         0.0787 
    105 H105       24.7764  -31.7823  -41.2552 H         1 UNK         0.3055 
    106 H106       22.6816  -33.8321  -41.4485 H         1 UNK         0.1106 
    107 H107       23.9987  -34.5038  -43.4768 H         1 UNK         0.0828 
    108 H108       24.9923  -33.0598  -43.3306 H         1 UNK         0.0828 
    109 H109       25.0611  -34.3140  -42.0949 H         1 UNK         0.0828 
    110 H110       21.5368  -34.1144  -43.5411 H         1 UNK         0.2931 
    111 H111       19.9143  -31.8900  -44.1692 H         1 UNK         0.0412 
    112 H112       23.0472  -32.3518  -45.4805 H         1 UNK         0.3472 
    113 H113       22.7767  -31.4912  -46.9755 H         1 UNK         0.3472 
    114 H114       20.1072  -34.5511  -45.6655 H         1 UNK         0.0970 
    115 H115       18.7845  -33.4245  -45.7584 H         1 UNK         0.0970 
    116 H116       16.4393  -34.6509  -43.1060 H         1 UNK         0.0612 
    117 H117       16.6651  -34.3254  -44.8056 H         1 UNK         0.0612 
@<TRIPOS>BOND
     1    1    2 1    
     2    1   62 1    
     3    1   63 1    
     4    1   64 1    
     5    2    3 2    
     6    2    4 am   BACKBONE|DICT|INTERRES
     7    4    5 1    
     8    4   65 1    
     9    5    6 1    
    10    5   25 1    
    11    5   66 1    
    12    6    7 1    
    13    6   67 1    
    14    6   68 1    
    15    7    8 1    
    16    8    9 1    
    17    8   69 1    
    18    8   70 1    
    19    9   10 ar   
    20    9   14 ar   
    21   10   11 ar   
    22   10   71 1    
    23   11   12 ar   
    24   11   61 1    
    25   12   13 ar   
    26   12   72 1    
    27   13   14 ar   
    28   13   15 1    
    29   14   73 1    
    30   15   16 1    
    31   15   74 1    
    32   15   75 1    
    33   16   17 1    
    34   17   18 1    
    35   17   76 1    
    36   17   77 1    
    37   18   19 1    
    38   18   27 1    
    39   18   78 1    
    40   19   20 am   BACKBONE|DICT|INTERRES
    41   19   79 1    
    42   20   21 2    
    43   20   22 1    
    44   22   23 1    
    45   22   24 1    
    46   22   80 1    
    47   23   81 1    
    48   23   82 1    
    49   23   83 1    
    50   24   25 am   BACKBONE|DICT|INTERRES
    51   24   84 1    
    52   25   26 2    
    53   27   28 2    
    54   27   29 am   BACKBONE|DICT|INTERRES
    55   29   30 1    
    56   29   85 1    
    57   30   31 1    
    58   30   32 1    
    59   30   86 1    
    60   31   87 1    
    61   31   88 1    
    62   31   89 1    
    63   32   33 2    
    64   32   34 am   BACKBONE|DICT|INTERRES
    65   34   35 1    
    66   34   90 1    
    67   35   36 1    
    68   35   37 1    
    69   35   91 1    
    70   36   92 1    
    71   36   93 1    
    72   36   94 1    
    73   37   38 2    
    74   37   39 am   BACKBONE|DICT|INTERRES
    75   39   40 1    
    76   39   95 1    
    77   40   41 1    
    78   40   42 1    
    79   40   96 1    
    80   41   97 1    
    81   41   98 1    
    82   41   99 1    
    83   42   43 2    
    84   42   44 am   BACKBONE|DICT|INTERRES
    85   44   45 1    
    86   44  100 1    
    87   45   46 1    
    88   45   47 1    
    89   45  101 1    
    90   46  102 1    
    91   46  103 1    
    92   46  104 1    
    93   47   48 2    
    94   47   49 am   BACKBONE|DICT|INTERRES
    95   49   50 1    
    96   49  105 1    
    97   50   51 1    
    98   50   52 1    
    99   50  106 1    
   100   51  107 1    
   101   51  108 1    
   102   51  109 1    
   103   52   53 2    
   104   52   54 am   BACKBONE|DICT|INTERRES
   105   54   55 1    
   106   54  110 1    
   107   55   56 1    
   108   55   59 1    
   109   55  111 1    
   110   56   57 am   BACKBONE|DICT|INTERRES
   111   56   58 2    
   112   57  112 1    
   113   57  113 1    
   114   59   60 1    
   115   59  114 1    
   116   59  115 1    
   117   60   61 1    
   118   61  116 1    
   119   61  117 1    
@<TRIPOS>SUBSTRUCTURE
     1 UNK         1 GROUP             0       ****    0 ROOT    
