@<TRIPOS>MOLECULE
3R8
117   119    1
SMALL
USER_CHARGES


@<TRIPOS>ATOM
      1 CA         13.7558  -24.0571  -41.7020 C.3       0 UNK        -0.2013 
      2 C          14.5705  -24.3960  -42.9415 C.2       0 UNK         0.4866 
      3 O          14.4152  -23.7427  -43.9740 O.2       0 UNK        -0.5176 
      4 N          15.4304  -25.4181  -42.8512 N.am      1 UNK        -0.4884 
      5 CA         16.3276  -25.8563  -43.9261 C.3       1 UNK         0.0853 
      6 C6         16.9336  -27.2514  -43.6341 C.3       10 UNK        -0.0849 
      7 S7         15.6608  -28.5571  -43.5528 S.3       10 UNK        -0.2776 
      8 C8         15.9151  -29.4377  -45.1289 C.3       10 UNK         0.0316 
      9 C9         17.1975  -30.2591  -45.1216 C.ar      10 UNK        -0.0863 
     10 C10        17.2490  -31.4686  -44.4228 C.ar      10 UNK        -0.1009 
     11 C11        18.4197  -32.2312  -44.4105 C.ar      10 UNK        -0.0712 
     12 C12        19.5484  -31.7701  -45.0952 C.ar      10 UNK        -0.0894 
     13 C13        19.5123  -30.5669  -45.8079 C.ar      10 UNK        -0.0745 
     14 C14        18.3249  -29.8232  -45.8257 C.ar      10 UNK        -0.0972 
     15 C15        20.7512  -30.1321  -46.5923 C.3       10 UNK         0.0209 
     16 S16        20.9814  -28.3269  -46.7328 S.3       10 UNK        -0.2568 
     17 C17        21.4688  -27.8897  -45.0314 C.3       10 UNK        -0.0983 
     18 CA         21.6816  -26.3614  -44.8695 C.3       3 UNK         0.0876 
     19 N          20.4533  -25.6211  -45.1753 N.am      3 UNK        -0.4424 
     20 C          20.3596  -24.3339  -45.5327 C.2       2 UNK         0.4918 
     21 O          21.3312  -23.5820  -45.6258 O.2       2 UNK        -0.4875 
     22 CA         18.9537  -23.7889  -45.8542 C.3       2 UNK         0.0481 
     23 CB         18.8198  -23.5221  -47.3624 C.3       2 UNK        -0.1831 
     24 N          17.8617  -24.6732  -45.4285 N.am      2 UNK        -0.4498 
     25 C          17.4534  -24.8281  -44.1610 C.2       1 UNK         0.5027 
     26 O          17.9577  -24.2383  -43.2019 O.2       1 UNK        -0.4969 
     27 C          22.2413  -25.9824  -43.4789 C.2       3 UNK         0.5005 
     28 O          22.3274  -26.8297  -42.5874 O.2       3 UNK        -0.5279 
     29 N          22.6012  -24.7038  -43.3089 N.am      4 UNK        -0.4463 
     30 CA         23.2394  -24.1585  -42.1114 C.3       4 UNK         0.0283 
     31 CB         23.2855  -22.6257  -42.2141 C.3       4 UNK        -0.1875 
     32 C          24.6536  -24.7317  -41.9245 C.2       4 UNK         0.4949 
     33 O          25.3983  -24.8418  -42.9006 O.2       4 UNK        -0.5039 
     34 N          24.9851  -25.0799  -40.6735 N.am      5 UNK        -0.4663 
     35 CA         26.2537  -25.6693  -40.2143 C.3       5 UNK         0.0242 
     36 CB         27.4309  -24.6962  -40.4431 C.3       5 UNK        -0.1982 
     37 C          26.5490  -27.0844  -40.7605 C.2       5 UNK         0.5017 
     38 O          27.6752  -27.5627  -40.6113 O.2       5 UNK        -0.5012 
     39 N          25.5444  -27.7431  -41.3536 N.am      6 UNK        -0.4439 
     40 CA         25.6000  -29.1394  -41.7884 C.3       6 UNK         0.0297 
     41 CB         24.5655  -29.3482  -42.9083 C.3       6 UNK        -0.2006 
     42 C          25.3283  -30.0956  -40.6131 C.2       6 UNK         0.4892 
     43 O          24.8990  -29.6599  -39.5405 O.2       6 UNK        -0.5089 
     44 N          25.5564  -31.3942  -40.8503 N.am      7 UNK        -0.4243 
     45 CA         25.1871  -32.4811  -39.9388 C.3       7 UNK         0.0196 
     46 CB         25.7874  -33.7979  -40.4581 C.3       7 UNK        -0.2007 
     47 C          23.6594  -32.6069  -39.7994 C.2       7 UNK         0.5020 
     48 O          22.9276  -32.2720  -40.7342 O.2       7 UNK        -0.5147 
     49 N          23.2024  -33.1233  -38.6519 N.am      8 UNK        -0.4734 
     50 CA         21.7887  -33.2496  -38.2694 C.3       8 UNK         0.0238 
     51 CB         21.7023  -33.3705  -36.7354 C.3       8 UNK        -0.1912 
     52 C          21.0307  -34.3841  -38.9958 C.2       8 UNK         0.5038 
     53 O          20.3045  -35.1450  -38.3534 O.2       8 UNK        -0.5046 
     54 N          21.2065  -34.4686  -40.3196 N.am      9 UNK        -0.4200 
     55 CA         20.5246  -35.3826  -41.2525 C.3       9 UNK         0.0839 
     56 C          20.8229  -36.8976  -41.0339 C.2       9 UNK         0.5513 
     57 N          21.8918  -37.2650  -40.3375 N.am      9 UNK        -0.7519 
     58 O          20.0981  -37.7564  -41.5306 O.2       9 UNK        -0.4960 
     59 C59        19.0048  -35.0723  -41.3842 C.3       10 UNK        -0.0876 
     60 S60        18.6954  -33.3451  -41.8942 S.3       10 UNK        -0.2414 
     61 C61        18.4565  -33.5658  -43.6818 C.3       10 UNK         0.0169 
     62 H62        13.9838  -24.7224  -40.8693 H         1 UNK         0.0903 
     63 H63        13.9623  -23.0350  -41.3856 H         1 UNK         0.0903 
     64 H64        12.6910  -24.1386  -41.9188 H         1 UNK         0.0903 
     65 H65        15.5225  -25.9168  -41.9776 H         1 UNK         0.3096 
     66 H66        15.7356  -25.9226  -44.8422 H         1 UNK         0.1121 
     67 H67        17.4747  -27.2437  -42.6857 H         1 UNK         0.0849 
     68 H68        17.6712  -27.5191  -44.3910 H         1 UNK         0.0849 
     69 H69        15.0657  -30.1003  -45.3022 H         1 UNK         0.0865 
     70 H70        15.9120  -28.7223  -45.9529 H         1 UNK         0.0865 
     71 H71        16.3766  -31.8167  -43.8862 H         1 UNK         0.1346 
     72 H72        20.4540  -32.3617  -45.0876 H         1 UNK         0.1412 
     73 H73        18.2746  -28.9031  -46.3906 H         1 UNK         0.1426 
     74 H74        20.6777  -30.5466  -47.5984 H         1 UNK         0.0716 
     75 H75        21.6517  -30.5600  -46.1486 H         1 UNK         0.0716 
     76 H76        22.3862  -28.4324  -44.7976 H         1 UNK         0.0695 
     77 H77        20.7071  -28.2520  -44.3380 H         1 UNK         0.0695 
     78 H78        22.4429  -26.0619  -45.5937 H         1 UNK         0.0983 
     79 H79        19.6024  -26.1579  -45.1316 H         1 UNK         0.3095 
     80 H80        18.8483  -22.8357  -45.3318 H         1 UNK         0.0454 
     81 H81        18.9174  -24.4384  -47.9461 H         1 UNK         0.0851 
     82 H82        19.5923  -22.8335  -47.7079 H         1 UNK         0.0851 
     83 H83        17.8575  -23.0698  -47.6027 H         1 UNK         0.0851 
     84 H84        17.3953  -25.1901  -46.1612 H         1 UNK         0.2976 
     85 H85        22.4661  -24.0716  -44.0921 H         1 UNK         0.3116 
     86 H86        22.6245  -24.4298  -41.2506 H         1 UNK         0.0646 
     87 H87        22.2853  -22.2034  -42.3133 H         1 UNK         0.0847 
     88 H88        23.8755  -22.2964  -43.0706 H         1 UNK         0.0847 
     89 H89        23.7348  -22.1879  -41.3217 H         1 UNK         0.0847 
     90 H90        24.2880  -24.9535  -39.9511 H         1 UNK         0.3040 
     91 H91        26.1466  -25.7971  -39.1358 H         1 UNK         0.1015 
     92 H92        27.6603  -24.5774  -41.5024 H         1 UNK         0.0786 
     93 H93        28.3379  -25.0561  -39.9557 H         1 UNK         0.0786 
     94 H94        27.2164  -23.7095  -40.0328 H         1 UNK         0.0786 
     95 H95        24.6416  -27.2913  -41.4063 H         1 UNK         0.3172 
     96 H96        26.5941  -29.3519  -42.1875 H         1 UNK         0.0595 
     97 H97        24.6457  -30.3454  -43.3424 H         1 UNK         0.0839 
     98 H98        24.7064  -28.6323  -43.7183 H         1 UNK         0.0839 
     99 H99        23.5451  -29.2402  -42.5378 H         1 UNK         0.0839 
    100 H100       25.8816  -31.6677  -41.7660 H         1 UNK         0.2998 
    101 H101       25.6114  -32.2599  -38.9569 H         1 UNK         0.0822 
    102 H102       26.8731  -33.7361  -40.5365 H         1 UNK         0.0787 
    103 H103       25.5604  -34.6256  -39.7848 H         1 UNK         0.0787 
    104 H104       25.3938  -34.0611  -41.4410 H         1 UNK         0.0787 
    105 H105       23.8757  -33.4196  -37.9590 H         1 UNK         0.3055 
    106 H106       21.2822  -32.3236  -38.5518 H         1 UNK         0.1106 
    107 H107       22.1850  -32.5269  -36.2416 H         1 UNK         0.0828 
    108 H108       22.1732  -34.2863  -36.3761 H         1 UNK         0.0828 
    109 H109       20.6644  -33.3839  -36.3995 H         1 UNK         0.0828 
    110 H110       21.8165  -33.7745  -40.7432 H         1 UNK         0.2931 
    111 H111       20.9721  -35.1679  -42.2235 H         1 UNK         0.0412 
    112 H112       22.0861  -38.2458  -40.2088 H         1 UNK         0.3472 
    113 H113       22.4958  -36.5707  -39.9278 H         1 UNK         0.3472 
    114 H114       18.4964  -35.2509  -40.4355 H         1 UNK         0.0970 
    115 H115       18.5305  -35.7408  -42.1049 H         1 UNK         0.0970 
    116 H116       19.2595  -34.1891  -44.0787 H         1 UNK         0.0612 
    117 H117       17.5269  -34.1094  -43.8574 H         1 UNK         0.0612 
@<TRIPOS>BOND
     1    1    2 1    
     2    1   62 1    
     3    1   63 1    
     4    1   64 1    
     5    2    3 2    
     6    2    4 am   BACKBONE|DICT|INTERRES
     7    4    5 1    
     8    4   65 1    
     9    5    6 1    
    10    5   25 1    
    11    5   66 1    
    12    6    7 1    
    13    6   67 1    
    14    6   68 1    
    15    7    8 1    
    16    8    9 1    
    17    8   69 1    
    18    8   70 1    
    19    9   10 ar   
    20    9   14 ar   
    21   10   11 ar   
    22   10   71 1    
    23   11   12 ar   
    24   11   61 1    
    25   12   13 ar   
    26   12   72 1    
    27   13   14 ar   
    28   13   15 1    
    29   14   73 1    
    30   15   16 1    
    31   15   74 1    
    32   15   75 1    
    33   16   17 1    
    34   17   18 1    
    35   17   76 1    
    36   17   77 1    
    37   18   19 1    
    38   18   27 1    
    39   18   78 1    
    40   19   20 am   BACKBONE|DICT|INTERRES
    41   19   79 1    
    42   20   21 2    
    43   20   22 1    
    44   22   23 1    
    45   22   24 1    
    46   22   80 1    
    47   23   81 1    
    48   23   82 1    
    49   23   83 1    
    50   24   25 am   BACKBONE|DICT|INTERRES
    51   24   84 1    
    52   25   26 2    
    53   27   28 2    
    54   27   29 am   BACKBONE|DICT|INTERRES
    55   29   30 1    
    56   29   85 1    
    57   30   31 1    
    58   30   32 1    
    59   30   86 1    
    60   31   87 1    
    61   31   88 1    
    62   31   89 1    
    63   32   33 2    
    64   32   34 am   BACKBONE|DICT|INTERRES
    65   34   35 1    
    66   34   90 1    
    67   35   36 1    
    68   35   37 1    
    69   35   91 1    
    70   36   92 1    
    71   36   93 1    
    72   36   94 1    
    73   37   38 2    
    74   37   39 am   BACKBONE|DICT|INTERRES
    75   39   40 1    
    76   39   95 1    
    77   40   41 1    
    78   40   42 1    
    79   40   96 1    
    80   41   97 1    
    81   41   98 1    
    82   41   99 1    
    83   42   43 2    
    84   42   44 am   BACKBONE|DICT|INTERRES
    85   44   45 1    
    86   44  100 1    
    87   45   46 1    
    88   45   47 1    
    89   45  101 1    
    90   46  102 1    
    91   46  103 1    
    92   46  104 1    
    93   47   48 2    
    94   47   49 am   BACKBONE|DICT|INTERRES
    95   49   50 1    
    96   49  105 1    
    97   50   51 1    
    98   50   52 1    
    99   50  106 1    
   100   51  107 1    
   101   51  108 1    
   102   51  109 1    
   103   52   53 2    
   104   52   54 am   BACKBONE|DICT|INTERRES
   105   54   55 1    
   106   54  110 1    
   107   55   56 1    
   108   55   59 1    
   109   55  111 1    
   110   56   57 am   BACKBONE|DICT|INTERRES
   111   56   58 2    
   112   57  112 1    
   113   57  113 1    
   114   59   60 1    
   115   59  114 1    
   116   59  115 1    
   117   60   61 1    
   118   61  116 1    
   119   61  117 1    
@<TRIPOS>SUBSTRUCTURE
     1 UNK         1 GROUP             0       ****    0 ROOT    
