@<TRIPOS>MOLECULE
3R8
117   119    1
SMALL
USER_CHARGES


@<TRIPOS>ATOM
      1 CA         15.2247  -23.7166  -47.4748 C.3       0 UNK        -0.2013 
      2 C          15.2768  -24.8847  -46.5006 C.2       0 UNK         0.4866 
      3 O          14.3076  -25.1111  -45.7752 O.2       0 UNK        -0.5176 
      4 N          16.3985  -25.6195  -46.4923 N.am      1 UNK        -0.4884 
      5 CA         16.7082  -26.7719  -45.6298 C.3       1 UNK         0.0853 
      6 C6         15.7274  -27.9674  -45.8198 C.3       10 UNK        -0.0849 
      7 S7         16.0664  -28.8173  -47.3972 S.3       10 UNK        -0.2776 
      8 C8         16.8791  -30.3528  -46.8343 C.3       10 UNK         0.0316 
      9 C9         18.0384  -30.1051  -45.8733 C.ar      10 UNK        -0.0863 
     10 C10        17.9862  -30.6056  -44.5691 C.ar      10 UNK        -0.1009 
     11 C11        19.0557  -30.4156  -43.6894 C.ar      10 UNK        -0.0712 
     12 C12        20.1793  -29.6986  -44.1134 C.ar      10 UNK        -0.0894 
     13 C13        20.2392  -29.1835  -45.4128 C.ar      10 UNK        -0.0745 
     14 C14        19.1711  -29.3998  -46.2898 C.ar      10 UNK        -0.0972 
     15 C15        21.4652  -28.4207  -45.8921 C.3       10 UNK         0.0209 
     16 S16        21.3445  -26.6407  -45.5222 S.3       10 UNK        -0.2568 
     17 C17        22.1525  -26.5348  -43.8886 C.3       10 UNK        -0.0983 
     18 CA         21.2488  -25.9063  -42.7987 C.3       3 UNK         0.0876 
     19 N          19.9984  -26.6521  -42.6424 N.am      3 UNK        -0.4424 
     20 C          18.9954  -26.3648  -41.8016 C.2       2 UNK         0.4918 
     21 O          19.0052  -25.4284  -41.0005 O.2       2 UNK        -0.4875 
     22 CA         17.7507  -27.2641  -41.9375 C.3       2 UNK         0.0481 
     23 CB         16.5819  -26.8347  -41.0259 C.3       2 UNK        -0.1831 
     24 N          17.3198  -27.3813  -43.3380 N.am      2 UNK        -0.4498 
     25 C          16.9268  -26.3841  -44.1496 C.2       1 UNK         0.5027 
     26 O          16.8051  -25.2123  -43.7832 O.2       1 UNK        -0.4969 
     27 C          22.0366  -25.8062  -41.4778 C.2       3 UNK         0.5005 
     28 O          22.2316  -26.8257  -40.8124 O.2       3 UNK        -0.5279 
     29 N          22.5355  -24.6029  -41.1577 N.am      4 UNK        -0.4463 
     30 CA         23.3505  -24.3236  -39.9667 C.3       4 UNK         0.0283 
     31 CB         23.5573  -22.8061  -39.8342 C.3       4 UNK        -0.1875 
     32 C          24.7073  -25.0533  -39.9551 C.2       4 UNK         0.4949 
     33 O          25.2421  -25.3211  -38.8795 O.2       4 UNK        -0.5039 
     34 N          25.2238  -25.3832  -41.1470 N.am      5 UNK        -0.4663 
     35 CA         26.4254  -26.1977  -41.3477 C.3       5 UNK         0.0242 
     36 CB         26.9427  -25.9656  -42.7776 C.3       5 UNK        -0.1982 
     37 C          26.2026  -27.7033  -41.0943 C.2       5 UNK         0.5017 
     38 O          27.1909  -28.4315  -40.9937 O.2       5 UNK        -0.5012 
     39 N          24.9315  -28.1291  -40.9996 N.am      6 UNK        -0.4439 
     40 CA         24.4226  -29.4980  -40.8532 C.3       6 UNK         0.0297 
     41 CB         25.0095  -30.1888  -39.6034 C.3       6 UNK        -0.2006 
     42 C          24.6010  -30.3651  -42.1141 C.2       6 UNK         0.4892 
     43 O          25.4279  -30.0723  -42.9803 O.2       6 UNK        -0.5089 
     44 N          23.8086  -31.4383  -42.1820 N.am      7 UNK        -0.4243 
     45 CA         23.8515  -32.4624  -43.2269 C.3       7 UNK         0.0196 
     46 CB         23.0180  -32.0172  -44.4453 C.3       7 UNK        -0.2007 
     47 C          23.3705  -33.7848  -42.6172 C.2       7 UNK         0.5020 
     48 O          22.3870  -34.3606  -43.0818 O.2       7 UNK        -0.5147 
     49 N          24.0197  -34.1907  -41.5155 N.am      8 UNK        -0.4734 
     50 CA         23.6212  -35.2283  -40.5474 C.3       8 UNK         0.0238 
     51 CB         23.3763  -36.6039  -41.2003 C.3       8 UNK        -0.1912 
     52 C          22.4326  -34.7770  -39.6797 C.2       8 UNK         0.5038 
     53 O          22.5309  -34.8252  -38.4530 O.2       8 UNK        -0.5046 
     54 N          21.3694  -34.2806  -40.3232 N.am      9 UNK        -0.4200 
     55 CA         20.3604  -33.4045  -39.7164 C.3       9 UNK         0.0839 
     56 C          20.9500  -32.0099  -39.3671 C.2       9 UNK         0.5513 
     57 N          20.3917  -31.3304  -38.3756 N.am      9 UNK        -0.7519 
     58 O          21.8811  -31.5283  -40.0106 O.2       9 UNK        -0.4960 
     59 C59        19.0919  -33.2841  -40.6033 C.3       10 UNK        -0.0876 
     60 S60        19.4121  -32.7800  -42.3318 S.3       10 UNK        -0.2414 
     61 C61        18.9952  -31.0105  -42.2914 C.3       10 UNK         0.0169 
     62 H62        16.1373  -23.6342  -48.0650 H         1 UNK         0.0903 
     63 H63        14.3875  -23.8382  -48.1616 H         1 UNK         0.0903 
     64 H64        15.0871  -22.7819  -46.9318 H         1 UNK         0.0903 
     65 H65        17.1512  -25.3486  -47.1098 H         1 UNK         0.3096 
     66 H66        17.6984  -27.0941  -45.9540 H         1 UNK         0.1121 
     67 H67        15.7919  -28.6978  -45.0132 H         1 UNK         0.0849 
     68 H68        14.6880  -27.6395  -45.8141 H         1 UNK         0.0849 
     69 H69        16.1271  -30.9965  -46.3749 H         1 UNK         0.0865 
     70 H70        17.2493  -30.8956  -47.7051 H         1 UNK         0.0865 
     71 H71        17.1229  -31.1691  -44.2409 H         1 UNK         0.1346 
     72 H72        21.0146  -29.5618  -43.4396 H         1 UNK         0.1412 
     73 H73        19.2172  -29.0150  -47.2999 H         1 UNK         0.1426 
     74 H74        21.5710  -28.5393  -46.9716 H         1 UNK         0.0716 
     75 H75        22.3739  -28.8424  -45.4606 H         1 UNK         0.0716 
     76 H76        23.0592  -25.9408  -44.0187 H         1 UNK         0.0695 
     77 H77        22.4884  -27.5262  -43.5781 H         1 UNK         0.0695 
     78 H78        20.9742  -24.8978  -43.1150 H         1 UNK         0.0983 
     79 H79        19.8798  -27.4266  -43.2778 H         1 UNK         0.3095 
     80 H80        18.0580  -28.2619  -41.6228 H         1 UNK         0.0454 
     81 H81        16.8803  -26.8547  -39.9771 H         1 UNK         0.0851 
     82 H82        15.7290  -27.5047  -41.1324 H         1 UNK         0.0851 
     83 H83        16.2424  -25.8221  -41.2450 H         1 UNK         0.0851 
     84 H84        17.4218  -28.3035  -43.7408 H         1 UNK         0.2976 
     85 H85        22.3366  -23.8155  -41.7593 H         1 UNK         0.3116 
     86 H86        22.7900  -24.6685  -39.0951 H         1 UNK         0.0646 
     87 H87        22.6062  -22.2803  -39.7487 H         1 UNK         0.0847 
     88 H88        24.0954  -22.3941  -40.6888 H         1 UNK         0.0847 
     89 H89        24.1365  -22.5683  -38.9407 H         1 UNK         0.0847 
     90 H90        24.7260  -25.0955  -41.9767 H         1 UNK         0.3040 
     91 H91        27.1925  -25.8625  -40.6457 H         1 UNK         0.1015 
     92 H92        27.8633  -26.5235  -42.9550 H         1 UNK         0.0786 
     93 H93        27.1656  -24.9132  -42.9548 H         1 UNK         0.0786 
     94 H94        26.2182  -26.2889  -43.5264 H         1 UNK         0.0786 
     95 H95        24.2003  -27.4293  -41.0639 H         1 UNK         0.3172 
     96 H96        23.3491  -29.3832  -40.6965 H         1 UNK         0.0595 
     97 H97        24.5032  -31.1332  -39.4020 H         1 UNK         0.0839 
     98 H98        24.8917  -29.5674  -38.7157 H         1 UNK         0.0839 
     99 H99        26.0698  -30.4141  -39.7189 H         1 UNK         0.0839 
    100 H100       23.1368  -31.5919  -41.4303 H         1 UNK         0.2998 
    101 H101       24.8847  -32.6131  -43.5474 H         1 UNK         0.0822 
    102 H102       23.3811  -31.0755  -44.8560 H         1 UNK         0.0787 
    103 H103       23.0672  -32.7594  -45.2428 H         1 UNK         0.0787 
    104 H104       21.9670  -31.8897  -44.1851 H         1 UNK         0.0787 
    105 H105       24.8052  -33.6257  -41.2210 H         1 UNK         0.3055 
    106 H106       24.4719  -35.3416  -39.8728 H         1 UNK         0.1106 
    107 H107       24.2245  -36.9088  -41.8129 H         1 UNK         0.0828 
    108 H108       23.2350  -37.3708  -40.4377 H         1 UNK         0.0828 
    109 H109       22.4864  -36.6139  -41.8296 H         1 UNK         0.0828 
    110 H110       21.4064  -34.2665  -41.3377 H         1 UNK         0.2931 
    111 H111       20.0558  -33.8698  -38.7768 H         1 UNK         0.0412 
    112 H112       19.6262  -31.7130  -37.8427 H         1 UNK         0.3472 
    113 H113       20.7556  -30.4190  -38.1459 H         1 UNK         0.3472 
    114 H114       18.5956  -34.2549  -40.6396 H         1 UNK         0.0970 
    115 H115       18.3633  -32.6099  -40.1492 H         1 UNK         0.0970 
    116 H116       19.6812  -30.4875  -41.6235 H         1 UNK         0.0612 
    117 H117       17.9936  -30.8798  -41.8790 H         1 UNK         0.0612 
@<TRIPOS>BOND
     1    1    2 1    
     2    1   62 1    
     3    1   63 1    
     4    1   64 1    
     5    2    3 2    
     6    2    4 am   BACKBONE|DICT|INTERRES
     7    4    5 1    
     8    4   65 1    
     9    5    6 1    
    10    5   25 1    
    11    5   66 1    
    12    6    7 1    
    13    6   67 1    
    14    6   68 1    
    15    7    8 1    
    16    8    9 1    
    17    8   69 1    
    18    8   70 1    
    19    9   10 ar   
    20    9   14 ar   
    21   10   11 ar   
    22   10   71 1    
    23   11   12 ar   
    24   11   61 1    
    25   12   13 ar   
    26   12   72 1    
    27   13   14 ar   
    28   13   15 1    
    29   14   73 1    
    30   15   16 1    
    31   15   74 1    
    32   15   75 1    
    33   16   17 1    
    34   17   18 1    
    35   17   76 1    
    36   17   77 1    
    37   18   19 1    
    38   18   27 1    
    39   18   78 1    
    40   19   20 am   BACKBONE|DICT|INTERRES
    41   19   79 1    
    42   20   21 2    
    43   20   22 1    
    44   22   23 1    
    45   22   24 1    
    46   22   80 1    
    47   23   81 1    
    48   23   82 1    
    49   23   83 1    
    50   24   25 am   BACKBONE|DICT|INTERRES
    51   24   84 1    
    52   25   26 2    
    53   27   28 2    
    54   27   29 am   BACKBONE|DICT|INTERRES
    55   29   30 1    
    56   29   85 1    
    57   30   31 1    
    58   30   32 1    
    59   30   86 1    
    60   31   87 1    
    61   31   88 1    
    62   31   89 1    
    63   32   33 2    
    64   32   34 am   BACKBONE|DICT|INTERRES
    65   34   35 1    
    66   34   90 1    
    67   35   36 1    
    68   35   37 1    
    69   35   91 1    
    70   36   92 1    
    71   36   93 1    
    72   36   94 1    
    73   37   38 2    
    74   37   39 am   BACKBONE|DICT|INTERRES
    75   39   40 1    
    76   39   95 1    
    77   40   41 1    
    78   40   42 1    
    79   40   96 1    
    80   41   97 1    
    81   41   98 1    
    82   41   99 1    
    83   42   43 2    
    84   42   44 am   BACKBONE|DICT|INTERRES
    85   44   45 1    
    86   44  100 1    
    87   45   46 1    
    88   45   47 1    
    89   45  101 1    
    90   46  102 1    
    91   46  103 1    
    92   46  104 1    
    93   47   48 2    
    94   47   49 am   BACKBONE|DICT|INTERRES
    95   49   50 1    
    96   49  105 1    
    97   50   51 1    
    98   50   52 1    
    99   50  106 1    
   100   51  107 1    
   101   51  108 1    
   102   51  109 1    
   103   52   53 2    
   104   52   54 am   BACKBONE|DICT|INTERRES
   105   54   55 1    
   106   54  110 1    
   107   55   56 1    
   108   55   59 1    
   109   55  111 1    
   110   56   57 am   BACKBONE|DICT|INTERRES
   111   56   58 2    
   112   57  112 1    
   113   57  113 1    
   114   59   60 1    
   115   59  114 1    
   116   59  115 1    
   117   60   61 1    
   118   61  116 1    
   119   61  117 1    
@<TRIPOS>SUBSTRUCTURE
     1 UNK         1 GROUP             0       ****    0 ROOT    
