@<TRIPOS>MOLECULE
3R8
117   119    1
SMALL
USER_CHARGES


@<TRIPOS>ATOM
      1 CA         20.3754  -21.5703  -47.1391 C.3       0 UNK        -0.2013 
      2 C          20.4730  -22.3652  -45.8458 C.2       0 UNK         0.4866 
      3 O          20.5035  -21.7752  -44.7658 O.2       0 UNK        -0.5176 
      4 N          20.5280  -23.6993  -45.9484 N.am      1 UNK        -0.4884 
      5 CA         20.5809  -24.6346  -44.8180 C.3       1 UNK         0.0853 
      6 C6         20.9731  -26.0713  -45.2681 C.3       10 UNK        -0.0849 
      7 S7         19.9768  -26.7014  -46.6691 S.3       10 UNK        -0.2776 
      8 C8         20.7954  -28.2846  -47.0488 C.3       10 UNK         0.0316 
      9 C9         20.3357  -29.3894  -46.1099 C.ar      10 UNK        -0.0863 
     10 C10        21.2023  -29.9134  -45.1474 C.ar      10 UNK        -0.1009 
     11 C11        20.7673  -30.9080  -44.2655 C.ar      10 UNK        -0.0712 
     12 C12        19.4473  -31.3681  -44.3433 C.ar      10 UNK        -0.0894 
     13 C13        18.5691  -30.8455  -45.2994 C.ar      10 UNK        -0.0745 
     14 C14        19.0296  -29.8785  -46.1982 C.ar      10 UNK        -0.0972 
     15 C15        17.1028  -31.2589  -45.3148 C.3       10 UNK         0.0209 
     16 S16        15.9958  -29.8564  -44.9219 S.3       10 UNK        -0.2568 
     17 C17        16.4681  -29.4493  -43.2047 C.3       10 UNK        -0.0983 
     18 CA         17.6514  -28.4482  -43.1343 C.3       3 UNK         0.0876 
     19 N          17.4212  -27.1501  -43.7688 N.am      3 UNK        -0.4424 
     20 C          16.5419  -26.1892  -43.4609 C.2       2 UNK         0.4918 
     21 O          15.6017  -26.3265  -42.6766 O.2       2 UNK        -0.4875 
     22 CA         16.7599  -24.8323  -44.1737 C.3       2 UNK         0.0481 
     23 CB         16.3421  -23.6333  -43.2972 C.3       2 UNK        -0.1831 
     24 N          18.1278  -24.6518  -44.6942 N.am      2 UNK        -0.4498 
     25 C          19.2765  -24.6367  -43.9933 C.2       1 UNK         0.5027 
     26 O          19.3391  -24.6512  -42.7645 O.2       1 UNK        -0.4969 
     27 C          18.2509  -28.3295  -41.7193 C.2       3 UNK         0.5005 
     28 O          17.8821  -27.4465  -40.9421 O.2       3 UNK        -0.5279 
     29 N          19.2012  -29.2347  -41.4357 N.am      4 UNK        -0.4463 
     30 CA         20.1756  -29.1792  -40.3388 C.3       4 UNK         0.0283 
     31 CB         19.4881  -29.1981  -38.9546 C.3       4 UNK        -0.1875 
     32 C          21.1530  -28.0017  -40.5394 C.2       4 UNK         0.4949 
     33 O          21.3177  -27.5388  -41.6718 O.2       4 UNK        -0.5039 
     34 N          21.8078  -27.5629  -39.4543 N.am      5 UNK        -0.4663 
     35 CA         22.7447  -26.4324  -39.3322 C.3       5 UNK         0.0242 
     36 CB         22.0487  -25.0956  -39.6590 C.3       5 UNK        -0.1982 
     37 C          24.0569  -26.5800  -40.1252 C.2       5 UNK         0.5017 
     38 O          25.1325  -26.4364  -39.5435 O.2       5 UNK        -0.5012 
     39 N          23.9477  -26.8628  -41.4277 N.am      6 UNK        -0.4439 
     40 CA         25.0582  -27.0905  -42.3533 C.3       6 UNK         0.0297 
     41 CB         24.5289  -27.0300  -43.7957 C.3       6 UNK        -0.2006 
     42 C          25.7840  -28.4230  -42.1001 C.2       6 UNK         0.4892 
     43 O          26.9882  -28.5085  -42.3436 O.2       6 UNK        -0.5089 
     44 N          25.0460  -29.4261  -41.6117 N.am      7 UNK        -0.4243 
     45 CA         25.5247  -30.7546  -41.2491 C.3       7 UNK         0.0196 
     46 CB         25.8155  -31.5871  -42.5133 C.3       7 UNK        -0.2007 
     47 C          24.4587  -31.4293  -40.3802 C.2       7 UNK         0.5020 
     48 O          23.2943  -31.0208  -40.4042 O.2       7 UNK        -0.5147 
     49 N          24.8637  -32.4715  -39.6479 N.am      8 UNK        -0.4734 
     50 CA         23.9812  -33.3101  -38.8351 C.3       8 UNK         0.0238 
     51 CB         24.7759  -33.8519  -37.6315 C.3       8 UNK        -0.1912 
     52 C          23.3769  -34.4315  -39.6994 C.2       8 UNK         0.5038 
     53 O          23.7498  -35.5963  -39.5455 O.2       8 UNK        -0.5046 
     54 N          22.4859  -34.0496  -40.6229 N.am      9 UNK        -0.4200 
     55 CA         21.8250  -34.9557  -41.5808 C.3       9 UNK         0.0839 
     56 C          20.7996  -35.9448  -40.9519 C.2       9 UNK         0.5513 
     57 N          20.3532  -35.7483  -39.7170 N.am      9 UNK        -0.7519 
     58 O          20.4031  -36.9096  -41.6005 O.2       9 UNK        -0.4960 
     59 C59        21.1779  -34.1882  -42.7645 C.3       10 UNK        -0.0876 
     60 S60        22.3544  -33.1000  -43.6413 S.3       10 UNK        -0.2414 
     61 C61        21.7215  -31.4495  -43.2106 C.3       10 UNK         0.0169 
     62 H62        20.3643  -22.2171  -48.0163 H         1 UNK         0.0903 
     63 H63        19.4626  -20.9751  -47.1454 H         1 UNK         0.0903 
     64 H64        21.2244  -20.8931  -47.2283 H         1 UNK         0.0903 
     65 H65        20.5034  -24.1331  -46.8615 H         1 UNK         0.3096 
     66 H66        21.3647  -24.2809  -44.1436 H         1 UNK         0.1121 
     67 H67        22.0192  -26.0720  -45.5778 H         1 UNK         0.0849 
     68 H68        20.9137  -26.7751  -44.4343 H         1 UNK         0.0849 
     69 H69        20.5538  -28.5682  -48.0742 H         1 UNK         0.0865 
     70 H70        21.8790  -28.1602  -47.0155 H         1 UNK         0.0865 
     71 H71        22.2154  -29.5414  -45.0791 H         1 UNK         0.1346 
     72 H72        19.0944  -32.1160  -43.6479 H         1 UNK         0.1412 
     73 H73        18.3506  -29.4623  -46.9305 H         1 UNK         0.1426 
     74 H74        16.9156  -32.0730  -44.6129 H         1 UNK         0.0716 
     75 H75        16.8514  -31.6415  -46.3049 H         1 UNK         0.0716 
     76 H76        15.5952  -29.0448  -42.6905 H         1 UNK         0.0695 
     77 H77        16.7154  -30.3799  -42.6904 H         1 UNK         0.0695 
     78 H78        18.4659  -28.8413  -43.7332 H         1 UNK         0.0983 
     79 H79        18.1180  -26.9016  -44.4555 H         1 UNK         0.3095 
     80 H80        16.1066  -24.8439  -45.0471 H         1 UNK         0.0454 
     81 H81        16.8986  -23.6039  -42.3601 H         1 UNK         0.0851 
     82 H82        16.5038  -22.6875  -43.8140 H         1 UNK         0.0851 
     83 H83        15.2830  -23.6850  -43.0424 H         1 UNK         0.0851 
     84 H84        18.2094  -24.6297  -45.7020 H         1 UNK         0.2976 
     85 H85        19.4302  -29.8995  -42.1605 H         1 UNK         0.3116 
     86 H86        20.7714  -30.0880  -40.4166 H         1 UNK         0.0646 
     87 H87        20.2009  -29.4236  -38.1610 H         1 UNK         0.0847 
     88 H88        18.7140  -29.9640  -38.9093 H         1 UNK         0.0847 
     89 H89        19.0227  -28.2414  -38.7146 H         1 UNK         0.0847 
     90 H90        21.6318  -28.0540  -38.5886 H         1 UNK         0.3040 
     91 H91        23.0279  -26.3981  -38.2785 H         1 UNK         0.1015 
     92 H92        21.1797  -24.9366  -39.0205 H         1 UNK         0.0786 
     93 H93        21.7114  -25.0488  -40.6953 H         1 UNK         0.0786 
     94 H94        22.7251  -24.2546  -39.5005 H         1 UNK         0.0786 
     95 H95        23.0006  -27.0049  -41.7793 H         1 UNK         0.3172 
     96 H96        25.7837  -26.2855  -42.2191 H         1 UNK         0.0595 
     97 H97        24.0939  -26.0551  -44.0160 H         1 UNK         0.0839 
     98 H98        23.7660  -27.7878  -43.9786 H         1 UNK         0.0839 
     99 H99        25.3328  -27.1948  -44.5144 H         1 UNK         0.0839 
    100 H100       24.0682  -29.2704  -41.3997 H         1 UNK         0.2998 
    101 H101       26.4363  -30.6507  -40.6568 H         1 UNK         0.0822 
    102 H102       26.6338  -31.1599  -43.0929 H         1 UNK         0.0787 
    103 H103       26.1026  -32.6084  -42.2602 H         1 UNK         0.0787 
    104 H104       24.9441  -31.6452  -43.1650 H         1 UNK         0.0787 
    105 H105       25.8276  -32.7677  -39.7137 H         1 UNK         0.3055 
    106 H106       23.1554  -32.7104  -38.4443 H         1 UNK         0.1106 
    107 H107       25.6309  -34.4528  -37.9441 H         1 UNK         0.0828 
    108 H108       25.1481  -33.0406  -37.0057 H         1 UNK         0.0828 
    109 H109       24.1472  -34.4826  -37.0014 H         1 UNK         0.0828 
    110 H110       22.2817  -33.0636  -40.7142 H         1 UNK         0.2931 
    111 H111       22.6132  -35.5817  -42.0042 H         1 UNK         0.0412 
    112 H112       19.6918  -36.3985  -39.3218 H         1 UNK         0.3472 
    113 H113       20.6708  -34.9605  -39.1760 H         1 UNK         0.3472 
    114 H114       20.3207  -33.6141  -42.4122 H         1 UNK         0.0970 
    115 H115       20.7816  -34.8917  -43.4993 H         1 UNK         0.0970 
    116 H116       22.5717  -30.7756  -43.0952 H         1 UNK         0.0612 
    117 H117       21.2312  -31.4782  -42.2385 H         1 UNK         0.0612 
@<TRIPOS>BOND
     1    1    2 1    
     2    1   62 1    
     3    1   63 1    
     4    1   64 1    
     5    2    3 2    
     6    2    4 am   BACKBONE|DICT|INTERRES
     7    4    5 1    
     8    4   65 1    
     9    5    6 1    
    10    5   25 1    
    11    5   66 1    
    12    6    7 1    
    13    6   67 1    
    14    6   68 1    
    15    7    8 1    
    16    8    9 1    
    17    8   69 1    
    18    8   70 1    
    19    9   10 ar   
    20    9   14 ar   
    21   10   11 ar   
    22   10   71 1    
    23   11   12 ar   
    24   11   61 1    
    25   12   13 ar   
    26   12   72 1    
    27   13   14 ar   
    28   13   15 1    
    29   14   73 1    
    30   15   16 1    
    31   15   74 1    
    32   15   75 1    
    33   16   17 1    
    34   17   18 1    
    35   17   76 1    
    36   17   77 1    
    37   18   19 1    
    38   18   27 1    
    39   18   78 1    
    40   19   20 am   BACKBONE|DICT|INTERRES
    41   19   79 1    
    42   20   21 2    
    43   20   22 1    
    44   22   23 1    
    45   22   24 1    
    46   22   80 1    
    47   23   81 1    
    48   23   82 1    
    49   23   83 1    
    50   24   25 am   BACKBONE|DICT|INTERRES
    51   24   84 1    
    52   25   26 2    
    53   27   28 2    
    54   27   29 am   BACKBONE|DICT|INTERRES
    55   29   30 1    
    56   29   85 1    
    57   30   31 1    
    58   30   32 1    
    59   30   86 1    
    60   31   87 1    
    61   31   88 1    
    62   31   89 1    
    63   32   33 2    
    64   32   34 am   BACKBONE|DICT|INTERRES
    65   34   35 1    
    66   34   90 1    
    67   35   36 1    
    68   35   37 1    
    69   35   91 1    
    70   36   92 1    
    71   36   93 1    
    72   36   94 1    
    73   37   38 2    
    74   37   39 am   BACKBONE|DICT|INTERRES
    75   39   40 1    
    76   39   95 1    
    77   40   41 1    
    78   40   42 1    
    79   40   96 1    
    80   41   97 1    
    81   41   98 1    
    82   41   99 1    
    83   42   43 2    
    84   42   44 am   BACKBONE|DICT|INTERRES
    85   44   45 1    
    86   44  100 1    
    87   45   46 1    
    88   45   47 1    
    89   45  101 1    
    90   46  102 1    
    91   46  103 1    
    92   46  104 1    
    93   47   48 2    
    94   47   49 am   BACKBONE|DICT|INTERRES
    95   49   50 1    
    96   49  105 1    
    97   50   51 1    
    98   50   52 1    
    99   50  106 1    
   100   51  107 1    
   101   51  108 1    
   102   51  109 1    
   103   52   53 2    
   104   52   54 am   BACKBONE|DICT|INTERRES
   105   54   55 1    
   106   54  110 1    
   107   55   56 1    
   108   55   59 1    
   109   55  111 1    
   110   56   57 am   BACKBONE|DICT|INTERRES
   111   56   58 2    
   112   57  112 1    
   113   57  113 1    
   114   59   60 1    
   115   59  114 1    
   116   59  115 1    
   117   60   61 1    
   118   61  116 1    
   119   61  117 1    
@<TRIPOS>SUBSTRUCTURE
     1 UNK         1 GROUP             0       ****    0 ROOT    
