@<TRIPOS>MOLECULE
3R8
117   119    1
SMALL
USER_CHARGES


@<TRIPOS>ATOM
      1 CA         15.5221  -22.5207  -43.8608 C.3       0 UNK        -0.2013 
      2 C          15.9530  -23.8651  -43.2940 C.2       0 UNK         0.4866 
      3 O          15.8695  -24.0696  -42.0830 O.2       0 UNK        -0.5176 
      4 N          16.4195  -24.7742  -44.1626 N.am      1 UNK        -0.4884 
      5 CA         16.8667  -26.1423  -43.8445 C.3       1 UNK         0.0853 
      6 C6         15.7195  -27.0638  -43.3406 C.3       10 UNK        -0.0849 
      7 S7         14.5037  -27.3469  -44.6785 S.3       10 UNK        -0.2776 
      8 C8         14.4822  -29.1654  -44.8787 C.3       10 UNK         0.0316 
      9 C9         15.8623  -29.8185  -44.9177 C.ar      10 UNK        -0.0863 
     10 C10        16.1230  -30.9202  -44.0981 C.ar      10 UNK        -0.1009 
     11 C11        17.3799  -31.5299  -44.0976 C.ar      10 UNK        -0.0712 
     12 C12        18.3931  -31.0150  -44.9132 C.ar      10 UNK        -0.0894 
     13 C13        18.1537  -29.9055  -45.7311 C.ar      10 UNK        -0.0745 
     14 C14        16.8751  -29.3340  -45.7527 C.ar      10 UNK        -0.0972 
     15 C15        19.2806  -29.3171  -46.5744 C.3       10 UNK         0.0209 
     16 S16        19.5301  -27.5528  -46.1939 S.3       10 UNK        -0.2568 
     17 C17        21.3433  -27.3414  -46.2728 C.3       10 UNK        -0.0983 
     18 CA         22.0831  -27.4514  -44.9036 C.3       3 UNK         0.0876 
     19 N          21.3662  -26.8054  -43.8060 N.am      3 UNK        -0.4424 
     20 C          21.3138  -25.4927  -43.5761 C.2       2 UNK         0.4918 
     21 O          21.9567  -24.6585  -44.2159 O.2       2 UNK        -0.4875 
     22 CA         20.3094  -25.0406  -42.5039 C.3       2 UNK         0.0481 
     23 CB         20.5657  -23.6012  -42.0223 C.3       2 UNK        -0.1831 
     24 N          18.9662  -25.1254  -43.0728 N.am      2 UNK        -0.4498 
     25 C          18.1429  -26.1789  -42.9693 C.2       1 UNK         0.5027 
     26 O          18.3854  -27.1582  -42.2623 O.2       1 UNK        -0.4969 
     27 C          22.4085  -28.8999  -44.5037 C.2       3 UNK         0.5005 
     28 O          21.9437  -29.3683  -43.4616 O.2       3 UNK        -0.5279 
     29 N          23.2223  -29.5681  -45.3343 N.am      4 UNK        -0.4463 
     30 CA         23.7670  -30.9169  -45.1439 C.3       4 UNK         0.0283 
     31 CB         22.6438  -31.9781  -45.1395 C.3       4 UNK        -0.1875 
     32 C          24.7201  -30.9861  -43.9322 C.2       4 UNK         0.4949 
     33 O          25.4452  -30.0181  -43.6865 O.2       4 UNK        -0.5039 
     34 N          24.7423  -32.1313  -43.2328 N.am      5 UNK        -0.4663 
     35 CA         25.6409  -32.4536  -42.1177 C.3       5 UNK         0.0242 
     36 CB         25.2565  -33.8235  -41.5344 C.3       5 UNK        -0.1982 
     37 C          25.6385  -31.3795  -41.0183 C.2       5 UNK         0.5017 
     38 O          24.5855  -31.1193  -40.4315 O.2       5 UNK        -0.5012 
     39 N          26.8005  -30.7420  -40.8103 N.am      6 UNK        -0.4439 
     40 CA         27.0642  -29.6497  -39.8603 C.3       6 UNK         0.0297 
     41 CB         26.9964  -30.1822  -38.4128 C.3       6 UNK        -0.2006 
     42 C          26.1784  -28.3971  -40.0512 C.2       6 UNK         0.4892 
     43 O          26.0674  -27.5964  -39.1217 O.2       6 UNK        -0.5089 
     44 N          25.5439  -28.2640  -41.2286 N.am      7 UNK        -0.4243 
     45 CA         24.4782  -27.3088  -41.5556 C.3       7 UNK         0.0196 
     46 CB         25.0189  -25.8646  -41.6138 C.3       7 UNK        -0.2007 
     47 C          23.2343  -27.4527  -40.6502 C.2       7 UNK         0.5020 
     48 O          22.5382  -26.4654  -40.4142 O.2       7 UNK        -0.5147 
     49 N          22.9822  -28.6704  -40.1523 N.am      8 UNK        -0.4734 
     50 CA         21.8632  -29.0072  -39.2681 C.3       8 UNK         0.0238 
     51 CB         22.4016  -29.2118  -37.8418 C.3       8 UNK        -0.1912 
     52 C          21.0948  -30.2532  -39.7379 C.2       8 UNK         0.5038 
     53 O          19.9239  -30.3878  -39.3861 O.2       8 UNK        -0.5046 
     54 N          21.7636  -31.1353  -40.4920 N.am      9 UNK        -0.4200 
     55 CA         21.2669  -32.3896  -41.0771 C.3       9 UNK         0.0839 
     56 C          21.0218  -33.5601  -40.0785 C.2       9 UNK         0.5513 
     57 N          21.3232  -33.4124  -38.7941 N.am      9 UNK        -0.7519 
     58 O          20.6079  -34.6429  -40.4848 O.2       9 UNK        -0.4960 
     59 C59        20.1650  -32.1776  -42.1610 C.3       10 UNK        -0.0876 
     60 S60        18.4174  -32.3054  -41.6407 S.3       10 UNK        -0.2414 
     61 C61        17.6269  -32.7496  -43.2197 C.3       10 UNK         0.0169 
     62 H62        14.4712  -22.3396  -43.6365 H         1 UNK         0.0903 
     63 H63        16.1089  -21.7191  -43.4132 H         1 UNK         0.0903 
     64 H64        15.6503  -22.4720  -44.9420 H         1 UNK         0.0903 
     65 H65        16.4506  -24.5364  -45.1450 H         1 UNK         0.3096 
     66 H66        17.2026  -26.5581  -44.7941 H         1 UNK         0.1121 
     67 H67        15.2112  -26.6250  -42.4814 H         1 UNK         0.0849 
     68 H68        16.1037  -28.0236  -42.9935 H         1 UNK         0.0849 
     69 H69        13.8856  -29.5839  -44.0665 H         1 UNK         0.0865 
     70 H70        13.9526  -29.4104  -45.8002 H         1 UNK         0.0865 
     71 H71        15.3445  -31.3088  -43.4554 H         1 UNK         0.1346 
     72 H72        19.3717  -31.4739  -44.9038 H         1 UNK         0.1412 
     73 H73        16.6801  -28.4831  -46.3911 H         1 UNK         0.1426 
     74 H74        19.0422  -29.4280  -47.6329 H         1 UNK         0.0716 
     75 H75        20.2091  -29.8634  -46.4039 H         1 UNK         0.0716 
     76 H76        21.5133  -26.3401  -46.6714 H         1 UNK         0.0695 
     77 H77        21.7585  -28.0151  -47.0241 H         1 UNK         0.0695 
     78 H78        23.0506  -26.9534  -45.0007 H         1 UNK         0.0983 
     79 H79        20.8338  -27.4439  -43.2268 H         1 UNK         0.3095 
     80 H80        20.3935  -25.7042  -41.6423 H         1 UNK         0.0454 
     81 H81        20.4842  -22.8763  -42.8331 H         1 UNK         0.0851 
     82 H82        21.5671  -23.5096  -41.5995 H         1 UNK         0.0851 
     83 H83        19.8583  -23.3141  -41.2443 H         1 UNK         0.0851 
     84 H84        18.6963  -24.3798  -43.6983 H         1 UNK         0.2976 
     85 H85        23.5850  -29.0765  -46.1394 H         1 UNK         0.3116 
     86 H86        24.3898  -31.1105  -46.0184 H         1 UNK         0.0646 
     87 H87        22.0416  -31.9209  -44.2354 H         1 UNK         0.0847 
     88 H88        23.0466  -32.9889  -45.2097 H         1 UNK         0.0847 
     89 H89        21.9755  -31.8468  -45.9905 H         1 UNK         0.0847 
     90 H90        24.1073  -32.8633  -43.5138 H         1 UNK         0.3040 
     91 H91        26.6487  -32.5337  -42.5305 H         1 UNK         0.1015 
     92 H92        24.2457  -33.8230  -41.1253 H         1 UNK         0.0786 
     93 H93        25.9315  -34.1045  -40.7247 H         1 UNK         0.0786 
     94 H94        25.3143  -34.6092  -42.2879 H         1 UNK         0.0786 
     95 H95        27.5902  -31.0058  -41.3844 H         1 UNK         0.3172 
     96 H96        28.0884  -29.3242  -40.0474 H         1 UNK         0.0595 
     97 H97        27.3316  -29.4288  -37.6989 H         1 UNK         0.0839 
     98 H98        27.6345  -31.0557  -38.2795 H         1 UNK         0.0839 
     99 H99        25.9801  -30.4633  -38.1339 H         1 UNK         0.0839 
    100 H100       25.7085  -28.9729  -41.9376 H         1 UNK         0.2998 
    101 H101       24.1470  -27.5707  -42.5597 H         1 UNK         0.0822 
    102 H102       25.3055  -25.4993  -40.6272 H         1 UNK         0.0787 
    103 H103       25.8894  -25.7928  -42.2656 H         1 UNK         0.0787 
    104 H104       24.2646  -25.1812  -42.0064 H         1 UNK         0.0787 
    105 H105       23.6296  -29.4215  -40.3701 H         1 UNK         0.3055 
    106 H106       21.1400  -28.1885  -39.2517 H         1 UNK         0.1106 
    107 H107       22.8766  -28.3051  -37.4665 H         1 UNK         0.0828 
    108 H108       21.5970  -29.4667  -37.1507 H         1 UNK         0.0828 
    109 H109       23.1385  -30.0153  -37.8013 H         1 UNK         0.0828 
    110 H110       22.7580  -30.9862  -40.6298 H         1 UNK         0.2931 
    111 H111       22.1415  -32.7297  -41.6321 H         1 UNK         0.0412 
    112 H112       21.6754  -32.5329  -38.4531 H         1 UNK         0.3472 
    113 H113       21.1807  -34.1828  -38.1600 H         1 UNK         0.3472 
    114 H114       20.3212  -32.9229  -42.9415 H         1 UNK         0.0970 
    115 H115       20.2988  -31.2113  -42.6473 H         1 UNK         0.0970 
    116 H116       18.2293  -33.4853  -43.7541 H         1 UNK         0.0612 
    117 H117       16.6804  -33.2457  -42.9995 H         1 UNK         0.0612 
@<TRIPOS>BOND
     1    1    2 1    
     2    1   62 1    
     3    1   63 1    
     4    1   64 1    
     5    2    3 2    
     6    2    4 am   BACKBONE|DICT|INTERRES
     7    4    5 1    
     8    4   65 1    
     9    5    6 1    
    10    5   25 1    
    11    5   66 1    
    12    6    7 1    
    13    6   67 1    
    14    6   68 1    
    15    7    8 1    
    16    8    9 1    
    17    8   69 1    
    18    8   70 1    
    19    9   10 ar   
    20    9   14 ar   
    21   10   11 ar   
    22   10   71 1    
    23   11   12 ar   
    24   11   61 1    
    25   12   13 ar   
    26   12   72 1    
    27   13   14 ar   
    28   13   15 1    
    29   14   73 1    
    30   15   16 1    
    31   15   74 1    
    32   15   75 1    
    33   16   17 1    
    34   17   18 1    
    35   17   76 1    
    36   17   77 1    
    37   18   19 1    
    38   18   27 1    
    39   18   78 1    
    40   19   20 am   BACKBONE|DICT|INTERRES
    41   19   79 1    
    42   20   21 2    
    43   20   22 1    
    44   22   23 1    
    45   22   24 1    
    46   22   80 1    
    47   23   81 1    
    48   23   82 1    
    49   23   83 1    
    50   24   25 am   BACKBONE|DICT|INTERRES
    51   24   84 1    
    52   25   26 2    
    53   27   28 2    
    54   27   29 am   BACKBONE|DICT|INTERRES
    55   29   30 1    
    56   29   85 1    
    57   30   31 1    
    58   30   32 1    
    59   30   86 1    
    60   31   87 1    
    61   31   88 1    
    62   31   89 1    
    63   32   33 2    
    64   32   34 am   BACKBONE|DICT|INTERRES
    65   34   35 1    
    66   34   90 1    
    67   35   36 1    
    68   35   37 1    
    69   35   91 1    
    70   36   92 1    
    71   36   93 1    
    72   36   94 1    
    73   37   38 2    
    74   37   39 am   BACKBONE|DICT|INTERRES
    75   39   40 1    
    76   39   95 1    
    77   40   41 1    
    78   40   42 1    
    79   40   96 1    
    80   41   97 1    
    81   41   98 1    
    82   41   99 1    
    83   42   43 2    
    84   42   44 am   BACKBONE|DICT|INTERRES
    85   44   45 1    
    86   44  100 1    
    87   45   46 1    
    88   45   47 1    
    89   45  101 1    
    90   46  102 1    
    91   46  103 1    
    92   46  104 1    
    93   47   48 2    
    94   47   49 am   BACKBONE|DICT|INTERRES
    95   49   50 1    
    96   49  105 1    
    97   50   51 1    
    98   50   52 1    
    99   50  106 1    
   100   51  107 1    
   101   51  108 1    
   102   51  109 1    
   103   52   53 2    
   104   52   54 am   BACKBONE|DICT|INTERRES
   105   54   55 1    
   106   54  110 1    
   107   55   56 1    
   108   55   59 1    
   109   55  111 1    
   110   56   57 am   BACKBONE|DICT|INTERRES
   111   56   58 2    
   112   57  112 1    
   113   57  113 1    
   114   59   60 1    
   115   59  114 1    
   116   59  115 1    
   117   60   61 1    
   118   61  116 1    
   119   61  117 1    
@<TRIPOS>SUBSTRUCTURE
     1 UNK         1 GROUP             0       ****    0 ROOT    
