@<TRIPOS>MOLECULE
3R8
117   119    1
SMALL
USER_CHARGES


@<TRIPOS>ATOM
      1 CA         15.6779  -25.8811  -45.7890 C.3       0 UNK        -0.2013 
      2 C          16.9910  -25.5347  -46.4753 C.2       0 UNK         0.4866 
      3 O          16.9872  -24.8103  -47.4706 O.2       0 UNK        -0.5176 
      4 N          18.1130  -26.0391  -45.9488 N.am      1 UNK        -0.4884 
      5 CA         19.4638  -25.7857  -46.4617 C.3       1 UNK         0.0853 
      6 C6         19.8681  -26.7640  -47.6034 C.3       10 UNK        -0.0849 
      7 S7         20.1490  -28.5016  -47.1056 S.3       10 UNK        -0.2776 
      8 C8         18.5276  -29.2904  -47.3494 C.3       10 UNK         0.0316 
      9 C9         18.1144  -30.0193  -46.0803 C.ar      10 UNK        -0.0863 
     10 C10        18.6565  -31.2713  -45.7730 C.ar      10 UNK        -0.1009 
     11 C11        18.3317  -31.9088  -44.5710 C.ar      10 UNK        -0.0712 
     12 C12        17.4587  -31.2864  -43.6734 C.ar      10 UNK        -0.0894 
     13 C13        16.8945  -30.0457  -43.9825 C.ar      10 UNK        -0.0745 
     14 C14        17.2160  -29.4257  -45.1920 C.ar      10 UNK        -0.0972 
     15 C15        15.9382  -29.3658  -43.0164 C.3       10 UNK         0.0209 
     16 S16        16.6805  -27.8774  -42.2783 S.3       10 UNK        -0.2568 
     17 C17        17.9014  -28.5918  -41.1228 C.3       10 UNK        -0.0983 
     18 CA         19.3759  -28.3846  -41.5646 C.3       3 UNK         0.0876 
     19 N          19.6383  -26.9944  -41.9568 N.am      3 UNK        -0.4424 
     20 C          20.8055  -26.3939  -42.2324 C.2       2 UNK         0.4918 
     21 O          21.9213  -26.8885  -42.0547 O.2       2 UNK        -0.4875 
     22 CA         20.6558  -24.9961  -42.8618 C.3       2 UNK         0.0481 
     23 CB         21.9769  -24.2052  -42.9526 C.3       2 UNK        -0.1831 
     24 N          19.9918  -25.0934  -44.1692 N.am      2 UNK        -0.4498 
     25 C          20.4646  -25.6683  -45.2903 C.2       1 UNK         0.5027 
     26 O          21.6155  -26.0877  -45.4139 O.2       1 UNK        -0.4969 
     27 C          20.3362  -28.9223  -40.4868 C.2       3 UNK         0.5005 
     28 O          21.0766  -29.8697  -40.7412 O.2       3 UNK        -0.5279 
     29 N          20.3223  -28.2936  -39.3052 N.am      4 UNK        -0.4463 
     30 CA         21.1048  -28.7192  -38.1413 C.3       4 UNK         0.0283 
     31 CB         20.3792  -28.2561  -36.8664 C.3       4 UNK        -0.1875 
     32 C          22.5564  -28.2069  -38.1470 C.2       4 UNK         0.4949 
     33 O          23.3368  -28.6335  -37.2955 O.2       4 UNK        -0.5039 
     34 N          22.8851  -27.2877  -39.0628 N.am      5 UNK        -0.4663 
     35 CA         24.1739  -26.6059  -39.1355 C.3       5 UNK         0.0242 
     36 CB         23.9318  -25.0882  -39.2550 C.3       5 UNK        -0.1982 
     37 C          25.0123  -27.1931  -40.2788 C.2       5 UNK         0.5017 
     38 O          25.6750  -28.2093  -40.0712 O.2       5 UNK        -0.5012 
     39 N          24.9953  -26.5375  -41.4478 N.am      6 UNK        -0.4439 
     40 CA         25.8211  -26.8778  -42.6086 C.3       6 UNK         0.0297 
     41 CB         25.7590  -25.7421  -43.6425 C.3       6 UNK        -0.2006 
     42 C          25.4516  -28.2181  -43.2629 C.2       6 UNK         0.4892 
     43 O          26.3511  -28.9117  -43.7401 O.2       6 UNK        -0.5089 
     44 N          24.1549  -28.5581  -43.2832 N.am      7 UNK        -0.4243 
     45 CA         23.6685  -29.8289  -43.8268 C.3       7 UNK         0.0196 
     46 CB         22.1815  -29.6979  -44.1816 C.3       7 UNK        -0.2007 
     47 C          23.9188  -30.9985  -42.8581 C.2       7 UNK         0.5020 
     48 O          24.2925  -32.0825  -43.3066 O.2       7 UNK        -0.5147 
     49 N          23.7427  -30.7349  -41.5542 N.am      8 UNK        -0.4734 
     50 CA         23.9131  -31.6404  -40.4119 C.3       8 UNK         0.0238 
     51 CB         25.4049  -31.9829  -40.2143 C.3       8 UNK        -0.1912 
     52 C          23.0107  -32.8873  -40.5000 C.2       8 UNK         0.5038 
     53 O          23.5002  -34.0131  -40.3796 O.2       8 UNK        -0.5046 
     54 N          21.7108  -32.6653  -40.7203 N.am      9 UNK        -0.4200 
     55 CA         20.7020  -33.7121  -40.9315 C.3       9 UNK         0.0839 
     56 C          19.2739  -33.2518  -40.5325 C.2       9 UNK         0.5513 
     57 N          18.3154  -34.1685  -40.5028 N.am      9 UNK        -0.7519 
     58 O          19.0160  -32.0871  -40.2422 O.2       9 UNK        -0.4960 
     59 C59        20.7784  -34.3243  -42.3609 C.3       10 UNK        -0.0876 
     60 S60        20.6586  -33.0830  -43.6951 S.3       10 UNK        -0.2414 
     61 C61        18.9331  -33.2634  -44.2349 C.3       10 UNK         0.0169 
     62 H62        15.8339  -26.2932  -44.7927 H         1 UNK         0.0903 
     63 H63        15.0611  -24.9887  -45.6862 H         1 UNK         0.0903 
     64 H64        15.1248  -26.6097  -46.3810 H         1 UNK         0.0903 
     65 H65        18.0700  -26.6422  -45.1388 H         1 UNK         0.3096 
     66 H66        19.4709  -24.7851  -46.9009 H         1 UNK         0.1121 
     67 H67        19.1247  -26.7341  -48.4012 H         1 UNK         0.0849 
     68 H68        20.7919  -26.4108  -48.0650 H         1 UNK         0.0849 
     69 H69        17.7767  -28.5492  -47.6267 H         1 UNK         0.0865 
     70 H70        18.5887  -29.9929  -48.1818 H         1 UNK         0.0865 
     71 H71        19.3545  -31.7373  -46.4552 H         1 UNK         0.1346 
     72 H72        17.2203  -31.7681  -42.7347 H         1 UNK         0.1412 
     73 H73        16.7788  -28.4687  -45.4293 H         1 UNK         0.1426 
     74 H74        15.6201  -30.0485  -42.2269 H         1 UNK         0.0716 
     75 H75        15.0336  -29.0777  -43.5540 H         1 UNK         0.0716 
     76 H76        17.6960  -29.6558  -40.9888 H         1 UNK         0.0695 
     77 H77        17.7168  -28.1289  -40.1518 H         1 UNK         0.0695 
     78 H78        19.5294  -28.9886  -42.4606 H         1 UNK         0.0983 
     79 H79        18.7969  -26.4667  -42.1374 H         1 UNK         0.3095 
     80 H80        19.9846  -24.4265  -42.2172 H         1 UNK         0.0454 
     81 H81        22.3622  -23.9771  -41.9608 H         1 UNK         0.0851 
     82 H82        21.8335  -23.2541  -43.4649 H         1 UNK         0.0851 
     83 H83        22.7494  -24.7559  -43.4859 H         1 UNK         0.0851 
     84 H84        19.0425  -24.7473  -44.1999 H         1 UNK         0.2976 
     85 H85        19.7107  -27.4991  -39.1820 H         1 UNK         0.3116 
     86 H86        21.1478  -29.8107  -38.1248 H         1 UNK         0.0646 
     87 H87        19.3684  -28.6610  -36.8150 H         1 UNK         0.0847 
     88 H88        20.3106  -27.1689  -36.8119 H         1 UNK         0.0847 
     89 H89        20.9049  -28.5934  -35.9719 H         1 UNK         0.0847 
     90 H90        22.2161  -27.0702  -39.7899 H         1 UNK         0.3040 
     91 H91        24.7453  -26.7695  -38.2188 H         1 UNK         0.1015 
     92 H92        24.8664  -24.5471  -39.4107 H         1 UNK         0.0786 
     93 H93        23.4862  -24.6960  -38.3405 H         1 UNK         0.0786 
     94 H94        23.2582  -24.8420  -40.0735 H         1 UNK         0.0786 
     95 H95        24.3844  -25.7398  -41.5393 H         1 UNK         0.3172 
     96 H96        26.8533  -26.9562  -42.2603 H         1 UNK         0.0595 
     97 H97        26.4611  -25.9249  -44.4572 H         1 UNK         0.0839 
     98 H98        26.0208  -24.7802  -43.2014 H         1 UNK         0.0839 
     99 H99        24.7686  -25.6550  -44.0891 H         1 UNK         0.0839 
    100 H100       23.4681  -27.9312  -42.8744 H         1 UNK         0.2998 
    101 H101       24.2102  -30.0368  -44.7522 H         1 UNK         0.0822 
    102 H102       21.8378  -30.5619  -44.7501 H         1 UNK         0.0787 
    103 H103       21.9953  -28.8137  -44.7904 H         1 UNK         0.0787 
    104 H104       21.5611  -29.6252  -43.2920 H         1 UNK         0.0787 
    105 H105       23.3579  -29.8289  -41.3222 H         1 UNK         0.3055 
    106 H106       23.5830  -31.0875  -39.5307 H         1 UNK         0.1106 
    107 H107       26.0068  -31.0794  -40.1149 H         1 UNK         0.0828 
    108 H108       25.5539  -32.5726  -39.3091 H         1 UNK         0.0828 
    109 H109       25.8025  -32.5607  -41.0492 H         1 UNK         0.0828 
    110 H110       21.3677  -31.7068  -40.7829 H         1 UNK         0.2931 
    111 H111       20.9330  -34.5104  -40.2234 H         1 UNK         0.0412 
    112 H112       17.3841  -33.8898  -40.2368 H         1 UNK         0.3472 
    113 H113       18.5061  -35.1356  -40.7132 H         1 UNK         0.3472 
    114 H114       20.0291  -35.1044  -42.5023 H         1 UNK         0.0970 
    115 H115       21.7371  -34.8310  -42.4797 H         1 UNK         0.0970 
    116 H116       18.3414  -33.7511  -43.4594 H         1 UNK         0.0612 
    117 H117       18.8961  -33.9166  -45.1077 H         1 UNK         0.0612 
@<TRIPOS>BOND
     1    1    2 1    
     2    1   62 1    
     3    1   63 1    
     4    1   64 1    
     5    2    3 2    
     6    2    4 am   BACKBONE|DICT|INTERRES
     7    4    5 1    
     8    4   65 1    
     9    5    6 1    
    10    5   25 1    
    11    5   66 1    
    12    6    7 1    
    13    6   67 1    
    14    6   68 1    
    15    7    8 1    
    16    8    9 1    
    17    8   69 1    
    18    8   70 1    
    19    9   10 ar   
    20    9   14 ar   
    21   10   11 ar   
    22   10   71 1    
    23   11   12 ar   
    24   11   61 1    
    25   12   13 ar   
    26   12   72 1    
    27   13   14 ar   
    28   13   15 1    
    29   14   73 1    
    30   15   16 1    
    31   15   74 1    
    32   15   75 1    
    33   16   17 1    
    34   17   18 1    
    35   17   76 1    
    36   17   77 1    
    37   18   19 1    
    38   18   27 1    
    39   18   78 1    
    40   19   20 am   BACKBONE|DICT|INTERRES
    41   19   79 1    
    42   20   21 2    
    43   20   22 1    
    44   22   23 1    
    45   22   24 1    
    46   22   80 1    
    47   23   81 1    
    48   23   82 1    
    49   23   83 1    
    50   24   25 am   BACKBONE|DICT|INTERRES
    51   24   84 1    
    52   25   26 2    
    53   27   28 2    
    54   27   29 am   BACKBONE|DICT|INTERRES
    55   29   30 1    
    56   29   85 1    
    57   30   31 1    
    58   30   32 1    
    59   30   86 1    
    60   31   87 1    
    61   31   88 1    
    62   31   89 1    
    63   32   33 2    
    64   32   34 am   BACKBONE|DICT|INTERRES
    65   34   35 1    
    66   34   90 1    
    67   35   36 1    
    68   35   37 1    
    69   35   91 1    
    70   36   92 1    
    71   36   93 1    
    72   36   94 1    
    73   37   38 2    
    74   37   39 am   BACKBONE|DICT|INTERRES
    75   39   40 1    
    76   39   95 1    
    77   40   41 1    
    78   40   42 1    
    79   40   96 1    
    80   41   97 1    
    81   41   98 1    
    82   41   99 1    
    83   42   43 2    
    84   42   44 am   BACKBONE|DICT|INTERRES
    85   44   45 1    
    86   44  100 1    
    87   45   46 1    
    88   45   47 1    
    89   45  101 1    
    90   46  102 1    
    91   46  103 1    
    92   46  104 1    
    93   47   48 2    
    94   47   49 am   BACKBONE|DICT|INTERRES
    95   49   50 1    
    96   49  105 1    
    97   50   51 1    
    98   50   52 1    
    99   50  106 1    
   100   51  107 1    
   101   51  108 1    
   102   51  109 1    
   103   52   53 2    
   104   52   54 am   BACKBONE|DICT|INTERRES
   105   54   55 1    
   106   54  110 1    
   107   55   56 1    
   108   55   59 1    
   109   55  111 1    
   110   56   57 am   BACKBONE|DICT|INTERRES
   111   56   58 2    
   112   57  112 1    
   113   57  113 1    
   114   59   60 1    
   115   59  114 1    
   116   59  115 1    
   117   60   61 1    
   118   61  116 1    
   119   61  117 1    
@<TRIPOS>SUBSTRUCTURE
     1 UNK         1 GROUP             0       ****    0 ROOT    
