@<TRIPOS>MOLECULE
3R8
117   119    1
SMALL
USER_CHARGES


@<TRIPOS>ATOM
      1 CA         20.7502  -24.7902  -40.5539 C.3       0 UNK        -0.2013 
      2 C          20.0590  -25.4386  -41.7435 C.2       0 UNK         0.4866 
      3 O          20.6917  -26.2033  -42.4757 O.2       0 UNK        -0.5176 
      4 N          18.7717  -25.1201  -41.9394 N.am      1 UNK        -0.4884 
      5 CA         17.9089  -25.5614  -43.0469 C.3       1 UNK         0.0853 
      6 C6         17.6712  -27.0996  -43.0775 C.3       10 UNK        -0.0849 
      7 S7         17.0512  -27.7792  -41.5007 S.3       10 UNK        -0.2776 
      8 C8         18.4712  -28.7766  -40.9409 C.3       10 UNK         0.0316 
      9 C9         18.7762  -29.9267  -41.8914 C.ar      10 UNK        -0.0863 
     10 C10        17.9067  -31.0176  -41.9734 C.ar      10 UNK        -0.1009 
     11 C11        18.1411  -32.0505  -42.8859 C.ar      10 UNK        -0.0712 
     12 C12        19.2539  -31.9721  -43.7308 C.ar      10 UNK        -0.0894 
     13 C13        20.1557  -30.9089  -43.6298 C.ar      10 UNK        -0.0745 
     14 C14        19.9174  -29.8929  -42.6997 C.ar      10 UNK        -0.0972 
     15 C15        21.3883  -30.8742  -44.5212 C.3       10 UNK         0.0209 
     16 S16        21.1685  -29.7522  -45.9395 S.3       10 UNK        -0.2568 
     17 C17        22.1182  -28.3098  -45.3644 C.3       10 UNK        -0.0983 
     18 CA         21.9042  -27.0377  -46.2207 C.3       3 UNK         0.0876 
     19 N          20.4969  -26.6349  -46.2595 N.am      3 UNK        -0.4424 
     20 C          19.9791  -25.6995  -47.0682 C.2       2 UNK         0.4918 
     21 O          20.6230  -25.1074  -47.9344 O.2       2 UNK        -0.4875 
     22 CA         18.4898  -25.3560  -46.8685 C.3       2 UNK         0.0481 
     23 CB         17.6251  -26.1110  -47.8903 C.3       2 UNK        -0.1831 
     24 N          18.0070  -25.6488  -45.5138 N.am      2 UNK        -0.4498 
     25 C          18.4071  -25.0070  -44.4050 C.2       1 UNK         0.5027 
     26 O          19.1516  -24.0231  -44.4342 O.2       1 UNK        -0.4969 
     27 C          22.8202  -25.9197  -45.6826 C.2       3 UNK         0.5005 
     28 O          23.9756  -25.8396  -46.1024 O.2       3 UNK        -0.5279 
     29 N          22.3003  -25.1212  -44.7342 N.am      4 UNK        -0.4463 
     30 CA         23.0254  -24.1837  -43.8681 C.3       4 UNK         0.0283 
     31 CB         23.6192  -23.0119  -44.6780 C.3       4 UNK        -0.1875 
     32 C          24.0664  -24.9230  -43.0018 C.2       4 UNK         0.4949 
     33 O          25.2089  -24.4756  -42.8898 O.2       4 UNK        -0.5039 
     34 N          23.6577  -26.0693  -42.4389 N.am      5 UNK        -0.4663 
     35 CA         24.5394  -27.0277  -41.7756 C.3       5 UNK         0.0242 
     36 CB         25.1085  -28.0116  -42.8183 C.3       5 UNK        -0.1982 
     37 C          23.8019  -27.7382  -40.6337 C.2       5 UNK         0.5017 
     38 O          23.5739  -28.9465  -40.7136 O.2       5 UNK        -0.5012 
     39 N          23.4629  -26.9691  -39.5875 N.am      6 UNK        -0.4439 
     40 CA         22.9193  -27.4024  -38.2910 C.3       6 UNK         0.0297 
     41 CB         24.0463  -28.0143  -37.4286 C.3       6 UNK        -0.2006 
     42 C          21.6856  -28.3195  -38.4136 C.2       6 UNK         0.4892 
     43 O          20.5733  -27.8154  -38.5619 O.2       6 UNK        -0.5089 
     44 N          21.9097  -29.6363  -38.3551 N.am      7 UNK        -0.4243 
     45 CA         20.9230  -30.6825  -38.6041 C.3       7 UNK         0.0196 
     46 CB         20.1640  -31.0216  -37.3063 C.3       7 UNK        -0.2007 
     47 C          21.6107  -31.8963  -39.2468 C.2       7 UNK         0.5020 
     48 O          21.3068  -33.0358  -38.8890 O.2       7 UNK        -0.5147 
     49 N          22.5489  -31.6432  -40.1720 N.am      8 UNK        -0.4734 
     50 CA         23.3736  -32.6455  -40.8593 C.3       8 UNK         0.0238 
     51 CB         24.6130  -31.9437  -41.4471 C.3       8 UNK        -0.1912 
     52 C          22.6029  -33.4626  -41.9198 C.2       8 UNK         0.5038 
     53 O          23.0324  -33.5349  -43.0728 O.2       8 UNK        -0.5046 
     54 N          21.4814  -34.0658  -41.5109 N.am      9 UNK        -0.4200 
     55 CA         20.6242  -34.9259  -42.3400 C.3       9 UNK         0.0839 
     56 C          21.1706  -36.3685  -42.5553 C.2       9 UNK         0.5513 
     57 N          22.2060  -36.8012  -41.8448 N.am      9 UNK        -0.7519 
     58 O          20.6538  -37.1074  -43.3889 O.2       9 UNK        -0.4960 
     59 C59        19.1555  -34.9234  -41.8232 C.3       10 UNK        -0.0876 
     60 S60        17.9489  -34.8576  -43.1936 S.3       10 UNK        -0.2414 
     61 C61        17.1645  -33.2235  -42.9572 C.3       10 UNK         0.0169 
     62 H62        21.6974  -24.3467  -40.8562 H         1 UNK         0.0903 
     63 H63        20.1401  -24.0056  -40.1073 H         1 UNK         0.0903 
     64 H64        20.9512  -25.5361  -39.7885 H         1 UNK         0.0903 
     65 H65        18.3337  -24.4694  -41.3028 H         1 UNK         0.3096 
     66 H66        16.9423  -25.0838  -42.8785 H         1 UNK         0.1121 
     67 H67        18.5843  -27.6147  -43.3740 H         1 UNK         0.0849 
     68 H68        16.9232  -27.3622  -43.8268 H         1 UNK         0.0849 
     69 H69        19.3414  -28.1298  -40.8312 H         1 UNK         0.0865 
     70 H70        18.2521  -29.1690  -39.9472 H         1 UNK         0.0865 
     71 H71        17.0321  -31.0476  -41.3377 H         1 UNK         0.1346 
     72 H72        19.4297  -32.7516  -44.4586 H         1 UNK         0.1412 
     73 H73        20.6047  -29.0614  -42.6224 H         1 UNK         0.1426 
     74 H74        21.6028  -31.8738  -44.9023 H         1 UNK         0.0716 
     75 H75        22.2629  -30.5878  -43.9344 H         1 UNK         0.0716 
     76 H76        23.1718  -28.5957  -45.3744 H         1 UNK         0.0695 
     77 H77        21.8619  -28.1133  -44.3218 H         1 UNK         0.0695 
     78 H78        22.2180  -27.2523  -47.2447 H         1 UNK         0.0983 
     79 H79        19.8867  -27.0994  -45.6047 H         1 UNK         0.3095 
     80 H80        18.3712  -24.2850  -47.0462 H         1 UNK         0.0454 
     81 H81        16.5760  -25.8254  -47.8124 H         1 UNK         0.0851 
     82 H82        17.6915  -27.1917  -47.7583 H         1 UNK         0.0851 
     83 H83        17.9434  -25.8884  -48.9098 H         1 UNK         0.0851 
     84 H84        17.3695  -26.4268  -45.4241 H         1 UNK         0.2976 
     85 H85        21.3440  -25.2994  -44.4503 H         1 UNK         0.3116 
     86 H86        22.2877  -23.7653  -43.1830 H         1 UNK         0.0646 
     87 H87        24.4169  -23.3385  -45.3455 H         1 UNK         0.0847 
     88 H88        24.0428  -22.2571  -44.0146 H         1 UNK         0.0847 
     89 H89        22.8559  -22.5213  -45.2818 H         1 UNK         0.0847 
     90 H90        22.6781  -26.3327  -42.5214 H         1 UNK         0.3040 
     91 H91        25.3803  -26.4997  -41.3200 H         1 UNK         0.1015 
     92 H92        24.3204  -28.6013  -43.2860 H         1 UNK         0.0786 
     93 H93        25.8047  -28.7114  -42.3540 H         1 UNK         0.0786 
     94 H94        25.6504  -27.4895  -43.6071 H         1 UNK         0.0786 
     95 H95        23.6579  -25.9805  -39.6624 H         1 UNK         0.3172 
     96 H96        22.5761  -26.4997  -37.7831 H         1 UNK         0.0595 
     97 H97        24.5363  -28.8560  -37.9193 H         1 UNK         0.0839 
     98 H98        23.6636  -28.3648  -36.4688 H         1 UNK         0.0839 
     99 H99        24.8154  -27.2730  -37.2114 H         1 UNK         0.0839 
    100 H100       22.8660  -29.9506  -38.2616 H         1 UNK         0.2998 
    101 H101       20.2046  -30.3256  -39.3413 H         1 UNK         0.0822 
    102 H102       19.3996  -31.7788  -37.4852 H         1 UNK         0.0787 
    103 H103       20.8360  -31.4066  -36.5386 H         1 UNK         0.0787 
    104 H104       19.6591  -30.1443  -36.9018 H         1 UNK         0.0787 
    105 H105       22.7403  -30.6738  -40.4181 H         1 UNK         0.3055 
    106 H106       23.7261  -33.3612  -40.1133 H         1 UNK         0.1106 
    107 H107       24.3370  -31.2170  -42.2124 H         1 UNK         0.0828 
    108 H108       25.1753  -31.4169  -40.6759 H         1 UNK         0.0828 
    109 H109       25.2924  -32.6623  -41.9073 H         1 UNK         0.0828 
    110 H110       21.2123  -33.9413  -40.5388 H         1 UNK         0.2931 
    111 H111       20.6314  -34.4754  -43.3337 H         1 UNK         0.0412 
    112 H112       22.6386  -36.2071  -41.1562 H         1 UNK         0.3472 
    113 H113       22.5540  -37.7351  -41.9970 H         1 UNK         0.3472 
    114 H114       18.9776  -34.0679  -41.1697 H         1 UNK         0.0970 
    115 H115       18.9445  -35.7980  -41.2048 H         1 UNK         0.0970 
    116 H116       16.4706  -33.0484  -43.7801 H         1 UNK         0.0612 
    117 H117       16.5613  -33.2691  -42.0490 H         1 UNK         0.0612 
@<TRIPOS>BOND
     1    1    2 1    
     2    1   62 1    
     3    1   63 1    
     4    1   64 1    
     5    2    3 2    
     6    2    4 am   BACKBONE|DICT|INTERRES
     7    4    5 1    
     8    4   65 1    
     9    5    6 1    
    10    5   25 1    
    11    5   66 1    
    12    6    7 1    
    13    6   67 1    
    14    6   68 1    
    15    7    8 1    
    16    8    9 1    
    17    8   69 1    
    18    8   70 1    
    19    9   10 ar   
    20    9   14 ar   
    21   10   11 ar   
    22   10   71 1    
    23   11   12 ar   
    24   11   61 1    
    25   12   13 ar   
    26   12   72 1    
    27   13   14 ar   
    28   13   15 1    
    29   14   73 1    
    30   15   16 1    
    31   15   74 1    
    32   15   75 1    
    33   16   17 1    
    34   17   18 1    
    35   17   76 1    
    36   17   77 1    
    37   18   19 1    
    38   18   27 1    
    39   18   78 1    
    40   19   20 am   BACKBONE|DICT|INTERRES
    41   19   79 1    
    42   20   21 2    
    43   20   22 1    
    44   22   23 1    
    45   22   24 1    
    46   22   80 1    
    47   23   81 1    
    48   23   82 1    
    49   23   83 1    
    50   24   25 am   BACKBONE|DICT|INTERRES
    51   24   84 1    
    52   25   26 2    
    53   27   28 2    
    54   27   29 am   BACKBONE|DICT|INTERRES
    55   29   30 1    
    56   29   85 1    
    57   30   31 1    
    58   30   32 1    
    59   30   86 1    
    60   31   87 1    
    61   31   88 1    
    62   31   89 1    
    63   32   33 2    
    64   32   34 am   BACKBONE|DICT|INTERRES
    65   34   35 1    
    66   34   90 1    
    67   35   36 1    
    68   35   37 1    
    69   35   91 1    
    70   36   92 1    
    71   36   93 1    
    72   36   94 1    
    73   37   38 2    
    74   37   39 am   BACKBONE|DICT|INTERRES
    75   39   40 1    
    76   39   95 1    
    77   40   41 1    
    78   40   42 1    
    79   40   96 1    
    80   41   97 1    
    81   41   98 1    
    82   41   99 1    
    83   42   43 2    
    84   42   44 am   BACKBONE|DICT|INTERRES
    85   44   45 1    
    86   44  100 1    
    87   45   46 1    
    88   45   47 1    
    89   45  101 1    
    90   46  102 1    
    91   46  103 1    
    92   46  104 1    
    93   47   48 2    
    94   47   49 am   BACKBONE|DICT|INTERRES
    95   49   50 1    
    96   49  105 1    
    97   50   51 1    
    98   50   52 1    
    99   50  106 1    
   100   51  107 1    
   101   51  108 1    
   102   51  109 1    
   103   52   53 2    
   104   52   54 am   BACKBONE|DICT|INTERRES
   105   54   55 1    
   106   54  110 1    
   107   55   56 1    
   108   55   59 1    
   109   55  111 1    
   110   56   57 am   BACKBONE|DICT|INTERRES
   111   56   58 2    
   112   57  112 1    
   113   57  113 1    
   114   59   60 1    
   115   59  114 1    
   116   59  115 1    
   117   60   61 1    
   118   61  116 1    
   119   61  117 1    
@<TRIPOS>SUBSTRUCTURE
     1 UNK         1 GROUP             0       ****    0 ROOT    
