@<TRIPOS>MOLECULE
3R8
117   119    1
SMALL
USER_CHARGES


@<TRIPOS>ATOM
      1 CA         14.6093  -22.5363  -43.4168 C.3       0 UNK        -0.2013 
      2 C          15.1125  -23.6196  -44.3592 C.2       0 UNK         0.4866 
      3 O          14.4469  -23.9296  -45.3476 O.2       0 UNK        -0.5176 
      4 N          16.2821  -24.1945  -44.0639 N.am      1 UNK        -0.4884 
      5 CA         16.9582  -25.2148  -44.8631 C.3       1 UNK         0.0853 
      6 C6         16.3058  -26.6197  -44.7201 C.3       10 UNK        -0.0849 
      7 S7         16.6395  -27.6861  -46.1650 S.3       10 UNK        -0.2776 
      8 C8         16.2133  -29.3337  -45.5215 C.3       10 UNK         0.0316 
      9 C9         17.2550  -29.8705  -44.5484 C.ar      10 UNK        -0.0863 
     10 C10        18.4643  -30.3875  -45.0242 C.ar      10 UNK        -0.1009 
     11 C11        19.3916  -30.9502  -44.1412 C.ar      10 UNK        -0.0712 
     12 C12        19.1084  -30.9845  -42.7733 C.ar      10 UNK        -0.0894 
     13 C13        17.9132  -30.4514  -42.2832 C.ar      10 UNK        -0.0745 
     14 C14        16.9892  -29.8988  -43.1761 C.ar      10 UNK        -0.0972 
     15 C15        17.6108  -30.4788  -40.7896 C.3       10 UNK         0.0209 
     16 S16        18.8512  -29.5836  -39.7958 S.3       10 UNK        -0.2568 
     17 C17        18.9305  -27.9712  -40.6434 C.3       10 UNK        -0.0983 
     18 CA         20.2993  -27.7694  -41.3528 C.3       3 UNK         0.0876 
     19 N          20.1338  -27.1983  -42.6961 N.am      3 UNK        -0.4424 
     20 C          21.0931  -26.7689  -43.5300 C.2       2 UNK         0.4918 
     21 O          22.2891  -26.7333  -43.2418 O.2       2 UNK        -0.4875 
     22 CA         20.6647  -26.2984  -44.9320 C.3       2 UNK         0.0481 
     23 CB         21.1685  -27.2927  -45.9908 C.3       2 UNK        -0.1831 
     24 N          19.2211  -26.1131  -45.1087 N.am      2 UNK        -0.4498 
     25 C          18.4548  -25.2030  -44.4942 C.2       1 UNK         0.5027 
     26 O          18.8813  -24.4029  -43.6557 O.2       1 UNK        -0.4969 
     27 C          21.2701  -26.9939  -40.4390 C.2       3 UNK         0.5005 
     28 O          22.0834  -27.6148  -39.7556 O.2       3 UNK        -0.5279 
     29 N          21.1936  -25.6554  -40.4768 N.am      4 UNK        -0.4463 
     30 CA         22.0338  -24.7423  -39.6956 C.3       4 UNK         0.0283 
     31 CB         21.5274  -23.3038  -39.8888 C.3       4 UNK        -0.1875 
     32 C          23.5381  -24.8269  -40.0184 C.2       4 UNK         0.4949 
     33 O          24.3515  -24.5255  -39.1444 O.2       4 UNK        -0.5039 
     34 N          23.8796  -25.2262  -41.2501 N.am      5 UNK        -0.4663 
     35 CA         25.2554  -25.4214  -41.7080 C.3       5 UNK         0.0242 
     36 CB         25.4201  -24.7791  -43.0958 C.3       5 UNK        -0.1982 
     37 C          25.6206  -26.9117  -41.7615 C.2       5 UNK         0.5017 
     38 O          26.7239  -27.2771  -41.3553 O.2       5 UNK        -0.5012 
     39 N          24.7033  -27.7384  -42.2818 N.am      6 UNK        -0.4439 
     40 CA         24.9129  -29.1631  -42.5361 C.3       6 UNK         0.0297 
     41 CB         23.8430  -29.6634  -43.5225 C.3       6 UNK        -0.2006 
     42 C          24.9041  -30.0339  -41.2715 C.2       6 UNK         0.4892 
     43 O          25.6099  -31.0416  -41.2453 O.2       6 UNK        -0.5089 
     44 N          24.0746  -29.6745  -40.2793 N.am      7 UNK        -0.4243 
     45 CA         23.7181  -30.4289  -39.0662 C.3       7 UNK         0.0196 
     46 CB         24.9481  -30.7538  -38.1955 C.3       7 UNK        -0.2007 
     47 C          22.8702  -31.6865  -39.3425 C.2       7 UNK         0.5020 
     48 O          21.8825  -31.9094  -38.6427 O.2       7 UNK        -0.5147 
     49 N          23.2432  -32.4718  -40.3572 N.am      8 UNK        -0.4734 
     50 CA         22.5319  -33.6442  -40.8575 C.3       8 UNK         0.0238 
     51 CB         22.8211  -34.8609  -39.9584 C.3       8 UNK        -0.1912 
     52 C          22.9775  -33.9088  -42.3017 C.2       8 UNK         0.5038 
     53 O          24.0632  -33.4755  -42.6949 O.2       8 UNK        -0.5046 
     54 N          22.1453  -34.6270  -43.0596 N.am      9 UNK        -0.4200 
     55 CA         22.3984  -35.0025  -44.4606 C.3       9 UNK         0.0839 
     56 C          21.7498  -36.3575  -44.8680 C.2       9 UNK         0.5513 
     57 N          21.2804  -37.1768  -43.9330 N.am      9 UNK        -0.7519 
     58 O          21.6915  -36.6901  -46.0491 O.2       9 UNK        -0.4960 
     59 C59        22.1122  -33.8396  -45.4544 C.3       10 UNK        -0.0876 
     60 S60        20.4039  -33.2024  -45.3510 S.3       10 UNK        -0.2414 
     61 C61        20.6887  -31.5443  -44.6623 C.3       10 UNK         0.0169 
     62 H62        13.6375  -22.8149  -43.0100 H         1 UNK         0.0903 
     63 H63        15.2914  -22.3725  -42.5826 H         1 UNK         0.0903 
     64 H64        14.4971  -21.5944  -43.9533 H         1 UNK         0.0903 
     65 H65        16.8369  -23.8661  -43.2814 H         1 UNK         0.3096 
     66 H66        16.8958  -24.8955  -45.9064 H         1 UNK         0.1121 
     67 H67        15.2211  -26.5292  -44.6447 H         1 UNK         0.0849 
     68 H68        16.6247  -27.1094  -43.7988 H         1 UNK         0.0849 
     69 H69        15.2266  -29.2977  -45.0567 H         1 UNK         0.0865 
     70 H70        16.1230  -30.0237  -46.3618 H         1 UNK         0.0865 
     71 H71        18.6734  -30.3758  -46.0854 H         1 UNK         0.1346 
     72 H72        19.8185  -31.4223  -42.0850 H         1 UNK         0.1412 
     73 H73        16.0545  -29.5019  -42.8037 H         1 UNK         0.1426 
     74 H74        17.5700  -31.5155  -40.4529 H         1 UNK         0.0716 
     75 H75        16.6283  -30.0507  -40.5850 H         1 UNK         0.0716 
     76 H76        18.7201  -27.1859  -39.9141 H         1 UNK         0.0695 
     77 H77        18.1059  -27.9074  -41.3540 H         1 UNK         0.0695 
     78 H78        20.7588  -28.7445  -41.5280 H         1 UNK         0.0983 
     79 H79        19.1915  -27.1957  -43.0536 H         1 UNK         0.3095 
     80 H80        21.1476  -25.3354  -45.1082 H         1 UNK         0.0454 
     81 H81        20.9561  -26.9410  -47.0004 H         1 UNK         0.0851 
     82 H82        20.7086  -28.2748  -45.8727 H         1 UNK         0.0851 
     83 H83        22.2488  -27.4289  -45.9201 H         1 UNK         0.0851 
     84 H84        18.7624  -26.7476  -45.7515 H         1 UNK         0.2976 
     85 H85        20.5106  -25.2342  -41.0915 H         1 UNK         0.3116 
     86 H86        21.9141  -25.0076  -38.6430 H         1 UNK         0.0646 
     87 H87        20.4903  -23.1999  -39.5695 H         1 UNK         0.0847 
     88 H88        21.5925  -22.9894  -40.9313 H         1 UNK         0.0847 
     89 H89        22.1168  -22.5999  -39.2994 H         1 UNK         0.0847 
     90 H90        23.1438  -25.4958  -41.8937 H         1 UNK         0.3040 
     91 H91        25.9572  -24.9340  -41.0272 H         1 UNK         0.1015 
     92 H92        26.4359  -24.9133  -43.4702 H         1 UNK         0.0786 
     93 H93        25.2281  -23.7067  -43.0588 H         1 UNK         0.0786 
     94 H94        24.7405  -25.2147  -43.8298 H         1 UNK         0.0786 
     95 H95        23.8236  -27.3446  -42.6115 H         1 UNK         0.3172 
     96 H96        25.8894  -29.2812  -43.0109 H         1 UNK         0.0595 
     97 H97        22.8370  -29.5599  -43.1142 H         1 UNK         0.0839 
     98 H98        23.9922  -30.7185  -43.7581 H         1 UNK         0.0839 
     99 H99        23.8805  -29.1135  -44.4629 H         1 UNK         0.0839 
    100 H100       23.5352  -28.8214  -40.3954 H         1 UNK         0.2998 
    101 H101       23.0858  -29.7552  -38.4858 H         1 UNK         0.0822 
    102 H102       25.5258  -29.8559  -37.9758 H         1 UNK         0.0787 
    103 H103       24.6413  -31.1848  -37.2417 H         1 UNK         0.0787 
    104 H104       25.6131  -31.4737  -38.6728 H         1 UNK         0.0787 
    105 H105       24.0749  -32.2188  -40.8892 H         1 UNK         0.3055 
    106 H106       21.4602  -33.4320  -40.8585 H         1 UNK         0.1106 
    107 H107       23.8870  -35.0904  -39.9256 H         1 UNK         0.0828 
    108 H108       22.3059  -35.7513  -40.3204 H         1 UNK         0.0828 
    109 H109       22.4852  -34.6902  -38.9355 H         1 UNK         0.0828 
    110 H110       21.2592  -34.9329  -42.6844 H         1 UNK         0.2931 
    111 H111       23.4662  -35.2161  -44.5399 H         1 UNK         0.0412 
    112 H112       20.8701  -38.0529  -44.2177 H         1 UNK         0.3472 
    113 H113       21.3801  -36.9699  -42.9529 H         1 UNK         0.3472 
    114 H114       22.8160  -33.0260  -45.2727 H         1 UNK         0.0970 
    115 H115       22.3035  -34.1529  -46.4822 H         1 UNK         0.0970 
    116 H116       21.1183  -30.8980  -45.4292 H         1 UNK         0.0612 
    117 H117       21.4224  -31.6054  -43.8573 H         1 UNK         0.0612 
@<TRIPOS>BOND
     1    1    2 1    
     2    1   62 1    
     3    1   63 1    
     4    1   64 1    
     5    2    3 2    
     6    2    4 am   BACKBONE|DICT|INTERRES
     7    4    5 1    
     8    4   65 1    
     9    5    6 1    
    10    5   25 1    
    11    5   66 1    
    12    6    7 1    
    13    6   67 1    
    14    6   68 1    
    15    7    8 1    
    16    8    9 1    
    17    8   69 1    
    18    8   70 1    
    19    9   10 ar   
    20    9   14 ar   
    21   10   11 ar   
    22   10   71 1    
    23   11   12 ar   
    24   11   61 1    
    25   12   13 ar   
    26   12   72 1    
    27   13   14 ar   
    28   13   15 1    
    29   14   73 1    
    30   15   16 1    
    31   15   74 1    
    32   15   75 1    
    33   16   17 1    
    34   17   18 1    
    35   17   76 1    
    36   17   77 1    
    37   18   19 1    
    38   18   27 1    
    39   18   78 1    
    40   19   20 am   BACKBONE|DICT|INTERRES
    41   19   79 1    
    42   20   21 2    
    43   20   22 1    
    44   22   23 1    
    45   22   24 1    
    46   22   80 1    
    47   23   81 1    
    48   23   82 1    
    49   23   83 1    
    50   24   25 am   BACKBONE|DICT|INTERRES
    51   24   84 1    
    52   25   26 2    
    53   27   28 2    
    54   27   29 am   BACKBONE|DICT|INTERRES
    55   29   30 1    
    56   29   85 1    
    57   30   31 1    
    58   30   32 1    
    59   30   86 1    
    60   31   87 1    
    61   31   88 1    
    62   31   89 1    
    63   32   33 2    
    64   32   34 am   BACKBONE|DICT|INTERRES
    65   34   35 1    
    66   34   90 1    
    67   35   36 1    
    68   35   37 1    
    69   35   91 1    
    70   36   92 1    
    71   36   93 1    
    72   36   94 1    
    73   37   38 2    
    74   37   39 am   BACKBONE|DICT|INTERRES
    75   39   40 1    
    76   39   95 1    
    77   40   41 1    
    78   40   42 1    
    79   40   96 1    
    80   41   97 1    
    81   41   98 1    
    82   41   99 1    
    83   42   43 2    
    84   42   44 am   BACKBONE|DICT|INTERRES
    85   44   45 1    
    86   44  100 1    
    87   45   46 1    
    88   45   47 1    
    89   45  101 1    
    90   46  102 1    
    91   46  103 1    
    92   46  104 1    
    93   47   48 2    
    94   47   49 am   BACKBONE|DICT|INTERRES
    95   49   50 1    
    96   49  105 1    
    97   50   51 1    
    98   50   52 1    
    99   50  106 1    
   100   51  107 1    
   101   51  108 1    
   102   51  109 1    
   103   52   53 2    
   104   52   54 am   BACKBONE|DICT|INTERRES
   105   54   55 1    
   106   54  110 1    
   107   55   56 1    
   108   55   59 1    
   109   55  111 1    
   110   56   57 am   BACKBONE|DICT|INTERRES
   111   56   58 2    
   112   57  112 1    
   113   57  113 1    
   114   59   60 1    
   115   59  114 1    
   116   59  115 1    
   117   60   61 1    
   118   61  116 1    
   119   61  117 1    
@<TRIPOS>SUBSTRUCTURE
     1 UNK         1 GROUP             0       ****    0 ROOT    
