@<TRIPOS>MOLECULE
3R8
117   119    1
SMALL
USER_CHARGES


@<TRIPOS>ATOM
      1 CA         14.9945  -28.6319  -40.6422 C.3       0 UNK        -0.2013 
      2 C          15.7358  -27.4295  -41.2047 C.2       0 UNK         0.4866 
      3 O          15.8727  -26.4200  -40.5126 O.2       0 UNK        -0.5176 
      4 N          16.1920  -27.5158  -42.4598 N.am      1 UNK        -0.4884 
      5 CA         16.8843  -26.4310  -43.1627 C.3       1 UNK         0.0853 
      6 C6         16.8008  -26.5543  -44.7096 C.3       10 UNK        -0.0849 
      7 S7         15.1393  -27.0193  -45.3216 S.3       10 UNK        -0.2776 
      8 C8         15.4756  -28.4722  -46.3794 C.3       10 UNK         0.0316 
      9 C9         16.3610  -29.5175  -45.7095 C.ar      10 UNK        -0.0863 
     10 C10        15.9011  -30.2392  -44.6023 C.ar      10 UNK        -0.1009 
     11 C11        16.7296  -31.1775  -43.9765 C.ar      10 UNK        -0.0712 
     12 C12        18.0076  -31.4114  -44.4852 C.ar      10 UNK        -0.0894 
     13 C13        18.4927  -30.6705  -45.5625 C.ar      10 UNK        -0.0745 
     14 C14        17.6581  -29.7405  -46.1868 C.ar      10 UNK        -0.0972 
     15 C15        19.9342  -30.8531  -46.0077 C.3       10 UNK         0.0209 
     16 S16        21.0488  -29.7970  -45.0266 S.3       10 UNK        -0.2568 
     17 C17        20.9952  -28.2523  -45.9976 C.3       10 UNK        -0.0983 
     18 CA         21.7847  -27.0664  -45.3867 C.3       3 UNK         0.0876 
     19 N          21.1501  -26.5613  -44.1651 N.am      3 UNK        -0.4424 
     20 C          21.2294  -25.2980  -43.7267 C.2       2 UNK         0.4918 
     21 O          21.8995  -24.4280  -44.2854 O.2       2 UNK        -0.4875 
     22 CA         20.3772  -24.9421  -42.4902 C.3       2 UNK         0.0481 
     23 CB         20.5748  -23.4852  -42.0332 C.3       2 UNK        -0.1831 
     24 N          18.9515  -25.1761  -42.7402 N.am      2 UNK        -0.4498 
     25 C          18.3584  -26.3768  -42.7225 C.2       1 UNK         0.5027 
     26 O          18.9545  -27.4216  -42.4473 O.2       1 UNK        -0.4969 
     27 C          23.2907  -27.3720  -45.2252 C.2       3 UNK         0.5005 
     28 O          23.9464  -27.6626  -46.2275 O.2       3 UNK        -0.5279 
     29 N          23.8123  -27.3030  -43.9894 N.am      4 UNK        -0.4463 
     30 CA         25.2028  -27.5610  -43.6018 C.3       4 UNK         0.0283 
     31 CB         26.1759  -26.5746  -44.2833 C.3       4 UNK        -0.1875 
     32 C          25.6301  -29.0334  -43.7514 C.2       4 UNK         0.4949 
     33 O          26.8239  -29.3017  -43.8931 O.2       4 UNK        -0.5039 
     34 N          24.6708  -29.9688  -43.6696 N.am      5 UNK        -0.4663 
     35 CA         24.9433  -31.4087  -43.5911 C.3       5 UNK         0.0242 
     36 CB         23.6627  -32.2032  -43.8862 C.3       5 UNK        -0.1982 
     37 C          25.5475  -31.7848  -42.2270 C.2       5 UNK         0.5017 
     38 O          26.5345  -32.5195  -42.1784 O.2       5 UNK        -0.5012 
     39 N          24.9892  -31.2052  -41.1585 N.am      6 UNK        -0.4439 
     40 CA         25.5768  -31.1382  -39.8220 C.3       6 UNK         0.0297 
     41 CB         25.2976  -32.4260  -39.0229 C.3       6 UNK        -0.2006 
     42 C          25.0167  -29.8726  -39.1659 C.2       6 UNK         0.4892 
     43 O          24.2119  -29.9613  -38.2364 O.2       6 UNK        -0.5089 
     44 N          25.3771  -28.7183  -39.7502 N.am      7 UNK        -0.4243 
     45 CA         24.7918  -27.3798  -39.5707 C.3       7 UNK         0.0196 
     46 CB         24.8929  -26.8798  -38.1149 C.3       7 UNK        -0.2007 
     47 C          23.3536  -27.3172  -40.1140 C.2       7 UNK         0.5020 
     48 O          23.1029  -26.6235  -41.1000 O.2       7 UNK        -0.5147 
     49 N          22.4614  -28.0997  -39.5008 N.am      8 UNK        -0.4734 
     50 CA         21.1358  -28.4297  -40.0134 C.3       8 UNK         0.0238 
     51 CB         20.1347  -28.4522  -38.8402 C.3       8 UNK        -0.1912 
     52 C          21.2115  -29.7512  -40.8050 C.2       8 UNK         0.5038 
     53 O          22.2102  -29.9881  -41.4934 O.2       8 UNK        -0.5046 
     54 N          20.1672  -30.5828  -40.6843 N.am      9 UNK        -0.4200 
     55 CA         19.9751  -31.8552  -41.3988 C.3       9 UNK         0.0839 
     56 C          21.0648  -32.9424  -41.1718 C.2       9 UNK         0.5513 
     57 N          21.8746  -32.8630  -40.1253 N.am      9 UNK        -0.7519 
     58 O          21.1633  -33.8821  -41.9559 O.2       9 UNK        -0.4960 
     59 C59        18.5746  -32.4763  -41.1219 C.3       10 UNK        -0.0876 
     60 S60        17.1615  -31.3230  -41.2510 S.3       10 UNK        -0.2414 
     61 C61        16.2698  -31.9146  -42.7292 C.3       10 UNK         0.0169 
     62 H62        14.0316  -28.3234  -40.2361 H         1 UNK         0.0903 
     63 H63        14.8097  -29.3874  -41.4052 H         1 UNK         0.0903 
     64 H64        15.5727  -29.0874  -39.8388 H         1 UNK         0.0903 
     65 H65        16.1073  -28.3791  -42.9777 H         1 UNK         0.3096 
     66 H66        16.4058  -25.4911  -42.8773 H         1 UNK         0.1121 
     67 H67        17.0669  -25.6008  -45.1692 H         1 UNK         0.0849 
     68 H68        17.5420  -27.2619  -45.0802 H         1 UNK         0.0849 
     69 H69        14.5269  -28.9329  -46.6583 H         1 UNK         0.0865 
     70 H70        15.9272  -28.1264  -47.3106 H         1 UNK         0.0865 
     71 H71        14.9060  -30.0548  -44.2205 H         1 UNK         0.1346 
     72 H72        18.6431  -32.1462  -44.0159 H         1 UNK         0.1412 
     73 H73        18.0300  -29.1699  -47.0267 H         1 UNK         0.1426 
     74 H74        20.0441  -30.6360  -47.0712 H         1 UNK         0.0716 
     75 H75        20.2326  -31.8943  -45.8761 H         1 UNK         0.0716 
     76 H76        19.9529  -27.9604  -46.1292 H         1 UNK         0.0695 
     77 H77        21.3700  -28.4696  -46.9995 H         1 UNK         0.0695 
     78 H78        21.7384  -26.2615  -46.1240 H         1 UNK         0.0983 
     79 H79        20.5605  -27.2122  -43.6550 H         1 UNK         0.3095 
     80 H80        20.7020  -25.5829  -41.6706 H         1 UNK         0.0454 
     81 H81        21.6232  -23.2895  -41.8036 H         1 UNK         0.0851 
     82 H82        20.0035  -23.2717  -41.1297 H         1 UNK         0.0851 
     83 H83        20.2699  -22.7729  -42.8007 H         1 UNK         0.0851 
     84 H84        18.4105  -24.3682  -43.0148 H         1 UNK         0.2976 
     85 H85        23.1950  -27.0558  -43.2227 H         1 UNK         0.3116 
     86 H86        25.2512  -27.3564  -42.5339 H         1 UNK         0.0646 
     87 H87        25.8491  -25.5426  -44.1561 H         1 UNK         0.0847 
     88 H88        26.2714  -26.7685  -45.3518 H         1 UNK         0.0847 
     89 H89        27.1750  -26.6509  -43.8527 H         1 UNK         0.0847 
     90 H90        23.7107  -29.6759  -43.5399 H         1 UNK         0.3040 
     91 H91        25.6798  -31.6634  -44.3568 H         1 UNK         0.1015 
     92 H92        23.8245  -33.2745  -43.7602 H         1 UNK         0.0786 
     93 H93        23.3278  -32.0430  -44.9111 H         1 UNK         0.0786 
     94 H94        22.8474  -31.9150  -43.2245 H         1 UNK         0.0786 
     95 H95        24.1393  -30.6624  -41.2966 H         1 UNK         0.3172 
     96 H96        26.6583  -31.0134  -39.9102 H         1 UNK         0.0595 
     97 H97        24.2334  -32.5755  -38.8499 H         1 UNK         0.0839 
     98 H98        25.7790  -32.3834  -38.0453 H         1 UNK         0.0839 
     99 H99        25.6827  -33.3071  -39.5359 H         1 UNK         0.0839 
    100 H100       26.0448  -28.7863  -40.5056 H         1 UNK         0.2998 
    101 H101       25.3904  -26.7030  -40.1826 H         1 UNK         0.0822 
    102 H102       25.9258  -26.8874  -37.7671 H         1 UNK         0.0787 
    103 H103       24.5318  -25.8537  -38.0347 H         1 UNK         0.0787 
    104 H104       24.3044  -27.4813  -37.4222 H         1 UNK         0.0787 
    105 H105       22.8272  -28.7094  -38.7743 H         1 UNK         0.3055 
    106 H106       20.8146  -27.6617  -40.7156 H         1 UNK         0.1106 
    107 H107       20.1722  -27.5184  -38.2788 H         1 UNK         0.0828 
    108 H108       19.1084  -28.5607  -39.1943 H         1 UNK         0.0828 
    109 H109       20.3411  -29.2647  -38.1422 H         1 UNK         0.0828 
    110 H110       19.3927  -30.2982  -40.1044 H         1 UNK         0.2931 
    111 H111       20.0374  -31.5959  -42.4547 H         1 UNK         0.0412 
    112 H112       21.8031  -32.0932  -39.4803 H         1 UNK         0.3472 
    113 H113       22.5689  -33.5793  -39.9890 H         1 UNK         0.3472 
    114 H114       18.4059  -33.3277  -41.7834 H         1 UNK         0.0970 
    115 H115       18.5482  -32.8871  -40.1106 H         1 UNK         0.0970 
    116 H116       15.2021  -31.7559  -42.5709 H         1 UNK         0.0612 
    117 H117       16.3994  -32.9899  -42.8568 H         1 UNK         0.0612 
@<TRIPOS>BOND
     1    1    2 1    
     2    1   62 1    
     3    1   63 1    
     4    1   64 1    
     5    2    3 2    
     6    2    4 am   BACKBONE|DICT|INTERRES
     7    4    5 1    
     8    4   65 1    
     9    5    6 1    
    10    5   25 1    
    11    5   66 1    
    12    6    7 1    
    13    6   67 1    
    14    6   68 1    
    15    7    8 1    
    16    8    9 1    
    17    8   69 1    
    18    8   70 1    
    19    9   10 ar   
    20    9   14 ar   
    21   10   11 ar   
    22   10   71 1    
    23   11   12 ar   
    24   11   61 1    
    25   12   13 ar   
    26   12   72 1    
    27   13   14 ar   
    28   13   15 1    
    29   14   73 1    
    30   15   16 1    
    31   15   74 1    
    32   15   75 1    
    33   16   17 1    
    34   17   18 1    
    35   17   76 1    
    36   17   77 1    
    37   18   19 1    
    38   18   27 1    
    39   18   78 1    
    40   19   20 am   BACKBONE|DICT|INTERRES
    41   19   79 1    
    42   20   21 2    
    43   20   22 1    
    44   22   23 1    
    45   22   24 1    
    46   22   80 1    
    47   23   81 1    
    48   23   82 1    
    49   23   83 1    
    50   24   25 am   BACKBONE|DICT|INTERRES
    51   24   84 1    
    52   25   26 2    
    53   27   28 2    
    54   27   29 am   BACKBONE|DICT|INTERRES
    55   29   30 1    
    56   29   85 1    
    57   30   31 1    
    58   30   32 1    
    59   30   86 1    
    60   31   87 1    
    61   31   88 1    
    62   31   89 1    
    63   32   33 2    
    64   32   34 am   BACKBONE|DICT|INTERRES
    65   34   35 1    
    66   34   90 1    
    67   35   36 1    
    68   35   37 1    
    69   35   91 1    
    70   36   92 1    
    71   36   93 1    
    72   36   94 1    
    73   37   38 2    
    74   37   39 am   BACKBONE|DICT|INTERRES
    75   39   40 1    
    76   39   95 1    
    77   40   41 1    
    78   40   42 1    
    79   40   96 1    
    80   41   97 1    
    81   41   98 1    
    82   41   99 1    
    83   42   43 2    
    84   42   44 am   BACKBONE|DICT|INTERRES
    85   44   45 1    
    86   44  100 1    
    87   45   46 1    
    88   45   47 1    
    89   45  101 1    
    90   46  102 1    
    91   46  103 1    
    92   46  104 1    
    93   47   48 2    
    94   47   49 am   BACKBONE|DICT|INTERRES
    95   49   50 1    
    96   49  105 1    
    97   50   51 1    
    98   50   52 1    
    99   50  106 1    
   100   51  107 1    
   101   51  108 1    
   102   51  109 1    
   103   52   53 2    
   104   52   54 am   BACKBONE|DICT|INTERRES
   105   54   55 1    
   106   54  110 1    
   107   55   56 1    
   108   55   59 1    
   109   55  111 1    
   110   56   57 am   BACKBONE|DICT|INTERRES
   111   56   58 2    
   112   57  112 1    
   113   57  113 1    
   114   59   60 1    
   115   59  114 1    
   116   59  115 1    
   117   60   61 1    
   118   61  116 1    
   119   61  117 1    
@<TRIPOS>SUBSTRUCTURE
     1 UNK         1 GROUP             0       ****    0 ROOT    
