@<TRIPOS>MOLECULE
3R8
117   119    1
SMALL
USER_CHARGES


@<TRIPOS>ATOM
      1 CA         23.7369  -31.4720  -45.7918 C.3       0 UNK        -0.2013 
      2 C          22.2727  -31.1470  -45.5396 C.2       0 UNK         0.4866 
      3 O          21.4117  -31.9963  -45.7698 O.2       0 UNK        -0.5176 
      4 N          21.9921  -29.9308  -45.0636 N.am      1 UNK        -0.4884 
      5 CA         20.6684  -29.4502  -44.6769 C.3       1 UNK         0.0853 
      6 C6         20.0823  -28.4732  -45.7295 C.3       10 UNK        -0.0849 
      7 S7         19.4411  -29.3631  -47.1870 S.3       10 UNK        -0.2776 
      8 C8         17.6700  -28.9204  -47.1768 C.3       10 UNK         0.0316 
      9 C9         16.9901  -29.1477  -45.8302 C.ar      10 UNK        -0.0863 
     10 C10        17.0814  -30.3823  -45.1795 C.ar      10 UNK        -0.1009 
     11 C11        16.4601  -30.5800  -43.9435 C.ar      10 UNK        -0.0712 
     12 C12        15.7300  -29.5385  -43.3630 C.ar      10 UNK        -0.0894 
     13 C13        15.6171  -28.3051  -44.0110 C.ar      10 UNK        -0.0745 
     14 C14        16.2525  -28.1154  -45.2416 C.ar      10 UNK        -0.0972 
     15 C15        14.7713  -27.1945  -43.4026 C.3       10 UNK         0.0209 
     16 S16        15.5990  -26.3663  -42.0093 S.3       10 UNK        -0.2568 
     17 C17        16.8906  -25.3916  -42.8541 C.3       10 UNK        -0.0983 
     18 CA         18.2233  -25.3899  -42.0680 C.3       3 UNK         0.0876 
     19 N          18.7261  -26.7493  -41.8401 N.am      3 UNK        -0.4424 
     20 C          19.6903  -27.0808  -40.9708 C.2       2 UNK         0.4918 
     21 O          20.2722  -26.2699  -40.2514 O.2       2 UNK        -0.4875 
     22 CA         20.1269  -28.5563  -40.9627 C.3       2 UNK         0.0481 
     23 CB         19.2513  -29.3667  -39.9957 C.3       2 UNK        -0.1831 
     24 N          20.0971  -29.1667  -42.2985 N.am      2 UNK        -0.4498 
     25 C          20.8499  -28.7472  -43.3263 C.2       1 UNK         0.5027 
     26 O          21.6498  -27.8104  -43.2449 O.2       1 UNK        -0.4969 
     27 C          19.2602  -24.4683  -42.7510 C.2       3 UNK         0.5005 
     28 O          19.1347  -23.2476  -42.6461 O.2       3 UNK        -0.5279 
     29 N          20.2729  -25.0527  -43.4106 N.am      4 UNK        -0.4463 
     30 CA         21.4162  -24.3473  -43.9980 C.3       4 UNK         0.0283 
     31 CB         21.8151  -25.0432  -45.3112 C.3       4 UNK        -0.1875 
     32 C          22.6146  -24.2720  -43.0303 C.2       4 UNK         0.4949 
     33 O          23.6812  -23.8138  -43.4403 O.2       4 UNK        -0.5039 
     34 N          22.4296  -24.7258  -41.7799 N.am      5 UNK        -0.4663 
     35 CA         23.4143  -24.7925  -40.6946 C.3       5 UNK         0.0242 
     36 CB         23.9113  -23.3847  -40.2989 C.3       5 UNK        -0.1982 
     37 C          24.5592  -25.7895  -40.9594 C.2       5 UNK         0.5017 
     38 O          25.6705  -25.5851  -40.4657 O.2       5 UNK        -0.5012 
     39 N          24.2692  -26.8670  -41.7041 N.am      6 UNK        -0.4439 
     40 CA         25.1620  -28.0182  -41.8591 C.3       6 UNK         0.0297 
     41 CB         24.7316  -28.8280  -43.0933 C.3       6 UNK        -0.2006 
     42 C          25.1419  -28.9055  -40.6006 C.2       6 UNK         0.4892 
     43 O          24.2939  -28.7232  -39.7209 O.2       6 UNK        -0.5089 
     44 N          26.0546  -29.8848  -40.5537 N.am      7 UNK        -0.4243 
     45 CA         26.1402  -30.9162  -39.5142 C.3       7 UNK         0.0196 
     46 CB         27.5377  -31.5620  -39.5673 C.3       7 UNK        -0.2007 
     47 C          25.0015  -31.9500  -39.6468 C.2       7 UNK         0.5020 
     48 O          25.2542  -33.1073  -39.9866 O.2       7 UNK        -0.5147 
     49 N          23.7708  -31.4838  -39.3936 N.am      8 UNK        -0.4734 
     50 CA         22.4758  -32.1489  -39.5807 C.3       8 UNK         0.0238 
     51 CB         22.3986  -33.4655  -38.7756 C.3       8 UNK        -0.1912 
     52 C          22.1157  -32.3458  -41.0675 C.2       8 UNK         0.5038 
     53 O          22.8795  -31.9663  -41.9589 O.2       8 UNK        -0.5046 
     54 N          20.9243  -32.9048  -41.3051 N.am      9 UNK        -0.4200 
     55 CA         20.4259  -33.2619  -42.6386 C.3       9 UNK         0.0839 
     56 C          21.1438  -34.5230  -43.1874 C.2       9 UNK         0.5513 
     57 N          21.5386  -34.5140  -44.4513 N.am      9 UNK        -0.7519 
     58 O          21.3007  -35.5216  -42.4877 O.2       9 UNK        -0.4960 
     59 C59        18.8899  -33.4610  -42.6399 C.3       10 UNK        -0.0876 
     60 S60        18.0058  -31.9483  -42.1265 S.3       10 UNK        -0.2414 
     61 C61        16.5692  -31.9223  -43.2415 C.3       10 UNK         0.0169 
     62 H62        24.0790  -32.2194  -45.0760 H         1 UNK         0.0903 
     63 H63        23.8652  -31.8754  -46.7959 H         1 UNK         0.0903 
     64 H64        24.3732  -30.5925  -45.6970 H         1 UNK         0.0903 
     65 H65        22.7399  -29.2819  -44.8608 H         1 UNK         0.3096 
     66 H66        19.9826  -30.2890  -44.5369 H         1 UNK         0.1121 
     67 H67        19.2873  -27.8599  -45.3022 H         1 UNK         0.0849 
     68 H68        20.8437  -27.7704  -46.0697 H         1 UNK         0.0849 
     69 H69        17.5763  -27.8781  -47.4856 H         1 UNK         0.0865 
     70 H70        17.1549  -29.5108  -47.9357 H         1 UNK         0.0865 
     71 H71        17.6451  -31.1870  -45.6325 H         1 UNK         0.1346 
     72 H72        15.2415  -29.6898  -42.4098 H         1 UNK         0.1412 
     73 H73        16.1615  -27.1638  -45.7479 H         1 UNK         0.1426 
     74 H74        13.8305  -27.6171  -43.0469 H         1 UNK         0.0716 
     75 H75        14.5022  -26.4520  -44.1557 H         1 UNK         0.0716 
     76 H76        16.5118  -24.3742  -42.9701 H         1 UNK         0.0695 
     77 H77        17.0472  -25.7746  -43.8631 H         1 UNK         0.0695 
     78 H78        18.0280  -24.9513  -41.0865 H         1 UNK         0.0983 
     79 H79        18.2779  -27.4822  -42.3705 H         1 UNK         0.3095 
     80 H80        21.1579  -28.5966  -40.6037 H         1 UNK         0.0454 
     81 H81        18.2047  -29.3713  -40.3036 H         1 UNK         0.0851 
     82 H82        19.2921  -28.9479  -38.9892 H         1 UNK         0.0851 
     83 H83        19.5840  -30.4016  -39.9270 H         1 UNK         0.0851 
     84 H84        19.4607  -29.9432  -42.4271 H         1 UNK         0.2976 
     85 H85        20.3396  -26.0625  -43.4051 H         1 UNK         0.3116 
     86 H86        21.1298  -23.3213  -44.2379 H         1 UNK         0.0646 
     87 H87        22.2346  -26.0333  -45.1331 H         1 UNK         0.0847 
     88 H88        22.5730  -24.4657  -45.8420 H         1 UNK         0.0847 
     89 H89        20.9635  -25.1491  -45.9832 H         1 UNK         0.0847 
     90 H90        21.5174  -25.0966  -41.5410 H         1 UNK         0.3040 
     91 H91        22.8769  -25.1962  -39.8347 H         1 UNK         0.1015 
     92 H92        23.0780  -22.7083  -40.1091 H         1 UNK         0.0786 
     93 H93        24.5357  -22.9404  -41.0744 H         1 UNK         0.0786 
     94 H94        24.5084  -23.4233  -39.3870 H         1 UNK         0.0786 
     95 H95        23.3274  -26.9743  -42.0623 H         1 UNK         0.3172 
     96 H96        26.1800  -27.6553  -42.0163 H         1 UNK         0.0595 
     97 H97        23.8063  -29.3737  -42.9058 H         1 UNK         0.0839 
     98 H98        25.4875  -29.5665  -43.3621 H         1 UNK         0.0839 
     99 H99        24.5834  -28.1865  -43.9622 H         1 UNK         0.0839 
    100 H100       26.6925  -29.9840  -41.3302 H         1 UNK         0.2998 
    101 H101       26.0344  -30.4369  -38.5382 H         1 UNK         0.0822 
    102 H102       28.3226  -30.8238  -39.4018 H         1 UNK         0.0787 
    103 H103       27.6441  -32.3244  -38.7944 H         1 UNK         0.0787 
    104 H104       27.7258  -32.0431  -40.5281 H         1 UNK         0.0787 
    105 H105       23.7166  -30.4815  -39.2268 H         1 UNK         0.3055 
    106 H106       21.7340  -31.4614  -39.1715 H         1 UNK         0.1106 
    107 H107       21.3762  -33.8398  -38.7204 H         1 UNK         0.0828 
    108 H108       23.0051  -34.2531  -39.2242 H         1 UNK         0.0828 
    109 H109       22.7400  -33.3242  -37.7501 H         1 UNK         0.0828 
    110 H110       20.3516  -33.1999  -40.5291 H         1 UNK         0.2931 
    111 H111       20.6450  -32.4240  -43.3012 H         1 UNK         0.0412 
    112 H112       21.4254  -33.6754  -45.0182 H         1 UNK         0.3472 
    113 H113       21.9895  -35.3279  -44.8377 H         1 UNK         0.3472 
    114 H114       18.5628  -33.7528  -43.6393 H         1 UNK         0.0970 
    115 H115       18.6012  -34.2770  -41.9747 H         1 UNK         0.0970 
    116 H116       16.6239  -32.7219  -43.9806 H         1 UNK         0.0612 
    117 H117       15.6683  -32.1153  -42.6574 H         1 UNK         0.0612 
@<TRIPOS>BOND
     1    1    2 1    
     2    1   62 1    
     3    1   63 1    
     4    1   64 1    
     5    2    3 2    
     6    2    4 am   BACKBONE|DICT|INTERRES
     7    4    5 1    
     8    4   65 1    
     9    5    6 1    
    10    5   25 1    
    11    5   66 1    
    12    6    7 1    
    13    6   67 1    
    14    6   68 1    
    15    7    8 1    
    16    8    9 1    
    17    8   69 1    
    18    8   70 1    
    19    9   10 ar   
    20    9   14 ar   
    21   10   11 ar   
    22   10   71 1    
    23   11   12 ar   
    24   11   61 1    
    25   12   13 ar   
    26   12   72 1    
    27   13   14 ar   
    28   13   15 1    
    29   14   73 1    
    30   15   16 1    
    31   15   74 1    
    32   15   75 1    
    33   16   17 1    
    34   17   18 1    
    35   17   76 1    
    36   17   77 1    
    37   18   19 1    
    38   18   27 1    
    39   18   78 1    
    40   19   20 am   BACKBONE|DICT|INTERRES
    41   19   79 1    
    42   20   21 2    
    43   20   22 1    
    44   22   23 1    
    45   22   24 1    
    46   22   80 1    
    47   23   81 1    
    48   23   82 1    
    49   23   83 1    
    50   24   25 am   BACKBONE|DICT|INTERRES
    51   24   84 1    
    52   25   26 2    
    53   27   28 2    
    54   27   29 am   BACKBONE|DICT|INTERRES
    55   29   30 1    
    56   29   85 1    
    57   30   31 1    
    58   30   32 1    
    59   30   86 1    
    60   31   87 1    
    61   31   88 1    
    62   31   89 1    
    63   32   33 2    
    64   32   34 am   BACKBONE|DICT|INTERRES
    65   34   35 1    
    66   34   90 1    
    67   35   36 1    
    68   35   37 1    
    69   35   91 1    
    70   36   92 1    
    71   36   93 1    
    72   36   94 1    
    73   37   38 2    
    74   37   39 am   BACKBONE|DICT|INTERRES
    75   39   40 1    
    76   39   95 1    
    77   40   41 1    
    78   40   42 1    
    79   40   96 1    
    80   41   97 1    
    81   41   98 1    
    82   41   99 1    
    83   42   43 2    
    84   42   44 am   BACKBONE|DICT|INTERRES
    85   44   45 1    
    86   44  100 1    
    87   45   46 1    
    88   45   47 1    
    89   45  101 1    
    90   46  102 1    
    91   46  103 1    
    92   46  104 1    
    93   47   48 2    
    94   47   49 am   BACKBONE|DICT|INTERRES
    95   49   50 1    
    96   49  105 1    
    97   50   51 1    
    98   50   52 1    
    99   50  106 1    
   100   51  107 1    
   101   51  108 1    
   102   51  109 1    
   103   52   53 2    
   104   52   54 am   BACKBONE|DICT|INTERRES
   105   54   55 1    
   106   54  110 1    
   107   55   56 1    
   108   55   59 1    
   109   55  111 1    
   110   56   57 am   BACKBONE|DICT|INTERRES
   111   56   58 2    
   112   57  112 1    
   113   57  113 1    
   114   59   60 1    
   115   59  114 1    
   116   59  115 1    
   117   60   61 1    
   118   61  116 1    
   119   61  117 1    
@<TRIPOS>SUBSTRUCTURE
     1 UNK         1 GROUP             0       ****    0 ROOT    
