@<TRIPOS>MOLECULE
3R8
117   119    1
SMALL
USER_CHARGES


@<TRIPOS>ATOM
      1 CA         17.4743  -23.6256  -48.1614 C.3       0 UNK        -0.2013 
      2 C          17.9056  -24.6943  -47.1710 C.2       0 UNK         0.4866 
      3 O          18.9192  -25.3587  -47.3871 O.2       0 UNK        -0.5176 
      4 N          17.1595  -24.8563  -46.0715 N.am      1 UNK        -0.4884 
      5 CA         17.3669  -25.8688  -45.0243 C.3       1 UNK         0.0853 
      6 C6         16.0463  -26.1905  -44.2780 C.3       10 UNK        -0.0849 
      7 S7         14.8016  -26.8957  -45.4128 S.3       10 UNK        -0.2776 
      8 C8         14.4266  -28.5035  -44.6323 C.3       10 UNK         0.0316 
      9 C9         15.6307  -29.4275  -44.4478 C.ar      10 UNK        -0.0863 
     10 C10        15.7383  -30.1770  -43.2712 C.ar      10 UNK        -0.1009 
     11 C11        16.7930  -31.0756  -43.0840 C.ar      10 UNK        -0.0712 
     12 C12        17.7428  -31.2272  -44.0975 C.ar      10 UNK        -0.0894 
     13 C13        17.6848  -30.4451  -45.2556 C.ar      10 UNK        -0.0745 
     14 C14        16.6129  -29.5656  -45.4369 C.ar      10 UNK        -0.0972 
     15 C15        18.7923  -30.5432  -46.2988 C.3       10 UNK         0.0209 
     16 S16        20.0764  -29.2610  -46.0737 S.3       10 UNK        -0.2568 
     17 C17        20.7385  -29.6880  -44.4247 C.3       10 UNK        -0.0983 
     18 CA         21.6521  -28.6229  -43.7638 C.3       3 UNK         0.0876 
     19 N          21.1808  -27.2575  -44.0117 N.am      3 UNK        -0.4424 
     20 C          21.6261  -26.1114  -43.4753 C.2       2 UNK         0.4918 
     21 O          22.5350  -26.0465  -42.6466 O.2       2 UNK        -0.4875 
     22 CA         20.9208  -24.8177  -43.9231 C.3       2 UNK         0.0481 
     23 CB         21.8466  -23.9900  -44.8274 C.3       2 UNK        -0.1831 
     24 N          19.6590  -25.0698  -44.6273 N.am      2 UNK        -0.4498 
     25 C          18.5234  -25.5041  -44.0629 C.2       1 UNK         0.5027 
     26 O          18.3932  -25.6489  -42.8461 O.2       1 UNK        -0.4969 
     27 C          21.7782  -28.9561  -42.2640 C.2       3 UNK         0.5005 
     28 O          22.7337  -29.6218  -41.8657 O.2       3 UNK        -0.5279 
     29 N          20.8101  -28.4848  -41.4641 N.am      4 UNK        -0.4463 
     30 CA         20.7323  -28.6790  -40.0150 C.3       4 UNK         0.0283 
     31 CB         19.3841  -28.1458  -39.5066 C.3       4 UNK        -0.1875 
     32 C          21.8936  -28.0336  -39.2395 C.2       4 UNK         0.4949 
     33 O          22.2675  -28.5486  -38.1867 O.2       4 UNK        -0.5039 
     34 N          22.4512  -26.9398  -39.7732 N.am      5 UNK        -0.4663 
     35 CA         23.6399  -26.2796  -39.2352 C.3       5 UNK         0.0242 
     36 CB         23.5077  -24.7595  -39.4267 C.3       5 UNK        -0.1982 
     37 C          24.9158  -26.7998  -39.9130 C.2       5 UNK         0.5017 
     38 O          25.9209  -27.0019  -39.2314 O.2       5 UNK        -0.5012 
     39 N          24.8572  -26.9878  -41.2393 N.am      6 UNK        -0.4439 
     40 CA         25.9964  -27.3568  -42.0798 C.3       6 UNK         0.0297 
     41 CB         25.6391  -27.1165  -43.5558 C.3       6 UNK        -0.2006 
     42 C          26.4966  -28.7967  -41.8755 C.2       6 UNK         0.4892 
     43 O          27.7109  -29.0051  -41.8687 O.2       6 UNK        -0.5089 
     44 N          25.5727  -29.7586  -41.7478 N.am      7 UNK        -0.4243 
     45 CA         25.8804  -31.1938  -41.7244 C.3       7 UNK         0.0196 
     46 CB         25.6470  -31.7639  -43.1365 C.3       7 UNK        -0.2007 
     47 C          25.0736  -31.9844  -40.6802 C.2       7 UNK         0.5020 
     48 O          25.2981  -33.1886  -40.5560 O.2       7 UNK        -0.5147 
     49 N          24.1510  -31.3209  -39.9663 N.am      8 UNK        -0.4734 
     50 CA         23.1260  -31.9061  -39.0890 C.3       8 UNK         0.0238 
     51 CB         23.7536  -32.6368  -37.8815 C.3       8 UNK        -0.1912 
     52 C          22.1240  -32.7709  -39.8810 C.2       8 UNK         0.5038 
     53 O          21.7783  -33.8712  -39.4463 O.2       8 UNK        -0.5046 
     54 N          21.6890  -32.2449  -41.0352 N.am      9 UNK        -0.4200 
     55 CA         20.8212  -32.9023  -42.0254 C.3       9 UNK         0.0839 
     56 C          21.5357  -34.1077  -42.7103 C.2       9 UNK         0.5513 
     57 N          20.8298  -35.1771  -43.0700 N.am      9 UNK        -0.7519 
     58 O          22.7351  -34.0530  -42.9831 O.2       9 UNK        -0.4960 
     59 C59        19.3866  -33.2041  -41.4946 C.3       10 UNK        -0.0876 
     60 S60        18.4917  -31.7088  -40.9419 S.3       10 UNK        -0.2414 
     61 C61        16.8834  -31.8844  -41.7928 C.3       10 UNK         0.0169 
     62 H62        17.3464  -24.0622  -49.1512 H         1 UNK         0.0903 
     63 H63        16.5325  -23.1595  -47.8727 H         1 UNK         0.0903 
     64 H64        18.2345  -22.8473  -48.2280 H         1 UNK         0.0903 
     65 H65        16.3493  -24.2667  -45.9394 H         1 UNK         0.3096 
     66 H66        17.6890  -26.7905  -45.5140 H         1 UNK         0.1121 
     67 H67        15.6348  -25.2922  -43.8150 H         1 UNK         0.0849 
     68 H68        16.2211  -26.8963  -43.4639 H         1 UNK         0.0849 
     69 H69        13.9454  -28.3081  -43.6727 H         1 UNK         0.0865 
     70 H70        13.6865  -29.0214  -45.2435 H         1 UNK         0.0865 
     71 H71        14.9875  -30.0706  -42.4998 H         1 UNK         0.1346 
     72 H72        18.5581  -31.9230  -43.9665 H         1 UNK         0.1412 
     73 H73        16.5503  -28.9823  -46.3453 H         1 UNK         0.1426 
     74 H74        19.2597  -31.5287  -46.2673 H         1 UNK         0.0716 
     75 H75        18.3650  -30.4420  -47.2975 H         1 UNK         0.0716 
     76 H76        19.8846  -29.8693  -43.7749 H         1 UNK         0.0695 
     77 H77        21.2709  -30.6371  -44.5089 H         1 UNK         0.0695 
     78 H78        22.6463  -28.6992  -44.2065 H         1 UNK         0.0983 
     79 H79        20.4541  -27.1902  -44.7092 H         1 UNK         0.3095 
     80 H80        20.7055  -24.2343  -43.0257 H         1 UNK         0.0454 
     81 H81        22.0889  -24.5189  -45.7502 H         1 UNK         0.0851 
     82 H82        21.3903  -23.0373  -45.0965 H         1 UNK         0.0851 
     83 H83        22.7875  -23.7657  -44.3229 H         1 UNK         0.0851 
     84 H84        19.6714  -25.0060  -45.6422 H         1 UNK         0.2976 
     85 H85        20.0680  -27.9438  -41.8861 H         1 UNK         0.3116 
     86 H86        20.7639  -29.7527  -39.8232 H         1 UNK         0.0646 
     87 H87        19.2741  -27.0770  -39.6947 H         1 UNK         0.0847 
     88 H88        18.5488  -28.6588  -39.9841 H         1 UNK         0.0847 
     89 H89        19.2837  -28.3008  -38.4314 H         1 UNK         0.0847 
     90 H90        22.1071  -26.6018  -40.6640 H         1 UNK         0.3040 
     91 H91        23.7260  -26.4776  -38.1639 H         1 UNK         0.1015 
     92 H92        23.4183  -24.4864  -40.4791 H         1 UNK         0.0786 
     93 H93        24.3795  -24.2392  -39.0274 H         1 UNK         0.0786 
     94 H94        22.6326  -24.3709  -38.9054 H         1 UNK         0.0786 
     95 H95        23.9951  -26.7476  -41.7222 H         1 UNK         0.3172 
     96 H96        26.8204  -26.6861  -41.8260 H         1 UNK         0.0595 
     97 H97        26.4885  -27.3372  -44.2040 H         1 UNK         0.0839 
     98 H98        25.3580  -26.0778  -43.7333 H         1 UNK         0.0839 
     99 H99        24.8111  -27.7466  -43.8794 H         1 UNK         0.0839 
    100 H100       24.5863  -29.5120  -41.7929 H         1 UNK         0.2998 
    101 H101       26.9294  -31.3470  -41.4613 H         1 UNK         0.0822 
    102 H102       25.8840  -32.8281  -43.1780 H         1 UNK         0.0787 
    103 H103       24.6063  -31.6510  -43.4446 H         1 UNK         0.0787 
    104 H104       26.2735  -31.2648  -43.8760 H         1 UNK         0.0787 
    105 H105       24.0316  -30.3373  -40.1671 H         1 UNK         0.3055 
    106 H106       22.5468  -31.0749  -38.6888 H         1 UNK         0.1106 
    107 H107       24.4573  -31.9950  -37.3516 H         1 UNK         0.0828 
    108 H108       22.9850  -32.9331  -37.1666 H         1 UNK         0.0828 
    109 H109       24.2816  -33.5433  -38.1783 H         1 UNK         0.0828 
    110 H110       22.0824  -31.3551  -41.3241 H         1 UNK         0.2931 
    111 H111       20.7097  -32.1722  -42.8250 H         1 UNK         0.0412 
    112 H112       21.3057  -35.9353  -43.5344 H         1 UNK         0.3472 
    113 H113       19.8423  -35.2562  -42.8741 H         1 UNK         0.3472 
    114 H114       18.7943  -33.6851  -42.2728 H         1 UNK         0.0970 
    115 H115       19.4214  -33.9127  -40.6659 H         1 UNK         0.0970 
    116 H116       16.6680  -32.9325  -42.0024 H         1 UNK         0.0612 
    117 H117       16.1115  -31.5582  -41.0942 H         1 UNK         0.0612 
@<TRIPOS>BOND
     1    1    2 1    
     2    1   62 1    
     3    1   63 1    
     4    1   64 1    
     5    2    3 2    
     6    2    4 am   BACKBONE|DICT|INTERRES
     7    4    5 1    
     8    4   65 1    
     9    5    6 1    
    10    5   25 1    
    11    5   66 1    
    12    6    7 1    
    13    6   67 1    
    14    6   68 1    
    15    7    8 1    
    16    8    9 1    
    17    8   69 1    
    18    8   70 1    
    19    9   10 ar   
    20    9   14 ar   
    21   10   11 ar   
    22   10   71 1    
    23   11   12 ar   
    24   11   61 1    
    25   12   13 ar   
    26   12   72 1    
    27   13   14 ar   
    28   13   15 1    
    29   14   73 1    
    30   15   16 1    
    31   15   74 1    
    32   15   75 1    
    33   16   17 1    
    34   17   18 1    
    35   17   76 1    
    36   17   77 1    
    37   18   19 1    
    38   18   27 1    
    39   18   78 1    
    40   19   20 am   BACKBONE|DICT|INTERRES
    41   19   79 1    
    42   20   21 2    
    43   20   22 1    
    44   22   23 1    
    45   22   24 1    
    46   22   80 1    
    47   23   81 1    
    48   23   82 1    
    49   23   83 1    
    50   24   25 am   BACKBONE|DICT|INTERRES
    51   24   84 1    
    52   25   26 2    
    53   27   28 2    
    54   27   29 am   BACKBONE|DICT|INTERRES
    55   29   30 1    
    56   29   85 1    
    57   30   31 1    
    58   30   32 1    
    59   30   86 1    
    60   31   87 1    
    61   31   88 1    
    62   31   89 1    
    63   32   33 2    
    64   32   34 am   BACKBONE|DICT|INTERRES
    65   34   35 1    
    66   34   90 1    
    67   35   36 1    
    68   35   37 1    
    69   35   91 1    
    70   36   92 1    
    71   36   93 1    
    72   36   94 1    
    73   37   38 2    
    74   37   39 am   BACKBONE|DICT|INTERRES
    75   39   40 1    
    76   39   95 1    
    77   40   41 1    
    78   40   42 1    
    79   40   96 1    
    80   41   97 1    
    81   41   98 1    
    82   41   99 1    
    83   42   43 2    
    84   42   44 am   BACKBONE|DICT|INTERRES
    85   44   45 1    
    86   44  100 1    
    87   45   46 1    
    88   45   47 1    
    89   45  101 1    
    90   46  102 1    
    91   46  103 1    
    92   46  104 1    
    93   47   48 2    
    94   47   49 am   BACKBONE|DICT|INTERRES
    95   49   50 1    
    96   49  105 1    
    97   50   51 1    
    98   50   52 1    
    99   50  106 1    
   100   51  107 1    
   101   51  108 1    
   102   51  109 1    
   103   52   53 2    
   104   52   54 am   BACKBONE|DICT|INTERRES
   105   54   55 1    
   106   54  110 1    
   107   55   56 1    
   108   55   59 1    
   109   55  111 1    
   110   56   57 am   BACKBONE|DICT|INTERRES
   111   56   58 2    
   112   57  112 1    
   113   57  113 1    
   114   59   60 1    
   115   59  114 1    
   116   59  115 1    
   117   60   61 1    
   118   61  116 1    
   119   61  117 1    
@<TRIPOS>SUBSTRUCTURE
     1 UNK         1 GROUP             0       ****    0 ROOT    
