@<TRIPOS>MOLECULE
3R8
117   119    1
SMALL
USER_CHARGES


@<TRIPOS>ATOM
      1 CA         17.2312  -27.6580  -38.8041 C.3       0 UNK        -0.2013 
      2 C          17.3482  -26.6680  -39.9536 C.2       0 UNK         0.4866 
      3 O          17.6767  -25.5034  -39.7272 O.2       0 UNK        -0.5176 
      4 N          17.0603  -27.1184  -41.1818 N.am      1 UNK        -0.4884 
      5 CA         17.0497  -26.2985  -42.4009 C.3       1 UNK         0.0853 
      6 C6         16.3441  -26.9851  -43.6040 C.3       10 UNK        -0.0849 
      7 S7         15.0077  -28.1777  -43.2076 S.3       10 UNK        -0.2776 
      8 C8         15.8666  -29.7688  -42.8720 C.3       10 UNK         0.0316 
      9 C9         17.1412  -29.9936  -43.6811 C.ar      10 UNK        -0.0863 
     10 C10        18.3500  -30.2819  -43.0355 C.ar      10 UNK        -0.1009 
     11 C11        19.5254  -30.4560  -43.7734 C.ar      10 UNK        -0.0712 
     12 C12        19.4903  -30.3304  -45.1622 C.ar      10 UNK        -0.0894 
     13 C13        18.2977  -30.0081  -45.8148 C.ar      10 UNK        -0.0745 
     14 C14        17.1195  -29.8872  -45.0751 C.ar      10 UNK        -0.0972 
     15 C15        18.2844  -29.7285  -47.3076 C.3       10 UNK         0.0209 
     16 S16        18.8113  -28.0133  -47.6437 S.3       10 UNK        -0.2568 
     17 C17        20.6262  -28.1913  -47.6429 C.3       10 UNK        -0.0983 
     18 CA         21.3879  -27.2385  -46.6783 C.3       3 UNK         0.0876 
     19 N          20.9268  -27.2936  -45.2808 N.am      3 UNK        -0.4424 
     20 C          21.2049  -26.3504  -44.3657 C.2       2 UNK         0.4918 
     21 O          21.7355  -25.2739  -44.6530 O.2       2 UNK        -0.4875 
     22 CA         20.8644  -26.6672  -42.8949 C.3       2 UNK         0.0481 
     23 CB         21.5086  -25.6698  -41.9099 C.3       2 UNK        -0.1831 
     24 N          19.4339  -26.7836  -42.6221 N.am      2 UNK        -0.4498 
     25 C          18.4702  -25.8731  -42.8278 C.2       1 UNK         0.5027 
     26 O          18.6474  -24.7635  -43.3318 O.2       1 UNK        -0.4969 
     27 C          22.9084  -27.5194  -46.7314 C.2       3 UNK         0.5005 
     28 O          23.3112  -28.6561  -46.9897 O.2       3 UNK        -0.5279 
     29 N          23.7244  -26.5000  -46.4267 N.am      4 UNK        -0.4463 
     30 CA         25.1941  -26.4873  -46.3314 C.3       4 UNK         0.0283 
     31 CB         25.8622  -26.8864  -47.6620 C.3       4 UNK        -0.1875 
     32 C          25.7613  -27.3028  -45.1528 C.2       4 UNK         0.4949 
     33 O          26.6287  -26.7984  -44.4389 O.2       4 UNK        -0.5039 
     34 N          25.2589  -28.5268  -44.9513 N.am      5 UNK        -0.4663 
     35 CA         25.5050  -29.3569  -43.7704 C.3       5 UNK         0.0242 
     36 CB         25.0133  -30.7844  -44.0527 C.3       5 UNK        -0.1982 
     37 C          24.8053  -28.7632  -42.5346 C.2       5 UNK         0.5017 
     38 O          23.7544  -28.1378  -42.6770 O.2       5 UNK        -0.5012 
     39 N          25.4071  -28.9482  -41.3541 N.am      6 UNK        -0.4439 
     40 CA         24.9886  -28.3075  -40.1056 C.3       6 UNK         0.0297 
     41 CB         26.0813  -28.5124  -39.0434 C.3       6 UNK        -0.2006 
     42 C          23.6338  -28.8075  -39.5748 C.2       6 UNK         0.4892 
     43 O          23.4353  -30.0186  -39.4549 O.2       6 UNK        -0.5089 
     44 N          22.7780  -27.8484  -39.1912 N.am      7 UNK        -0.4243 
     45 CA         21.5052  -28.0076  -38.4790 C.3       7 UNK         0.0196 
     46 CB         21.7804  -28.3159  -36.9889 C.3       7 UNK        -0.2007 
     47 C          20.5452  -29.0028  -39.1597 C.2       7 UNK         0.5020 
     48 O          20.1056  -28.7480  -40.2802 O.2       7 UNK        -0.5147 
     49 N          20.2082  -30.0940  -38.4612 N.am      8 UNK        -0.4734 
     50 CA         19.3291  -31.1617  -38.9423 C.3       8 UNK         0.0238 
     51 CB         18.6358  -31.8120  -37.7331 C.3       8 UNK        -0.1912 
     52 C          20.0602  -32.2234  -39.7845 C.2       8 UNK         0.5038 
     53 O          19.3801  -33.0466  -40.3960 O.2       8 UNK        -0.5046 
     54 N          21.4032  -32.1921  -39.7858 N.am      9 UNK        -0.4200 
     55 CA         22.3431  -33.0586  -40.5229 C.3       9 UNK         0.0839 
     56 C          22.1381  -34.6015  -40.4137 C.2       9 UNK         0.5513 
     57 N          21.4912  -35.1041  -39.3692 N.am      9 UNK        -0.7519 
     58 O          22.6135  -35.3616  -41.2538 O.2       9 UNK        -0.4960 
     59 C59        22.6599  -32.5373  -41.9550 C.3       10 UNK        -0.0876 
     60 S60        21.2533  -32.5110  -43.1172 S.3       10 UNK        -0.2414 
     61 C61        20.8457  -30.7413  -43.0779 C.3       10 UNK         0.0169 
     62 H62        16.3349  -27.4496  -38.2206 H         1 UNK         0.0903 
     63 H63        17.1774  -28.6868  -39.1585 H         1 UNK         0.0903 
     64 H64        18.0926  -27.5729  -38.1428 H         1 UNK         0.0903 
     65 H65        16.7600  -28.0726  -41.3089 H         1 UNK         0.3096 
     66 H66        16.4972  -25.3861  -42.1637 H         1 UNK         0.1121 
     67 H67        15.8928  -26.2072  -44.2224 H         1 UNK         0.0849 
     68 H68        17.0606  -27.4556  -44.2747 H         1 UNK         0.0849 
     69 H69        16.0772  -29.8335  -41.8038 H         1 UNK         0.0865 
     70 H70        15.1740  -30.5847  -43.0835 H         1 UNK         0.0865 
     71 H71        18.3841  -30.3667  -41.9585 H         1 UNK         0.1346 
     72 H72        20.4029  -30.4626  -45.7248 H         1 UNK         0.1412 
     73 H73        16.1929  -29.6412  -45.5763 H         1 UNK         0.1426 
     74 H74        17.2784  -29.8682  -47.7063 H         1 UNK         0.0716 
     75 H75        18.9201  -30.4383  -47.8389 H         1 UNK         0.0716 
     76 H76        20.9581  -28.0060  -48.6662 H         1 UNK         0.0695 
     77 H77        20.8837  -29.2318  -47.4510 H         1 UNK         0.0695 
     78 H78        21.2256  -26.2228  -47.0466 H         1 UNK         0.0983 
     79 H79        20.4604  -28.1414  -44.9923 H         1 UNK         0.3095 
     80 H80        21.2739  -27.6538  -42.6814 H         1 UNK         0.0454 
     81 H81        22.5930  -25.6577  -42.0247 H         1 UNK         0.0851 
     82 H82        21.1505  -24.6522  -42.0687 H         1 UNK         0.0851 
     83 H83        21.2917  -25.9424  -40.8779 H         1 UNK         0.0851 
     84 H84        19.1651  -27.6414  -42.1563 H         1 UNK         0.2976 
     85 H85        23.2717  -25.6503  -46.1058 H         1 UNK         0.3116 
     86 H86        25.4581  -25.4458  -46.1401 H         1 UNK         0.0646 
     87 H87        26.9442  -26.7611  -47.6038 H         1 UNK         0.0847 
     88 H88        25.5086  -26.2664  -48.4856 H         1 UNK         0.0847 
     89 H89        25.6739  -27.9285  -47.9211 H         1 UNK         0.0847 
     90 H90        24.5322  -28.8339  -45.5934 H         1 UNK         0.3040 
     91 H91        26.5819  -29.3822  -43.5894 H         1 UNK         0.1015 
     92 H92        25.5133  -31.2102  -44.9229 H         1 UNK         0.0786 
     93 H93        23.9392  -30.8121  -44.2396 H         1 UNK         0.0786 
     94 H94        25.2212  -31.4426  -43.2087 H         1 UNK         0.0786 
     95 H95        26.2414  -29.5153  -41.3122 H         1 UNK         0.3172 
     96 H96        24.9120  -27.2356  -40.3024 H         1 UNK         0.0595 
     97 H97        27.0343  -28.0909  -39.3637 H         1 UNK         0.0839 
     98 H98        26.2365  -29.5697  -38.8235 H         1 UNK         0.0839 
     99 H99        25.8118  -28.0230  -38.1063 H         1 UNK         0.0839 
    100 H100       23.0472  -26.8916  -39.3698 H         1 UNK         0.2998 
    101 H101       21.0038  -27.0395  -38.5250 H         1 UNK         0.0822 
    102 H102       22.3813  -27.5277  -36.5346 H         1 UNK         0.0787 
    103 H103       20.8542  -28.3733  -36.4151 H         1 UNK         0.0787 
    104 H104       22.3212  -29.2537  -36.8546 H         1 UNK         0.0787 
    105 H105       20.6140  -30.2170  -37.5444 H         1 UNK         0.3055 
    106 H106       18.5575  -30.7266  -39.5802 H         1 UNK         0.1106 
    107 H107       19.3536  -32.2737  -37.0541 H         1 UNK         0.0828 
    108 H108       18.0586  -31.0809  -37.1667 H         1 UNK         0.0828 
    109 H109       17.9417  -32.5911  -38.0519 H         1 UNK         0.0828 
    110 H110       21.8536  -31.4374  -39.2816 H         1 UNK         0.2931 
    111 H111       23.2740  -32.9183  -39.9721 H         1 UNK         0.0412 
    112 H112       21.3737  -36.1023  -39.2937 H         1 UNK         0.3472 
    113 H113       21.0932  -34.4934  -38.6742 H         1 UNK         0.3472 
    114 H114       23.4561  -33.1321  -42.4055 H         1 UNK         0.0970 
    115 H115       23.0713  -31.5298  -41.8767 H         1 UNK         0.0970 
    116 H116       21.6475  -30.1721  -43.5508 H         1 UNK         0.0612 
    117 H117       20.8071  -30.4068  -42.0434 H         1 UNK         0.0612 
@<TRIPOS>BOND
     1    1    2 1    
     2    1   62 1    
     3    1   63 1    
     4    1   64 1    
     5    2    3 2    
     6    2    4 am   BACKBONE|DICT|INTERRES
     7    4    5 1    
     8    4   65 1    
     9    5    6 1    
    10    5   25 1    
    11    5   66 1    
    12    6    7 1    
    13    6   67 1    
    14    6   68 1    
    15    7    8 1    
    16    8    9 1    
    17    8   69 1    
    18    8   70 1    
    19    9   10 ar   
    20    9   14 ar   
    21   10   11 ar   
    22   10   71 1    
    23   11   12 ar   
    24   11   61 1    
    25   12   13 ar   
    26   12   72 1    
    27   13   14 ar   
    28   13   15 1    
    29   14   73 1    
    30   15   16 1    
    31   15   74 1    
    32   15   75 1    
    33   16   17 1    
    34   17   18 1    
    35   17   76 1    
    36   17   77 1    
    37   18   19 1    
    38   18   27 1    
    39   18   78 1    
    40   19   20 am   BACKBONE|DICT|INTERRES
    41   19   79 1    
    42   20   21 2    
    43   20   22 1    
    44   22   23 1    
    45   22   24 1    
    46   22   80 1    
    47   23   81 1    
    48   23   82 1    
    49   23   83 1    
    50   24   25 am   BACKBONE|DICT|INTERRES
    51   24   84 1    
    52   25   26 2    
    53   27   28 2    
    54   27   29 am   BACKBONE|DICT|INTERRES
    55   29   30 1    
    56   29   85 1    
    57   30   31 1    
    58   30   32 1    
    59   30   86 1    
    60   31   87 1    
    61   31   88 1    
    62   31   89 1    
    63   32   33 2    
    64   32   34 am   BACKBONE|DICT|INTERRES
    65   34   35 1    
    66   34   90 1    
    67   35   36 1    
    68   35   37 1    
    69   35   91 1    
    70   36   92 1    
    71   36   93 1    
    72   36   94 1    
    73   37   38 2    
    74   37   39 am   BACKBONE|DICT|INTERRES
    75   39   40 1    
    76   39   95 1    
    77   40   41 1    
    78   40   42 1    
    79   40   96 1    
    80   41   97 1    
    81   41   98 1    
    82   41   99 1    
    83   42   43 2    
    84   42   44 am   BACKBONE|DICT|INTERRES
    85   44   45 1    
    86   44  100 1    
    87   45   46 1    
    88   45   47 1    
    89   45  101 1    
    90   46  102 1    
    91   46  103 1    
    92   46  104 1    
    93   47   48 2    
    94   47   49 am   BACKBONE|DICT|INTERRES
    95   49   50 1    
    96   49  105 1    
    97   50   51 1    
    98   50   52 1    
    99   50  106 1    
   100   51  107 1    
   101   51  108 1    
   102   51  109 1    
   103   52   53 2    
   104   52   54 am   BACKBONE|DICT|INTERRES
   105   54   55 1    
   106   54  110 1    
   107   55   56 1    
   108   55   59 1    
   109   55  111 1    
   110   56   57 am   BACKBONE|DICT|INTERRES
   111   56   58 2    
   112   57  112 1    
   113   57  113 1    
   114   59   60 1    
   115   59  114 1    
   116   59  115 1    
   117   60   61 1    
   118   61  116 1    
   119   61  117 1    
@<TRIPOS>SUBSTRUCTURE
     1 UNK         1 GROUP             0       ****    0 ROOT    
