@<TRIPOS>MOLECULE
3R8
117   119    1
SMALL
USER_CHARGES


@<TRIPOS>ATOM
      1 CA         13.3762  -23.6847  -46.0308 C.3       0 UNK        -0.2013 
      2 C          14.6712  -24.3730  -45.6272 C.2       0 UNK         0.4866 
      3 O          14.9365  -24.5195  -44.4341 O.2       0 UNK        -0.5176 
      4 N          15.4853  -24.7764  -46.6134 N.am      1 UNK        -0.4884 
      5 CA         16.7640  -25.5069  -46.5185 C.3       1 UNK         0.0853 
      6 C6         16.6789  -26.8616  -45.7653 C.3       10 UNK        -0.0849 
      7 S7         15.3498  -27.9853  -46.3206 S.3       10 UNK        -0.2776 
      8 C8         16.0786  -29.6484  -46.0664 C.3       10 UNK         0.0316 
      9 C9         16.9711  -29.7702  -44.8304 C.ar      10 UNK        -0.0863 
     10 C10        18.2425  -30.3418  -44.9485 C.ar      10 UNK        -0.1009 
     11 C11        19.1059  -30.4176  -43.8510 C.ar      10 UNK        -0.0712 
     12 C12        18.6762  -29.9106  -42.6176 C.ar      10 UNK        -0.0894 
     13 C13        17.4177  -29.3217  -42.4874 C.ar      10 UNK        -0.0745 
     14 C14        16.5555  -29.2845  -43.5860 C.ar      10 UNK        -0.0972 
     15 C15        17.0132  -28.6771  -41.1719 C.3       10 UNK         0.0209 
     16 S16        17.3346  -26.8828  -41.1966 S.3       10 UNK        -0.2568 
     17 C17        19.1590  -26.7856  -41.0689 C.3       10 UNK        -0.0983 
     18 CA         19.8820  -26.5658  -42.4312 C.3       3 UNK         0.0876 
     19 N          19.3075  -25.4728  -43.2292 N.am      3 UNK        -0.4424 
     20 C          19.3203  -24.1584  -42.9609 C.2       2 UNK         0.4918 
     21 O          19.8858  -23.6637  -41.9857 O.2       2 UNK        -0.4875 
     22 CA         18.5570  -23.2275  -43.9276 C.3       2 UNK         0.0481 
     23 CB         19.5162  -22.2770  -44.6724 C.3       2 UNK        -0.1831 
     24 N          17.6461  -23.9289  -44.8467 N.am      2 UNK        -0.4498 
     25 C          17.9273  -24.6888  -45.9149 C.2       1 UNK         0.5027 
     26 O          19.0602  -24.8306  -46.3740 O.2       1 UNK        -0.4969 
     27 C          21.4189  -26.4459  -42.2795 C.2       3 UNK         0.5005 
     28 O          21.9754  -26.8633  -41.2622 O.2       3 UNK        -0.5279 
     29 N          22.0784  -25.8617  -43.2933 N.am      4 UNK        -0.4463 
     30 CA         23.4752  -25.4104  -43.2696 C.3       4 UNK         0.0283 
     31 CB         23.7834  -24.6666  -44.5792 C.3       4 UNK        -0.1875 
     32 C          24.5280  -26.5034  -43.0149 C.2       4 UNK         0.4949 
     33 O          25.5925  -26.1918  -42.4806 O.2       4 UNK        -0.5039 
     34 N          24.2235  -27.7538  -43.3876 N.am      5 UNK        -0.4663 
     35 CA         25.0889  -28.9142  -43.1487 C.3       5 UNK         0.0242 
     36 CB         24.7855  -29.9980  -44.1957 C.3       5 UNK        -0.1982 
     37 C          25.0182  -29.4525  -41.7029 C.2       5 UNK         0.5017 
     38 O          25.8563  -30.2795  -41.3386 O.2       5 UNK        -0.5012 
     39 N          24.0619  -28.9550  -40.9004 N.am      6 UNK        -0.4439 
     40 CA         23.9007  -29.1629  -39.4580 C.3       6 UNK         0.0297 
     41 CB         24.9401  -28.3122  -38.6935 C.3       6 UNK        -0.2006 
     42 C          23.8871  -30.6498  -39.0523 C.2       6 UNK         0.4892 
     43 O          22.9408  -31.3591  -39.3918 O.2       6 UNK        -0.5089 
     44 N          24.9283  -31.0983  -38.3377 N.am      7 UNK        -0.4243 
     45 CA         25.0861  -32.4613  -37.8226 C.3       7 UNK         0.0196 
     46 CB         26.3157  -32.5055  -36.9003 C.3       7 UNK        -0.2007 
     47 C          25.1872  -33.5525  -38.9048 C.2       7 UNK         0.5020 
     48 O          24.9495  -34.7196  -38.5928 O.2       7 UNK        -0.5147 
     49 N          25.5332  -33.1768  -40.1444 N.am      8 UNK        -0.4734 
     50 CA         25.5958  -34.0950  -41.2846 C.3       8 UNK         0.0238 
     51 CB         26.5473  -33.5205  -42.3456 C.3       8 UNK        -0.1912 
     52 C          24.2165  -34.4095  -41.8955 C.2       8 UNK         0.5038 
     53 O          24.1225  -35.3603  -42.6735 O.2       8 UNK        -0.5046 
     54 N          23.1836  -33.6225  -41.5613 N.am      9 UNK        -0.4200 
     55 CA         21.8008  -33.8249  -42.0200 C.3       9 UNK         0.0839 
     56 C          21.1519  -35.0900  -41.3976 C.2       9 UNK         0.5513 
     57 N          20.3134  -35.7894  -42.1501 N.am      9 UNK        -0.7519 
     58 O          21.3647  -35.4168  -40.2318 O.2       9 UNK        -0.4960 
     59 C59        20.9180  -32.5780  -41.7620 C.3       10 UNK        -0.0876 
     60 S60        21.5709  -31.0934  -42.5947 S.3       10 UNK        -0.2414 
     61 C61        20.5007  -31.0084  -44.0699 C.3       10 UNK         0.0169 
     62 H62        13.2691  -23.6162  -47.1132 H         1 UNK         0.0903 
     63 H63        12.5222  -24.2378  -45.6405 H         1 UNK         0.0903 
     64 H64        13.3443  -22.6753  -45.6216 H         1 UNK         0.0903 
     65 H65        15.1974  -24.5861  -47.5639 H         1 UNK         0.3096 
     66 H66        17.0498  -25.7246  -47.5494 H         1 UNK         0.1121 
     67 H67        17.6324  -27.3843  -45.8648 H         1 UNK         0.0849 
     68 H68        16.5343  -26.6950  -44.6959 H         1 UNK         0.0849 
     69 H69        16.6405  -29.9069  -46.9653 H         1 UNK         0.0865 
     70 H70        15.2721  -30.3789  -45.9927 H         1 UNK         0.0865 
     71 H71        18.5745  -30.7141  -45.9085 H         1 UNK         0.1346 
     72 H72        19.3265  -29.9278  -41.7556 H         1 UNK         0.1412 
     73 H73        15.5819  -28.8236  -43.4869 H         1 UNK         0.1426 
     74 H74        17.5366  -29.1370  -40.3322 H         1 UNK         0.0716 
     75 H75        15.9492  -28.8423  -40.9959 H         1 UNK         0.0716 
     76 H76        19.5269  -27.6906  -40.5823 H         1 UNK         0.0695 
     77 H77        19.3932  -25.9659  -40.3874 H         1 UNK         0.0695 
     78 H78        19.7316  -27.4633  -43.0299 H         1 UNK         0.0983 
     79 H79        18.8200  -25.7601  -44.0632 H         1 UNK         0.3095 
     80 H80        17.9102  -22.6109  -43.3019 H         1 UNK         0.0454 
     81 H81        18.9751  -21.6137  -45.3469 H         1 UNK         0.0851 
     82 H82        20.2614  -22.8175  -45.2561 H         1 UNK         0.0851 
     83 H83        20.0601  -21.6472  -43.9673 H         1 UNK         0.0851 
     84 H84        16.6728  -23.9585  -44.5444 H         1 UNK         0.2976 
     85 H85        21.5336  -25.5732  -44.0934 H         1 UNK         0.3116 
     86 H86        23.5605  -24.6947  -42.4491 H         1 UNK         0.0646 
     87 H87        24.8070  -24.2891  -44.5831 H         1 UNK         0.0847 
     88 H88        23.1253  -23.8080  -44.7148 H         1 UNK         0.0847 
     89 H89        23.6736  -25.3167  -45.4482 H         1 UNK         0.0847 
     90 H90        23.3262  -27.9255  -43.8179 H         1 UNK         0.3040 
     91 H91        26.1258  -28.6050  -43.3005 H         1 UNK         0.1015 
     92 H92        24.9859  -29.6345  -45.2036 H         1 UNK         0.0786 
     93 H93        23.7482  -30.3226  -44.1643 H         1 UNK         0.0786 
     94 H94        25.4099  -30.8777  -44.0466 H         1 UNK         0.0786 
     95 H95        23.4033  -28.2938  -41.3015 H         1 UNK         0.3172 
     96 H96        22.9125  -28.7750  -39.2063 H         1 UNK         0.0595 
     97 H97        25.9655  -28.5874  -38.9437 H         1 UNK         0.0839 
     98 H98        24.8177  -28.4091  -37.6137 H         1 UNK         0.0839 
     99 H99        24.8218  -27.2545  -38.9304 H         1 UNK         0.0839 
    100 H100       25.6737  -30.4492  -38.1318 H         1 UNK         0.2998 
    101 H101       24.2011  -32.6885  -37.2245 H         1 UNK         0.0822 
    102 H102       27.2323  -32.2618  -37.4392 H         1 UNK         0.0787 
    103 H103       26.2161  -31.8061  -36.0699 H         1 UNK         0.0787 
    104 H104       26.4459  -33.4993  -36.4692 H         1 UNK         0.0787 
    105 H105       25.7000  -32.1938  -40.3355 H         1 UNK         0.3055 
    106 H106       26.0135  -35.0456  -40.9446 H         1 UNK         0.1106 
    107 H107       26.1874  -32.5695  -42.7334 H         1 UNK         0.0828 
    108 H108       26.6479  -34.2010  -43.1923 H         1 UNK         0.0828 
    109 H109       27.5458  -33.3602  -41.9389 H         1 UNK         0.0828 
    110 H110       23.3224  -32.8752  -40.8916 H         1 UNK         0.2931 
    111 H111       21.8450  -33.9750  -43.1011 H         1 UNK         0.0412 
    112 H112       20.1252  -35.5259  -43.1051 H         1 UNK         0.3472 
    113 H113       19.8684  -36.6057  -41.7596 H         1 UNK         0.3472 
    114 H114       19.8937  -32.7530  -42.0969 H         1 UNK         0.0970 
    115 H115       20.8507  -32.3709  -40.6926 H         1 UNK         0.0970 
    116 H116       21.0150  -30.3987  -44.8139 H         1 UNK         0.0612 
    117 H117       20.4105  -32.0071  -44.4997 H         1 UNK         0.0612 
@<TRIPOS>BOND
     1    1    2 1    
     2    1   62 1    
     3    1   63 1    
     4    1   64 1    
     5    2    3 2    
     6    2    4 am   BACKBONE|DICT|INTERRES
     7    4    5 1    
     8    4   65 1    
     9    5    6 1    
    10    5   25 1    
    11    5   66 1    
    12    6    7 1    
    13    6   67 1    
    14    6   68 1    
    15    7    8 1    
    16    8    9 1    
    17    8   69 1    
    18    8   70 1    
    19    9   10 ar   
    20    9   14 ar   
    21   10   11 ar   
    22   10   71 1    
    23   11   12 ar   
    24   11   61 1    
    25   12   13 ar   
    26   12   72 1    
    27   13   14 ar   
    28   13   15 1    
    29   14   73 1    
    30   15   16 1    
    31   15   74 1    
    32   15   75 1    
    33   16   17 1    
    34   17   18 1    
    35   17   76 1    
    36   17   77 1    
    37   18   19 1    
    38   18   27 1    
    39   18   78 1    
    40   19   20 am   BACKBONE|DICT|INTERRES
    41   19   79 1    
    42   20   21 2    
    43   20   22 1    
    44   22   23 1    
    45   22   24 1    
    46   22   80 1    
    47   23   81 1    
    48   23   82 1    
    49   23   83 1    
    50   24   25 am   BACKBONE|DICT|INTERRES
    51   24   84 1    
    52   25   26 2    
    53   27   28 2    
    54   27   29 am   BACKBONE|DICT|INTERRES
    55   29   30 1    
    56   29   85 1    
    57   30   31 1    
    58   30   32 1    
    59   30   86 1    
    60   31   87 1    
    61   31   88 1    
    62   31   89 1    
    63   32   33 2    
    64   32   34 am   BACKBONE|DICT|INTERRES
    65   34   35 1    
    66   34   90 1    
    67   35   36 1    
    68   35   37 1    
    69   35   91 1    
    70   36   92 1    
    71   36   93 1    
    72   36   94 1    
    73   37   38 2    
    74   37   39 am   BACKBONE|DICT|INTERRES
    75   39   40 1    
    76   39   95 1    
    77   40   41 1    
    78   40   42 1    
    79   40   96 1    
    80   41   97 1    
    81   41   98 1    
    82   41   99 1    
    83   42   43 2    
    84   42   44 am   BACKBONE|DICT|INTERRES
    85   44   45 1    
    86   44  100 1    
    87   45   46 1    
    88   45   47 1    
    89   45  101 1    
    90   46  102 1    
    91   46  103 1    
    92   46  104 1    
    93   47   48 2    
    94   47   49 am   BACKBONE|DICT|INTERRES
    95   49   50 1    
    96   49  105 1    
    97   50   51 1    
    98   50   52 1    
    99   50  106 1    
   100   51  107 1    
   101   51  108 1    
   102   51  109 1    
   103   52   53 2    
   104   52   54 am   BACKBONE|DICT|INTERRES
   105   54   55 1    
   106   54  110 1    
   107   55   56 1    
   108   55   59 1    
   109   55  111 1    
   110   56   57 am   BACKBONE|DICT|INTERRES
   111   56   58 2    
   112   57  112 1    
   113   57  113 1    
   114   59   60 1    
   115   59  114 1    
   116   59  115 1    
   117   60   61 1    
   118   61  116 1    
   119   61  117 1    
@<TRIPOS>SUBSTRUCTURE
     1 UNK         1 GROUP             0       ****    0 ROOT    
