@<TRIPOS>MOLECULE
3R8
117   119    1
SMALL
USER_CHARGES


@<TRIPOS>ATOM
      1 CA         15.3662  -23.7404  -42.8084 C.3       0 UNK        -0.2013 
      2 C          16.1875  -24.9807  -43.1258 C.2       0 UNK         0.4866 
      3 O          17.1421  -24.9021  -43.8996 O.2       0 UNK        -0.5176 
      4 N          15.8283  -26.1262  -42.5329 N.am      1 UNK        -0.4884 
      5 CA         16.5028  -27.4180  -42.7048 C.3       1 UNK         0.0853 
      6 C6         15.5563  -28.6048  -42.3932 C.3       10 UNK        -0.0849 
      7 S7         14.3385  -28.8167  -43.7342 S.3       10 UNK        -0.2776 
      8 C8         15.0285  -30.2413  -44.6439 C.3       10 UNK         0.0316 
      9 C9         16.4885  -30.0457  -45.0412 C.ar      10 UNK        -0.0863 
     10 C10        17.4887  -30.8161  -44.4373 C.ar      10 UNK        -0.1009 
     11 C11        18.8261  -30.6574  -44.8096 C.ar      10 UNK        -0.0712 
     12 C12        19.1597  -29.7281  -45.7950 C.ar      10 UNK        -0.0894 
     13 C13        18.1777  -28.9322  -46.3895 C.ar      10 UNK        -0.0745 
     14 C14        16.8400  -29.1034  -46.0149 C.ar      10 UNK        -0.0972 
     15 C15        18.5581  -27.9076  -47.4505 C.3       10 UNK         0.0209 
     16 S16        19.2913  -26.4015  -46.7278 S.3       10 UNK        -0.2568 
     17 C17        21.0703  -26.8202  -46.6684 C.3       10 UNK        -0.0983 
     18 CA         21.7782  -26.3365  -45.3705 C.3       3 UNK         0.0876 
     19 N          21.0878  -26.7717  -44.1511 N.am      3 UNK        -0.4424 
     20 C          21.0414  -26.0774  -43.0056 C.2       2 UNK         0.4918 
     21 O          21.5678  -24.9756  -42.8401 O.2       2 UNK        -0.4875 
     22 CA         20.1877  -26.6922  -41.8911 C.3       2 UNK         0.0481 
     23 CB         20.2724  -25.9185  -40.5593 C.3       2 UNK        -0.1831 
     24 N          18.8164  -26.7444  -42.3830 N.am      2 UNK        -0.4498 
     25 C          17.8088  -27.4687  -41.8903 C.2       1 UNK         0.5027 
     26 O          17.8718  -28.1327  -40.8548 O.2       1 UNK        -0.4969 
     27 C          23.2781  -26.7131  -45.2940 C.2       3 UNK         0.5005 
     28 O          23.9121  -26.4725  -44.2657 O.2       3 UNK        -0.5279 
     29 N          23.8400  -27.2988  -46.3635 N.am      4 UNK        -0.4463 
     30 CA         25.2626  -27.6479  -46.4930 C.3       4 UNK         0.0283 
     31 CB         25.5196  -28.2178  -47.8975 C.3       4 UNK        -0.1875 
     32 C          25.7984  -28.6146  -45.4185 C.2       4 UNK         0.4949 
     33 O          26.9761  -28.5304  -45.0701 O.2       4 UNK        -0.5039 
     34 N          24.9316  -29.4979  -44.9044 N.am      5 UNK        -0.4663 
     35 CA         25.2454  -30.4265  -43.8130 C.3       5 UNK         0.0242 
     36 CB         24.4056  -31.7021  -43.9875 C.3       5 UNK        -0.1982 
     37 C          25.0605  -29.8081  -42.4108 C.2       5 UNK         0.5017 
     38 O          25.4431  -30.4452  -41.4278 O.2       5 UNK        -0.5012 
     39 N          24.5082  -28.5858  -42.3362 N.am      6 UNK        -0.4439 
     40 CA         24.3225  -27.7568  -41.1416 C.3       6 UNK         0.0297 
     41 CB         25.6742  -27.1300  -40.7303 C.3       6 UNK        -0.2006 
     42 C          23.5920  -28.4940  -40.0013 C.2       6 UNK         0.4892 
     43 O          22.4553  -28.9256  -40.1919 O.2       6 UNK        -0.5089 
     44 N          24.2517  -28.6300  -38.8431 N.am      7 UNK        -0.4243 
     45 CA         23.7269  -29.2469  -37.6218 C.3       7 UNK         0.0196 
     46 CB         24.7250  -29.0034  -36.4772 C.3       7 UNK        -0.2007 
     47 C          23.3948  -30.7470  -37.7369 C.2       7 UNK         0.5020 
     48 O          22.7001  -31.2654  -36.8626 O.2       7 UNK        -0.5147 
     49 N          23.8807  -31.4257  -38.7869 N.am      8 UNK        -0.4734 
     50 CA         23.5586  -32.8281  -39.0662 C.3       8 UNK         0.0238 
     51 CB         24.6144  -33.4177  -40.0138 C.3       8 UNK        -0.1912 
     52 C          22.1411  -33.0275  -39.6366 C.2       8 UNK         0.5038 
     53 O          21.6444  -34.1544  -39.5963 O.2       8 UNK        -0.5046 
     54 N          21.5183  -31.9608  -40.1585 N.am      9 UNK        -0.4200 
     55 CA         20.1344  -31.9681  -40.6544 C.3       9 UNK         0.0839 
     56 C          19.0989  -32.1539  -39.5128 C.2       9 UNK         0.5513 
     57 N          18.0179  -32.8779  -39.7700 N.am      9 UNK        -0.7519 
     58 O          19.2443  -31.6178  -38.4164 O.2       9 UNK        -0.4960 
     59 C59        19.8106  -30.6950  -41.4737 C.3       10 UNK        -0.0876 
     60 S60        20.8657  -30.5252  -42.9490 S.3       10 UNK        -0.2414 
     61 C61        19.9235  -31.4913  -44.1691 C.3       10 UNK         0.0169 
     62 H62        14.9356  -23.3326  -43.7226 H         1 UNK         0.0903 
     63 H63        14.5518  -23.9554  -42.1167 H         1 UNK         0.0903 
     64 H64        16.0000  -22.9760  -42.3598 H         1 UNK         0.0903 
     65 H65        15.0430  -26.1287  -41.8974 H         1 UNK         0.3096 
     66 H66        16.8059  -27.5045  -43.7504 H         1 UNK         0.1121 
     67 H67        15.0303  -28.4470  -41.4501 H         1 UNK         0.0849 
     68 H68        16.1092  -29.5377  -42.2697 H         1 UNK         0.0849 
     69 H69        14.4323  -30.4090  -45.5420 H         1 UNK         0.0865 
     70 H70        14.9119  -31.1384  -44.0336 H         1 UNK         0.0865 
     71 H71        17.2270  -31.5440  -43.6815 H         1 UNK         0.1346 
     72 H72        20.1928  -29.6336  -46.0903 H         1 UNK         0.1412 
     73 H73        16.0691  -28.5003  -46.4756 H         1 UNK         0.1426 
     74 H74        17.6740  -27.6167  -48.0197 H         1 UNK         0.0716 
     75 H75        19.2451  -28.3509  -48.1730 H         1 UNK         0.0716 
     76 H76        21.5288  -26.3510  -47.5409 H         1 UNK         0.0695 
     77 H77        21.1995  -27.8920  -46.8035 H         1 UNK         0.0695 
     78 H78        21.7561  -25.2446  -45.3965 H         1 UNK         0.0983 
     79 H79        20.6143  -27.6622  -44.1969 H         1 UNK         0.3095 
     80 H80        20.5468  -27.7084  -41.7284 H         1 UNK         0.0454 
     81 H81        19.8790  -24.9060  -40.6554 H         1 UNK         0.0851 
     82 H82        21.3067  -25.8405  -40.2221 H         1 UNK         0.0851 
     83 H83        19.7167  -26.4218  -39.7685 H         1 UNK         0.0851 
     84 H84        18.6188  -26.1664  -43.1960 H         1 UNK         0.2976 
     85 H85        23.2639  -27.4701  -47.1750 H         1 UNK         0.3116 
     86 H86        25.8299  -26.7197  -46.3968 H         1 UNK         0.0646 
     87 H87        24.9500  -29.1312  -48.0741 H         1 UNK         0.0847 
     88 H88        26.5744  -28.4620  -48.0327 H         1 UNK         0.0847 
     89 H89        25.2557  -27.4998  -48.6742 H         1 UNK         0.0847 
     90 H90        23.9842  -29.5038  -45.2537 H         1 UNK         0.3040 
     91 H91        26.2964  -30.7155  -43.8858 H         1 UNK         0.1015 
     92 H92        24.5862  -32.1636  -44.9584 H         1 UNK         0.0786 
     93 H93        23.3394  -31.5016  -43.9079 H         1 UNK         0.0786 
     94 H94        24.6575  -32.4449  -43.2315 H         1 UNK         0.0786 
     95 H95        24.2508  -28.1259  -43.2037 H         1 UNK         0.3172 
     96 H96        23.6622  -26.9411  -41.4393 H         1 UNK         0.0595 
     97 H97        26.4115  -27.8840  -40.4515 H         1 UNK         0.0839 
     98 H98        25.5574  -26.4421  -39.8916 H         1 UNK         0.0839 
     99 H99        26.0963  -26.5518  -41.5527 H         1 UNK         0.0839 
    100 H100       25.1935  -28.2695  -38.7933 H         1 UNK         0.2998 
    101 H101       22.7931  -28.7368  -37.3756 H         1 UNK         0.0822 
    102 H102       24.8951  -27.9386  -36.3166 H         1 UNK         0.0787 
    103 H103       24.3517  -29.4135  -35.5376 H         1 UNK         0.0787 
    104 H104       25.6890  -29.4732  -36.6770 H         1 UNK         0.0787 
    105 H105       24.4381  -30.9355  -39.4781 H         1 UNK         0.3055 
    106 H106       23.6050  -33.3845  -38.1270 H         1 UNK         0.1106 
    107 H107       24.4403  -34.4819  -40.1789 H         1 UNK         0.0828 
    108 H108       25.6201  -33.3128  -39.6064 H         1 UNK         0.0828 
    109 H109       24.5936  -32.9313  -40.9872 H         1 UNK         0.0828 
    110 H110       21.9781  -31.0581  -40.1395 H         1 UNK         0.2931 
    111 H111       20.0430  -32.8256  -41.3243 H         1 UNK         0.0412 
    112 H112       17.8872  -33.3229  -40.6651 H         1 UNK         0.3472 
    113 H113       17.3260  -32.9981  -39.0465 H         1 UNK         0.3472 
    114 H114       18.7647  -30.6819  -41.7845 H         1 UNK         0.0970 
    115 H115       19.9481  -29.8104  -40.8503 H         1 UNK         0.0970 
    116 H116       20.6101  -31.8393  -44.9422 H         1 UNK         0.0612 
    117 H117       19.5132  -32.3877  -43.7021 H         1 UNK         0.0612 
@<TRIPOS>BOND
     1    1    2 1    
     2    1   62 1    
     3    1   63 1    
     4    1   64 1    
     5    2    3 2    
     6    2    4 am   BACKBONE|DICT|INTERRES
     7    4    5 1    
     8    4   65 1    
     9    5    6 1    
    10    5   25 1    
    11    5   66 1    
    12    6    7 1    
    13    6   67 1    
    14    6   68 1    
    15    7    8 1    
    16    8    9 1    
    17    8   69 1    
    18    8   70 1    
    19    9   10 ar   
    20    9   14 ar   
    21   10   11 ar   
    22   10   71 1    
    23   11   12 ar   
    24   11   61 1    
    25   12   13 ar   
    26   12   72 1    
    27   13   14 ar   
    28   13   15 1    
    29   14   73 1    
    30   15   16 1    
    31   15   74 1    
    32   15   75 1    
    33   16   17 1    
    34   17   18 1    
    35   17   76 1    
    36   17   77 1    
    37   18   19 1    
    38   18   27 1    
    39   18   78 1    
    40   19   20 am   BACKBONE|DICT|INTERRES
    41   19   79 1    
    42   20   21 2    
    43   20   22 1    
    44   22   23 1    
    45   22   24 1    
    46   22   80 1    
    47   23   81 1    
    48   23   82 1    
    49   23   83 1    
    50   24   25 am   BACKBONE|DICT|INTERRES
    51   24   84 1    
    52   25   26 2    
    53   27   28 2    
    54   27   29 am   BACKBONE|DICT|INTERRES
    55   29   30 1    
    56   29   85 1    
    57   30   31 1    
    58   30   32 1    
    59   30   86 1    
    60   31   87 1    
    61   31   88 1    
    62   31   89 1    
    63   32   33 2    
    64   32   34 am   BACKBONE|DICT|INTERRES
    65   34   35 1    
    66   34   90 1    
    67   35   36 1    
    68   35   37 1    
    69   35   91 1    
    70   36   92 1    
    71   36   93 1    
    72   36   94 1    
    73   37   38 2    
    74   37   39 am   BACKBONE|DICT|INTERRES
    75   39   40 1    
    76   39   95 1    
    77   40   41 1    
    78   40   42 1    
    79   40   96 1    
    80   41   97 1    
    81   41   98 1    
    82   41   99 1    
    83   42   43 2    
    84   42   44 am   BACKBONE|DICT|INTERRES
    85   44   45 1    
    86   44  100 1    
    87   45   46 1    
    88   45   47 1    
    89   45  101 1    
    90   46  102 1    
    91   46  103 1    
    92   46  104 1    
    93   47   48 2    
    94   47   49 am   BACKBONE|DICT|INTERRES
    95   49   50 1    
    96   49  105 1    
    97   50   51 1    
    98   50   52 1    
    99   50  106 1    
   100   51  107 1    
   101   51  108 1    
   102   51  109 1    
   103   52   53 2    
   104   52   54 am   BACKBONE|DICT|INTERRES
   105   54   55 1    
   106   54  110 1    
   107   55   56 1    
   108   55   59 1    
   109   55  111 1    
   110   56   57 am   BACKBONE|DICT|INTERRES
   111   56   58 2    
   112   57  112 1    
   113   57  113 1    
   114   59   60 1    
   115   59  114 1    
   116   59  115 1    
   117   60   61 1    
   118   61  116 1    
   119   61  117 1    
@<TRIPOS>SUBSTRUCTURE
     1 UNK         1 GROUP             0       ****    0 ROOT    
