@<TRIPOS>MOLECULE
3R8
117   119    1
SMALL
USER_CHARGES


@<TRIPOS>ATOM
      1 CA         21.7266  -22.8231  -43.2572 C.3       0 UNK        -0.2013 
      2 C          21.5293  -23.1077  -44.7442 C.2       0 UNK         0.4866 
      3 O          21.4958  -22.1700  -45.5382 O.2       0 UNK        -0.5176 
      4 N          21.4078  -24.3711  -45.1769 N.am      1 UNK        -0.4884 
      5 CA         21.3559  -25.5917  -44.3623 C.3       1 UNK         0.0853 
      6 C6         21.6420  -26.8622  -45.2048 C.3       10 UNK        -0.0849 
      7 S7         20.5991  -27.0198  -46.6983 S.3       10 UNK        -0.2776 
      8 C8         21.0393  -28.6907  -47.2736 C.3       10 UNK         0.0316 
      9 C9         20.3355  -29.7638  -46.4574 C.ar      10 UNK        -0.0863 
     10 C10        21.0371  -30.5169  -45.5114 C.ar      10 UNK        -0.1009 
     11 C11        20.3766  -31.4855  -44.7489 C.ar      10 UNK        -0.0712 
     12 C12        19.0104  -31.7087  -44.9459 C.ar      10 UNK        -0.0894 
     13 C13        18.2965  -30.9452  -45.8741 C.ar      10 UNK        -0.0745 
     14 C14        18.9686  -29.9893  -46.6405 C.ar      10 UNK        -0.0972 
     15 C15        16.7896  -31.1028  -46.0084 C.3       10 UNK         0.0209 
     16 S16        15.9113  -29.6443  -45.3523 S.3       10 UNK        -0.2568 
     17 C17        16.2134  -29.7785  -43.5545 C.3       10 UNK        -0.0983 
     18 CA         17.5262  -29.0916  -43.0774 C.3       3 UNK         0.0876 
     19 N          17.6808  -27.7101  -43.5393 N.am      3 UNK        -0.4424 
     20 C          17.0191  -26.6244  -43.1192 C.2       2 UNK         0.4918 
     21 O          16.0548  -26.6631  -42.3541 O.2       2 UNK        -0.4875 
     22 CA         17.5526  -25.2567  -43.6105 C.3       2 UNK         0.0481 
     23 CB         17.4682  -24.1878  -42.5008 C.3       2 UNK        -0.1831 
     24 N          18.9160  -25.2805  -44.1736 N.am      2 UNK        -0.4498 
     25 C          20.0360  -25.7228  -43.5774 C.2       1 UNK         0.5027 
     26 O          20.0532  -26.2258  -42.4544 O.2       1 UNK        -0.4969 
     27 C          17.7812  -29.2599  -41.5589 C.2       3 UNK         0.5005 
     28 O          17.1596  -30.1204  -40.9313 O.2       3 UNK        -0.5279 
     29 N          18.6852  -28.4479  -40.9868 N.am      4 UNK        -0.4463 
     30 CA         18.9903  -28.4460  -39.5509 C.3       4 UNK         0.0283 
     31 CB         17.9839  -27.5476  -38.8088 C.3       4 UNK        -0.1875 
     32 C          20.4297  -28.0206  -39.2227 C.2       4 UNK         0.4949 
     33 O          20.9620  -28.4710  -38.2082 O.2       4 UNK        -0.5039 
     34 N          21.0321  -27.1659  -40.0553 N.am      5 UNK        -0.4663 
     35 CA         22.3757  -26.6143  -39.8901 C.3       5 UNK         0.0242 
     36 CB         22.2555  -25.0776  -39.8665 C.3       5 UNK        -0.1982 
     37 C          23.2929  -27.1018  -41.0247 C.2       5 UNK         0.5017 
     38 O          22.9204  -28.0078  -41.7771 O.2       5 UNK        -0.5012 
     39 N          24.4864  -26.4958  -41.1193 N.am      6 UNK        -0.4439 
     40 CA         25.5683  -26.7977  -42.0638 C.3       6 UNK         0.0297 
     41 CB         25.1508  -26.4750  -43.5165 C.3       6 UNK        -0.2006 
     42 C          26.0818  -28.2340  -41.8643 C.2       6 UNK         0.4892 
     43 O          26.8644  -28.4647  -40.9418 O.2       6 UNK        -0.5089 
     44 N          25.6097  -29.1704  -42.6982 N.am      7 UNK        -0.4243 
     45 CA         25.8510  -30.6079  -42.5593 C.3       7 UNK         0.0196 
     46 CB         25.3964  -31.3241  -43.8420 C.3       7 UNK        -0.2007 
     47 C          25.1567  -31.2188  -41.3281 C.2       7 UNK         0.5020 
     48 O          25.6552  -32.2108  -40.7971 O.2       7 UNK        -0.5147 
     49 N          24.0246  -30.6268  -40.9076 N.am      8 UNK        -0.4734 
     50 CA         23.2030  -30.9977  -39.7434 C.3       8 UNK         0.0238 
     51 CB         23.9525  -30.6814  -38.4328 C.3       8 UNK        -0.1912 
     52 C          22.6614  -32.4431  -39.7881 C.2       8 UNK         0.5038 
     53 O          22.4395  -33.0551  -38.7424 O.2       8 UNK        -0.5046 
     54 N          22.4601  -32.9541  -41.0079 N.am      9 UNK        -0.4200 
     55 CA         21.9869  -34.3077  -41.3293 C.3       9 UNK         0.0839 
     56 C          20.4996  -34.6267  -40.9900 C.2       9 UNK         0.5513 
     57 N          19.7060  -33.6828  -40.4988 N.am      9 UNK        -0.7519 
     58 O          20.0618  -35.7611  -41.1639 O.2       9 UNK        -0.4960 
     59 C59        22.3859  -34.7224  -42.7755 C.3       10 UNK        -0.0876 
     60 S60        21.5287  -33.9403  -44.2004 S.3       10 UNK        -0.2414 
     61 C61        21.1187  -32.2503  -43.6678 C.3       10 UNK         0.0169 
     62 H62        21.9127  -21.7614  -43.0964 H         1 UNK         0.0903 
     63 H63        20.8395  -23.0901  -42.6843 H         1 UNK         0.0903 
     64 H64        22.5844  -23.3664  -42.8630 H         1 UNK         0.0903 
     65 H65        21.2960  -24.5287  -46.1695 H         1 UNK         0.3096 
     66 H66        22.1477  -25.5313  -43.6133 H         1 UNK         0.1121 
     67 H67        22.6798  -26.8439  -45.5397 H         1 UNK         0.0849 
     68 H68        21.5461  -27.7606  -44.5908 H         1 UNK         0.0849 
     69 H69        22.1225  -28.8196  -47.2441 H         1 UNK         0.0865 
     70 H70        20.7503  -28.7905  -48.3210 H         1 UNK         0.0865 
     71 H71        22.0921  -30.3373  -45.3563 H         1 UNK         0.1346 
     72 H72        18.4968  -32.4448  -44.3420 H         1 UNK         0.1412 
     73 H73        18.4172  -29.3910  -47.3535 H         1 UNK         0.1426 
     74 H74        16.4387  -32.0019  -45.4995 H         1 UNK         0.0716 
     75 H75        16.5345  -31.2257  -47.0618 H         1 UNK         0.0716 
     76 H76        16.2143  -30.8367  -43.2869 H         1 UNK         0.0695 
     77 H77        15.3562  -29.3389  -43.0418 H         1 UNK         0.0695 
     78 H78        18.3614  -29.6168  -43.5310 H         1 UNK         0.0983 
     79 H79        18.4334  -27.5605  -44.1951 H         1 UNK         0.3095 
     80 H80        16.8931  -24.9487  -44.4228 H         1 UNK         0.0454 
     81 H81        17.8223  -23.2194  -42.8538 H         1 UNK         0.0851 
     82 H82        18.0613  -24.4642  -41.6282 H         1 UNK         0.0851 
     83 H83        16.4403  -24.0492  -42.1635 H         1 UNK         0.0851 
     84 H84        19.0080  -24.9126  -45.1111 H         1 UNK         0.2976 
     85 H85        19.1582  -27.7597  -41.5637 H         1 UNK         0.3116 
     86 H86        18.8863  -29.4638  -39.1681 H         1 UNK         0.0646 
     87 H87        18.1974  -27.5175  -37.7394 H         1 UNK         0.0847 
     88 H88        16.9636  -27.9138  -38.9236 H         1 UNK         0.0847 
     89 H89        18.0144  -26.5220  -39.1789 H         1 UNK         0.0847 
     90 H90        20.5645  -26.8669  -40.9081 H         1 UNK         0.3040 
     91 H91        22.8168  -26.9497  -38.9489 H         1 UNK         0.1015 
     92 H92        21.5553  -24.7521  -39.0967 H         1 UNK         0.0786 
     93 H93        21.8989  -24.6878  -40.8201 H         1 UNK         0.0786 
     94 H94        23.2088  -24.5965  -39.6465 H         1 UNK         0.0786 
     95 H95        24.7098  -25.7920  -40.4292 H         1 UNK         0.3172 
     96 H96        26.3968  -26.1347  -41.8093 H         1 UNK         0.0595 
     97 H97        24.2970  -27.0643  -43.8463 H         1 UNK         0.0839 
     98 H98        25.9706  -26.6684  -44.2098 H         1 UNK         0.0839 
     99 H99        24.8849  -25.4233  -43.6223 H         1 UNK         0.0839 
    100 H100       24.9494  -28.8836  -43.4058 H         1 UNK         0.2998 
    101 H101       26.9257  -30.7625  -42.4408 H         1 UNK         0.0822 
    102 H102       24.3362  -31.1679  -44.0416 H         1 UNK         0.0787 
    103 H103       25.9554  -30.9733  -44.7098 H         1 UNK         0.0787 
    104 H104       25.5593  -32.4004  -43.7679 H         1 UNK         0.0787 
    105 H105       23.7068  -29.8021  -41.4111 H         1 UNK         0.3055 
    106 H106       22.3236  -30.3536  -39.7787 H         1 UNK         0.1106 
    107 H107       23.3018  -30.8144  -37.5676 H         1 UNK         0.0828 
    108 H108       24.8177  -31.3304  -38.2947 H         1 UNK         0.0828 
    109 H109       24.3000  -29.6484  -38.4162 H         1 UNK         0.0828 
    110 H110       22.6899  -32.3720  -41.7972 H         1 UNK         0.2931 
    111 H111       22.5535  -34.9676  -40.6692 H         1 UNK         0.0412 
    112 H112       20.0598  -32.7599  -40.3115 H         1 UNK         0.3472 
    113 H113       18.7490  -33.9105  -40.2793 H         1 UNK         0.3472 
    114 H114       23.4564  -34.5588  -42.9099 H         1 UNK         0.0970 
    115 H115       22.2575  -35.8009  -42.8841 H         1 UNK         0.0970 
    116 H116       22.0332  -31.7210  -43.3998 H         1 UNK         0.0612 
    117 H117       20.4910  -32.2782  -42.7781 H         1 UNK         0.0612 
@<TRIPOS>BOND
     1    1    2 1    
     2    1   62 1    
     3    1   63 1    
     4    1   64 1    
     5    2    3 2    
     6    2    4 am   BACKBONE|DICT|INTERRES
     7    4    5 1    
     8    4   65 1    
     9    5    6 1    
    10    5   25 1    
    11    5   66 1    
    12    6    7 1    
    13    6   67 1    
    14    6   68 1    
    15    7    8 1    
    16    8    9 1    
    17    8   69 1    
    18    8   70 1    
    19    9   10 ar   
    20    9   14 ar   
    21   10   11 ar   
    22   10   71 1    
    23   11   12 ar   
    24   11   61 1    
    25   12   13 ar   
    26   12   72 1    
    27   13   14 ar   
    28   13   15 1    
    29   14   73 1    
    30   15   16 1    
    31   15   74 1    
    32   15   75 1    
    33   16   17 1    
    34   17   18 1    
    35   17   76 1    
    36   17   77 1    
    37   18   19 1    
    38   18   27 1    
    39   18   78 1    
    40   19   20 am   BACKBONE|DICT|INTERRES
    41   19   79 1    
    42   20   21 2    
    43   20   22 1    
    44   22   23 1    
    45   22   24 1    
    46   22   80 1    
    47   23   81 1    
    48   23   82 1    
    49   23   83 1    
    50   24   25 am   BACKBONE|DICT|INTERRES
    51   24   84 1    
    52   25   26 2    
    53   27   28 2    
    54   27   29 am   BACKBONE|DICT|INTERRES
    55   29   30 1    
    56   29   85 1    
    57   30   31 1    
    58   30   32 1    
    59   30   86 1    
    60   31   87 1    
    61   31   88 1    
    62   31   89 1    
    63   32   33 2    
    64   32   34 am   BACKBONE|DICT|INTERRES
    65   34   35 1    
    66   34   90 1    
    67   35   36 1    
    68   35   37 1    
    69   35   91 1    
    70   36   92 1    
    71   36   93 1    
    72   36   94 1    
    73   37   38 2    
    74   37   39 am   BACKBONE|DICT|INTERRES
    75   39   40 1    
    76   39   95 1    
    77   40   41 1    
    78   40   42 1    
    79   40   96 1    
    80   41   97 1    
    81   41   98 1    
    82   41   99 1    
    83   42   43 2    
    84   42   44 am   BACKBONE|DICT|INTERRES
    85   44   45 1    
    86   44  100 1    
    87   45   46 1    
    88   45   47 1    
    89   45  101 1    
    90   46  102 1    
    91   46  103 1    
    92   46  104 1    
    93   47   48 2    
    94   47   49 am   BACKBONE|DICT|INTERRES
    95   49   50 1    
    96   49  105 1    
    97   50   51 1    
    98   50   52 1    
    99   50  106 1    
   100   51  107 1    
   101   51  108 1    
   102   51  109 1    
   103   52   53 2    
   104   52   54 am   BACKBONE|DICT|INTERRES
   105   54   55 1    
   106   54  110 1    
   107   55   56 1    
   108   55   59 1    
   109   55  111 1    
   110   56   57 am   BACKBONE|DICT|INTERRES
   111   56   58 2    
   112   57  112 1    
   113   57  113 1    
   114   59   60 1    
   115   59  114 1    
   116   59  115 1    
   117   60   61 1    
   118   61  116 1    
   119   61  117 1    
@<TRIPOS>SUBSTRUCTURE
     1 UNK         1 GROUP             0       ****    0 ROOT    
