@<TRIPOS>MOLECULE
3R8
117   119    1
SMALL
USER_CHARGES


@<TRIPOS>ATOM
      1 CA         22.5993  -21.2894  -46.4872 C.3       0 UNK        -0.2013 
      2 C          22.2442  -22.5258  -45.6747 C.2       0 UNK         0.4866 
      3 O          22.3190  -22.4932  -44.4460 O.2       0 UNK        -0.5176 
      4 N          21.8665  -23.6188  -46.3499 N.am      1 UNK        -0.4884 
      5 CA         21.4253  -24.8671  -45.7225 C.3       1 UNK         0.0853 
      6 C6         21.5138  -26.0535  -46.7173 C.3       10 UNK        -0.0849 
      7 S7         21.3237  -27.6844  -45.9119 S.3       10 UNK        -0.2776 
      8 C8         19.7481  -28.2508  -46.6373 C.3       10 UNK         0.0316 
      9 C9         19.1702  -29.4989  -45.9714 C.ar      10 UNK        -0.0863 
     10 C10        19.9764  -30.5955  -45.6400 C.ar      10 UNK        -0.1009 
     11 C11        19.4239  -31.7506  -45.0739 C.ar      10 UNK        -0.0712 
     12 C12        18.0429  -31.8003  -44.8432 C.ar      10 UNK        -0.0894 
     13 C13        17.2232  -30.7147  -45.1648 C.ar      10 UNK        -0.0745 
     14 C14        17.7936  -29.5734  -45.7376 C.ar      10 UNK        -0.0972 
     15 C15        15.7216  -30.7849  -44.9040 C.3       10 UNK         0.0209 
     16 S16        15.1046  -29.3856  -43.9077 S.3       10 UNK        -0.2568 
     17 C17        15.8740  -29.6877  -42.2783 C.3       10 UNK        -0.0983 
     18 CA         17.3099  -29.1168  -42.1675 C.3       3 UNK         0.0876 
     19 N          17.4075  -27.7171  -42.5867 N.am      3 UNK        -0.4424 
     20 C          18.5618  -27.0726  -42.7829 C.2       2 UNK         0.4918 
     21 O          19.6716  -27.5464  -42.5116 O.2       2 UNK        -0.4875 
     22 CA         18.4686  -25.6826  -43.4238 C.3       2 UNK         0.0481 
     23 CB         18.1220  -24.5874  -42.4017 C.3       2 UNK        -0.1831 
     24 N          19.7646  -25.4233  -44.0322 N.am      2 UNK        -0.4498 
     25 C          20.0044  -24.7157  -45.1372 C.2       1 UNK         0.5027 
     26 O          19.1614  -24.0242  -45.7152 O.2       1 UNK        -0.4969 
     27 C          17.9118  -29.3334  -40.7672 C.2       3 UNK         0.5005 
     28 O          17.3994  -28.7864  -39.7883 O.2       3 UNK        -0.5279 
     29 N          19.0086  -30.1033  -40.7278 N.am      4 UNK        -0.4463 
     30 CA         19.8471  -30.4102  -39.5648 C.3       4 UNK         0.0283 
     31 CB         19.0633  -31.2129  -38.5052 C.3       4 UNK        -0.1875 
     32 C          20.5885  -29.1921  -38.9738 C.2       4 UNK         0.4949 
     33 O          20.9667  -29.2292  -37.8019 O.2       4 UNK        -0.5039 
     34 N          20.8062  -28.1474  -39.7870 N.am      5 UNK        -0.4663 
     35 CA         21.5988  -26.9687  -39.4334 C.3       5 UNK         0.0242 
     36 CB         20.9068  -25.7047  -39.9819 C.3       5 UNK        -0.1982 
     37 C          23.0458  -27.1596  -39.9232 C.2       5 UNK         0.5017 
     38 O          23.7012  -28.1112  -39.4975 O.2       5 UNK        -0.5012 
     39 N          23.5241  -26.2697  -40.8058 N.am      6 UNK        -0.4439 
     40 CA         24.8994  -26.2066  -41.3200 C.3       6 UNK         0.0297 
     41 CB         25.0202  -25.0127  -42.2819 C.3       6 UNK        -0.2006 
     42 C          25.4113  -27.4905  -42.0012 C.2       6 UNK         0.4892 
     43 O          26.6122  -27.7578  -41.9500 O.2       6 UNK        -0.5089 
     44 N          24.5021  -28.2622  -42.6115 N.am      7 UNK        -0.4243 
     45 CA         24.7983  -29.5513  -43.2421 C.3       7 UNK         0.0196 
     46 CB         23.7292  -29.8405  -44.3085 C.3       7 UNK        -0.2007 
     47 C          24.8849  -30.7234  -42.2481 C.2       7 UNK         0.5020 
     48 O          25.2650  -31.8188  -42.6638 O.2       7 UNK        -0.5147 
     49 N          24.4866  -30.5111  -40.9834 N.am      8 UNK        -0.4734 
     50 CA         24.3468  -31.4774  -39.8808 C.3       8 UNK         0.0238 
     51 CB         25.6871  -32.1545  -39.5339 C.3       8 UNK        -0.1912 
     52 C          23.2299  -32.5162  -40.0923 C.2       8 UNK         0.5038 
     53 O          22.4486  -32.7477  -39.1704 O.2       8 UNK        -0.5046 
     54 N          23.1552  -33.0909  -41.2991 N.am      9 UNK        -0.4200 
     55 CA         22.1183  -34.0165  -41.7788 C.3       9 UNK         0.0839 
     56 C          22.0085  -35.3506  -40.9744 C.2       9 UNK         0.5513 
     57 N          23.0849  -35.8222  -40.3561 N.am      9 UNK        -0.7519 
     58 O          20.9545  -35.9787  -40.9190 O.2       9 UNK        -0.4960 
     59 C59        20.7631  -33.2840  -42.0130 C.3       10 UNK        -0.0876 
     60 S60        19.8169  -34.0039  -43.3967 S.3       10 UNK        -0.2414 
     61 C61        20.3258  -32.9566  -44.8059 C.3       10 UNK         0.0169 
     62 H62        22.5028  -21.4631  -47.5588 H         1 UNK         0.0903 
     63 H63        21.9428  -20.4626  -46.2174 H         1 UNK         0.0903 
     64 H64        23.6269  -20.9892  -46.2838 H         1 UNK         0.0903 
     65 H65        21.7887  -23.5787  -47.3564 H         1 UNK         0.3096 
     66 H66        22.1115  -25.0718  -44.8967 H         1 UNK         0.1121 
     67 H67        22.4931  -26.0532  -47.1989 H         1 UNK         0.0849 
     68 H68        20.7880  -25.9405  -47.5251 H         1 UNK         0.0849 
     69 H69        19.0290  -27.4321  -46.5773 H         1 UNK         0.0865 
     70 H70        19.8977  -28.4562  -47.6981 H         1 UNK         0.0865 
     71 H71        21.0373  -30.5573  -45.8462 H         1 UNK         0.1346 
     72 H72        17.5974  -32.6931  -44.4274 H         1 UNK         0.1412 
     73 H73        17.1564  -28.7396  -45.9999 H         1 UNK         0.1426 
     74 H74        15.4512  -31.7186  -44.4084 H         1 UNK         0.0716 
     75 H75        15.2024  -30.7856  -45.8632 H         1 UNK         0.0716 
     76 H76        15.8722  -30.7612  -42.0798 H         1 UNK         0.0695 
     77 H77        15.2279  -29.2375  -41.5221 H         1 UNK         0.0695 
     78 H78        17.9322  -29.6764  -42.8652 H         1 UNK         0.0983 
     79 H79        16.5360  -27.2649  -42.8203 H         1 UNK         0.3095 
     80 H80        17.7022  -25.7154  -44.2012 H         1 UNK         0.0454 
     81 H81        18.8796  -24.4981  -41.6248 H         1 UNK         0.0851 
     82 H82        17.1713  -24.7952  -41.9096 H         1 UNK         0.0851 
     83 H83        18.0293  -23.6150  -42.8854 H         1 UNK         0.0851 
     84 H84        20.4880  -26.0382  -43.6769 H         1 UNK         0.2976 
     85 H85        19.3519  -30.4622  -41.6078 H         1 UNK         0.3116 
     86 H86        20.6309  -31.0612  -39.9462 H         1 UNK         0.0646 
     87 H87        18.3054  -30.6032  -38.0128 H         1 UNK         0.0847 
     88 H88        19.7316  -31.5895  -37.7297 H         1 UNK         0.0847 
     89 H89        18.5675  -32.0770  -38.9471 H         1 UNK         0.0847 
     90 H90        20.4522  -28.1812  -40.7380 H         1 UNK         0.3040 
     91 H91        21.6487  -26.8663  -38.3471 H         1 UNK         0.1015 
     92 H92        19.8796  -25.6397  -39.6222 H         1 UNK         0.0786 
     93 H93        20.8758  -25.6895  -41.0709 H         1 UNK         0.0786 
     94 H94        21.4159  -24.7993  -39.6484 H         1 UNK         0.0786 
     95 H95        22.9068  -25.5251  -41.0954 H         1 UNK         0.3172 
     96 H96        25.5505  -26.0193  -40.4636 H         1 UNK         0.0595 
     97 H97        24.3587  -25.1171  -43.1431 H         1 UNK         0.0839 
     98 H98        26.0380  -24.9199  -42.6640 H         1 UNK         0.0839 
     99 H99        24.7788  -24.0729  -41.7850 H         1 UNK         0.0839 
    100 H100       23.5376  -27.9638  -42.6088 H         1 UNK         0.2998 
    101 H101       25.7665  -29.4865  -43.7435 H         1 UNK         0.0822 
    102 H102       23.7565  -29.0900  -45.0978 H         1 UNK         0.0787 
    103 H103       23.8944  -30.8074  -44.7859 H         1 UNK         0.0787 
    104 H104       22.7239  -29.8529  -43.8851 H         1 UNK         0.0787 
    105 H105       24.2039  -29.5673  -40.7331 H         1 UNK         0.3055 
    106 H106       24.0501  -30.8836  -39.0138 H         1 UNK         0.1106 
    107 H107       25.5855  -32.7814  -38.6471 H         1 UNK         0.0828 
    108 H108       26.0487  -32.7933  -40.3398 H         1 UNK         0.0828 
    109 H109       26.4591  -31.4152  -39.3206 H         1 UNK         0.0828 
    110 H110       23.8784  -32.8394  -41.9686 H         1 UNK         0.2931 
    111 H111       22.4907  -34.3244  -42.7566 H         1 UNK         0.0412 
    112 H112       23.0199  -36.6852  -39.8392 H         1 UNK         0.3472 
    113 H113       23.9579  -35.3208  -40.3958 H         1 UNK         0.3472 
    114 H114       20.1507  -33.3006  -41.1096 H         1 UNK         0.0970 
    115 H115       20.9306  -32.2300  -42.2387 H         1 UNK         0.0970 
    116 H116       20.3242  -33.5774  -45.7025 H         1 UNK         0.0612 
    117 H117       21.3593  -32.6382  -44.6587 H         1 UNK         0.0612 
@<TRIPOS>BOND
     1    1    2 1    
     2    1   62 1    
     3    1   63 1    
     4    1   64 1    
     5    2    3 2    
     6    2    4 am   BACKBONE|DICT|INTERRES
     7    4    5 1    
     8    4   65 1    
     9    5    6 1    
    10    5   25 1    
    11    5   66 1    
    12    6    7 1    
    13    6   67 1    
    14    6   68 1    
    15    7    8 1    
    16    8    9 1    
    17    8   69 1    
    18    8   70 1    
    19    9   10 ar   
    20    9   14 ar   
    21   10   11 ar   
    22   10   71 1    
    23   11   12 ar   
    24   11   61 1    
    25   12   13 ar   
    26   12   72 1    
    27   13   14 ar   
    28   13   15 1    
    29   14   73 1    
    30   15   16 1    
    31   15   74 1    
    32   15   75 1    
    33   16   17 1    
    34   17   18 1    
    35   17   76 1    
    36   17   77 1    
    37   18   19 1    
    38   18   27 1    
    39   18   78 1    
    40   19   20 am   BACKBONE|DICT|INTERRES
    41   19   79 1    
    42   20   21 2    
    43   20   22 1    
    44   22   23 1    
    45   22   24 1    
    46   22   80 1    
    47   23   81 1    
    48   23   82 1    
    49   23   83 1    
    50   24   25 am   BACKBONE|DICT|INTERRES
    51   24   84 1    
    52   25   26 2    
    53   27   28 2    
    54   27   29 am   BACKBONE|DICT|INTERRES
    55   29   30 1    
    56   29   85 1    
    57   30   31 1    
    58   30   32 1    
    59   30   86 1    
    60   31   87 1    
    61   31   88 1    
    62   31   89 1    
    63   32   33 2    
    64   32   34 am   BACKBONE|DICT|INTERRES
    65   34   35 1    
    66   34   90 1    
    67   35   36 1    
    68   35   37 1    
    69   35   91 1    
    70   36   92 1    
    71   36   93 1    
    72   36   94 1    
    73   37   38 2    
    74   37   39 am   BACKBONE|DICT|INTERRES
    75   39   40 1    
    76   39   95 1    
    77   40   41 1    
    78   40   42 1    
    79   40   96 1    
    80   41   97 1    
    81   41   98 1    
    82   41   99 1    
    83   42   43 2    
    84   42   44 am   BACKBONE|DICT|INTERRES
    85   44   45 1    
    86   44  100 1    
    87   45   46 1    
    88   45   47 1    
    89   45  101 1    
    90   46  102 1    
    91   46  103 1    
    92   46  104 1    
    93   47   48 2    
    94   47   49 am   BACKBONE|DICT|INTERRES
    95   49   50 1    
    96   49  105 1    
    97   50   51 1    
    98   50   52 1    
    99   50  106 1    
   100   51  107 1    
   101   51  108 1    
   102   51  109 1    
   103   52   53 2    
   104   52   54 am   BACKBONE|DICT|INTERRES
   105   54   55 1    
   106   54  110 1    
   107   55   56 1    
   108   55   59 1    
   109   55  111 1    
   110   56   57 am   BACKBONE|DICT|INTERRES
   111   56   58 2    
   112   57  112 1    
   113   57  113 1    
   114   59   60 1    
   115   59  114 1    
   116   59  115 1    
   117   60   61 1    
   118   61  116 1    
   119   61  117 1    
@<TRIPOS>SUBSTRUCTURE
     1 UNK         1 GROUP             0       ****    0 ROOT    
