@<TRIPOS>MOLECULE
3R8
117   119    1
SMALL
USER_CHARGES


@<TRIPOS>ATOM
      1 CA         18.4930  -24.7582  -48.8340 C.3       0 UNK        -0.2013 
      2 C          18.3083  -25.1635  -47.3794 C.2       0 UNK         0.4866 
      3 O          19.0839  -24.7381  -46.5232 O.2       0 UNK        -0.5176 
      4 N          17.2904  -25.9870  -47.0965 N.am      1 UNK        -0.4884 
      5 CA         16.9522  -26.4806  -45.7559 C.3       1 UNK         0.0853 
      6 C6         15.8708  -27.5911  -45.8095 C.3       10 UNK        -0.0849 
      7 S7         16.3662  -29.0138  -46.8404 S.3       10 UNK        -0.2776 
      8 C8         16.6154  -30.3291  -45.5989 C.3       10 UNK         0.0316 
      9 C9         17.7863  -30.0595  -44.6596 C.ar      10 UNK        -0.0863 
     10 C10        17.6179  -30.1701  -43.2756 C.ar      10 UNK        -0.1009 
     11 C11        18.6932  -29.9514  -42.4081 C.ar      10 UNK        -0.0712 
     12 C12        19.9432  -29.6170  -42.9352 C.ar      10 UNK        -0.0894 
     13 C13        20.1218  -29.4817  -44.3141 C.ar      10 UNK        -0.0745 
     14 C14        19.0444  -29.7261  -45.1700 C.ar      10 UNK        -0.0972 
     15 C15        21.4708  -29.0754  -44.8918 C.3       10 UNK         0.0209 
     16 S16        21.3709  -27.4696  -45.7511 S.3       10 UNK        -0.2568 
     17 C17        21.9466  -26.2074  -44.5508 C.3       10 UNK        -0.0983 
     18 CA         21.2223  -26.1002  -43.1735 C.3       3 UNK         0.0876 
     19 N          19.7869  -26.3820  -43.2804 N.am      3 UNK        -0.4424 
     20 C          18.8275  -25.9355  -42.4635 C.2       2 UNK         0.4918 
     21 O          19.0410  -25.1794  -41.5143 O.2       2 UNK        -0.4875 
     22 CA         17.3989  -26.4184  -42.7477 C.3       2 UNK         0.0481 
     23 CB         16.6247  -26.6848  -41.4448 C.3       2 UNK        -0.1831 
     24 N          16.6916  -25.3910  -43.5086 N.am      2 UNK        -0.4498 
     25 C          16.4823  -25.3278  -44.8314 C.2       1 UNK         0.5027 
     26 O          15.8734  -24.3778  -45.3271 O.2       1 UNK        -0.4969 
     27 C          21.9048  -26.9058  -42.0414 C.2       3 UNK         0.5005 
     28 O          22.9506  -27.5142  -42.2632 O.2       3 UNK        -0.5279 
     29 N          21.3097  -26.9067  -40.8385 N.am      4 UNK        -0.4463 
     30 CA         21.7037  -27.7180  -39.6764 C.3       4 UNK         0.0283 
     31 CB         20.7550  -27.4190  -38.5052 C.3       4 UNK        -0.1875 
     32 C          23.1696  -27.5544  -39.2315 C.2       4 UNK         0.4949 
     33 O          23.7531  -28.5049  -38.7112 O.2       4 UNK        -0.5039 
     34 N          23.7569  -26.3769  -39.4877 N.am      5 UNK        -0.4663 
     35 CA         25.1778  -26.0803  -39.2781 C.3       5 UNK         0.0242 
     36 CB         25.4105  -24.5756  -39.4896 C.3       5 UNK        -0.1982 
     37 C          26.1285  -26.9024  -40.1726 C.2       5 UNK         0.5017 
     38 O          27.2904  -27.0749  -39.8041 O.2       5 UNK        -0.5012 
     39 N          25.6260  -27.4051  -41.3096 N.am      6 UNK        -0.4439 
     40 CA         26.3337  -28.2951  -42.2322 C.3       6 UNK         0.0297 
     41 CB         26.0240  -27.8593  -43.6765 C.3       6 UNK        -0.2006 
     42 C          25.9625  -29.7751  -42.0081 C.2       6 UNK         0.4892 
     43 O          26.3372  -30.6094  -42.8336 O.2       6 UNK        -0.5089 
     44 N          25.2439  -30.0791  -40.9143 N.am      7 UNK        -0.4243 
     45 CA         24.6916  -31.3844  -40.5442 C.3       7 UNK         0.0196 
     46 CB         25.8084  -32.4187  -40.2686 C.3       7 UNK        -0.2007 
     47 C          23.6285  -31.8353  -41.5607 C.2       7 UNK         0.5020 
     48 O          22.5944  -31.1778  -41.6591 O.2       7 UNK        -0.5147 
     49 N          23.8763  -32.9462  -42.2695 N.am      8 UNK        -0.4734 
     50 CA         23.0241  -33.6099  -43.2703 C.3       8 UNK         0.0238 
     51 CB         22.6540  -32.6669  -44.4329 C.3       8 UNK        -0.1912 
     52 C          21.7751  -34.2811  -42.6732 C.2       8 UNK         0.5038 
     53 O          21.5746  -35.4760  -42.8938 O.2       8 UNK        -0.5046 
     54 N          20.9783  -33.5199  -41.9160 N.am      9 UNK        -0.4200 
     55 CA         19.8132  -33.9982  -41.1559 C.3       9 UNK         0.0839 
     56 C          20.1599  -34.7533  -39.8383 C.2       9 UNK         0.5513 
     57 N          21.4142  -34.8010  -39.4040 N.am      9 UNK        -0.7519 
     58 O          19.2733  -35.3230  -39.2069 O.2       9 UNK        -0.4960 
     59 C59        18.7705  -32.8712  -40.9308 C.3       10 UNK        -0.0876 
     60 S60        19.4653  -31.3813  -40.1305 S.3       10 UNK        -0.2414 
     61 C61        18.4960  -30.0466  -40.9007 C.3       10 UNK         0.0169 
     62 H62        19.4766  -25.0681  -49.1864 H         1 UNK         0.0903 
     63 H63        17.7423  -25.2104  -49.4822 H         1 UNK         0.0903 
     64 H64        18.4201  -23.6755  -48.9335 H         1 UNK         0.0903 
     65 H65        16.6818  -26.3015  -47.8386 H         1 UNK         0.3096 
     66 H66        17.8755  -26.9066  -45.3653 H         1 UNK         0.1121 
     67 H67        15.6306  -27.9466  -44.8058 H         1 UNK         0.0849 
     68 H68        14.9379  -27.1938  -46.2145 H         1 UNK         0.0849 
     69 H69        15.6885  -30.4678  -45.0400 H         1 UNK         0.0865 
     70 H70        16.8004  -31.2695  -46.1195 H         1 UNK         0.0865 
     71 H71        16.6488  -30.4296  -42.8714 H         1 UNK         0.1346 
     72 H72        20.7757  -29.4591  -42.2647 H         1 UNK         0.1412 
     73 H73        19.1833  -29.6388  -46.2393 H         1 UNK         0.1426 
     74 H74        21.7742  -29.8302  -45.6183 H         1 UNK         0.0716 
     75 H75        22.2527  -29.0646  -44.1334 H         1 UNK         0.0716 
     76 H76        23.0290  -26.2950  -44.4429 H         1 UNK         0.0695 
     77 H77        21.8090  -25.2547  -45.0648 H         1 UNK         0.0695 
     78 H78        21.3229  -25.0586  -42.8597 H         1 UNK         0.0983 
     79 H79        19.5518  -27.0302  -44.0193 H         1 UNK         0.3095 
     80 H80        17.4422  -27.3629  -43.2867 H         1 UNK         0.0454 
     81 H81        17.1478  -27.4049  -40.8164 H         1 UNK         0.0851 
     82 H82        16.4917  -25.7777  -40.8537 H         1 UNK         0.0851 
     83 H83        15.6362  -27.0955  -41.6509 H         1 UNK         0.0851 
     84 H84        16.3848  -24.6010  -42.9589 H         1 UNK         0.2976 
     85 H85        20.4722  -26.3413  -40.7399 H         1 UNK         0.3116 
     86 H86        21.5740  -28.7645  -39.9613 H         1 UNK         0.0646 
     87 H87        20.9937  -28.0422  -37.6421 H         1 UNK         0.0847 
     88 H88        19.7166  -27.6195  -38.7677 H         1 UNK         0.0847 
     89 H89        20.8251  -26.3786  -38.1857 H         1 UNK         0.0847 
     90 H90        23.1989  -25.6544  -39.9191 H         1 UNK         0.3040 
     91 H91        25.4204  -26.3247  -38.2414 H         1 UNK         0.1015 
     92 H92        24.8081  -23.9796  -38.8036 H         1 UNK         0.0786 
     93 H93        25.1666  -24.2683  -40.5074 H         1 UNK         0.0786 
     94 H94        26.4545  -24.3132  -39.3117 H         1 UNK         0.0786 
     95 H95        24.6397  -27.2608  -41.5236 H         1 UNK         0.3172 
     96 H96        27.4112  -28.2076  -42.0801 H         1 UNK         0.0595 
     97 H97        26.6148  -28.4308  -44.3934 H         1 UNK         0.0839 
     98 H98        26.2571  -26.8062  -43.8339 H         1 UNK         0.0839 
     99 H99        24.9739  -28.0124  -43.9282 H         1 UNK         0.0839 
    100 H100       24.9516  -29.3155  -40.3159 H         1 UNK         0.2998 
    101 H101       24.1570  -31.2278  -39.6059 H         1 UNK         0.0822 
    102 H102       25.3910  -33.3618  -39.9132 H         1 UNK         0.0787 
    103 H103       26.4107  -32.6341  -41.1514 H         1 UNK         0.0787 
    104 H104       26.4847  -32.0600  -39.4926 H         1 UNK         0.0787 
    105 H105       24.7609  -33.4038  -42.0959 H         1 UNK         0.3055 
    106 H106       23.6357  -34.4108  -43.6898 H         1 UNK         0.1106 
    107 H107       21.9793  -31.8725  -44.1149 H         1 UNK         0.0828 
    108 H108       23.5397  -32.2017  -44.8655 H         1 UNK         0.0828 
    109 H109       22.1500  -33.2141  -45.2304 H         1 UNK         0.0828 
    110 H110       21.2485  -32.5510  -41.7653 H         1 UNK         0.2931 
    111 H111       19.3178  -34.7452  -41.7793 H         1 UNK         0.0412 
    112 H112       21.6244  -35.2992  -38.5533 H         1 UNK         0.3472 
    113 H113       22.1475  -34.3401  -39.9167 H         1 UNK         0.3472 
    114 H114       18.3470  -32.5968  -41.8968 H         1 UNK         0.0970 
    115 H115       17.9262  -33.2282  -40.3383 H         1 UNK         0.0970 
    116 H116       17.4429  -30.1853  -40.6516 H         1 UNK         0.0612 
    117 H117       18.7982  -29.1019  -40.4494 H         1 UNK         0.0612 
@<TRIPOS>BOND
     1    1    2 1    
     2    1   62 1    
     3    1   63 1    
     4    1   64 1    
     5    2    3 2    
     6    2    4 am   BACKBONE|DICT|INTERRES
     7    4    5 1    
     8    4   65 1    
     9    5    6 1    
    10    5   25 1    
    11    5   66 1    
    12    6    7 1    
    13    6   67 1    
    14    6   68 1    
    15    7    8 1    
    16    8    9 1    
    17    8   69 1    
    18    8   70 1    
    19    9   10 ar   
    20    9   14 ar   
    21   10   11 ar   
    22   10   71 1    
    23   11   12 ar   
    24   11   61 1    
    25   12   13 ar   
    26   12   72 1    
    27   13   14 ar   
    28   13   15 1    
    29   14   73 1    
    30   15   16 1    
    31   15   74 1    
    32   15   75 1    
    33   16   17 1    
    34   17   18 1    
    35   17   76 1    
    36   17   77 1    
    37   18   19 1    
    38   18   27 1    
    39   18   78 1    
    40   19   20 am   BACKBONE|DICT|INTERRES
    41   19   79 1    
    42   20   21 2    
    43   20   22 1    
    44   22   23 1    
    45   22   24 1    
    46   22   80 1    
    47   23   81 1    
    48   23   82 1    
    49   23   83 1    
    50   24   25 am   BACKBONE|DICT|INTERRES
    51   24   84 1    
    52   25   26 2    
    53   27   28 2    
    54   27   29 am   BACKBONE|DICT|INTERRES
    55   29   30 1    
    56   29   85 1    
    57   30   31 1    
    58   30   32 1    
    59   30   86 1    
    60   31   87 1    
    61   31   88 1    
    62   31   89 1    
    63   32   33 2    
    64   32   34 am   BACKBONE|DICT|INTERRES
    65   34   35 1    
    66   34   90 1    
    67   35   36 1    
    68   35   37 1    
    69   35   91 1    
    70   36   92 1    
    71   36   93 1    
    72   36   94 1    
    73   37   38 2    
    74   37   39 am   BACKBONE|DICT|INTERRES
    75   39   40 1    
    76   39   95 1    
    77   40   41 1    
    78   40   42 1    
    79   40   96 1    
    80   41   97 1    
    81   41   98 1    
    82   41   99 1    
    83   42   43 2    
    84   42   44 am   BACKBONE|DICT|INTERRES
    85   44   45 1    
    86   44  100 1    
    87   45   46 1    
    88   45   47 1    
    89   45  101 1    
    90   46  102 1    
    91   46  103 1    
    92   46  104 1    
    93   47   48 2    
    94   47   49 am   BACKBONE|DICT|INTERRES
    95   49   50 1    
    96   49  105 1    
    97   50   51 1    
    98   50   52 1    
    99   50  106 1    
   100   51  107 1    
   101   51  108 1    
   102   51  109 1    
   103   52   53 2    
   104   52   54 am   BACKBONE|DICT|INTERRES
   105   54   55 1    
   106   54  110 1    
   107   55   56 1    
   108   55   59 1    
   109   55  111 1    
   110   56   57 am   BACKBONE|DICT|INTERRES
   111   56   58 2    
   112   57  112 1    
   113   57  113 1    
   114   59   60 1    
   115   59  114 1    
   116   59  115 1    
   117   60   61 1    
   118   61  116 1    
   119   61  117 1    
@<TRIPOS>SUBSTRUCTURE
     1 UNK         1 GROUP             0       ****    0 ROOT    
