@<TRIPOS>MOLECULE
3R8
117   119    1
SMALL
USER_CHARGES


@<TRIPOS>ATOM
      1 CA         17.1573  -24.9505  -42.3206 C.3       0 UNK        -0.2013 
      2 C          17.7591  -23.8331  -43.1713 C.2       0 UNK         0.4866 
      3 O          17.5783  -22.6657  -42.8314 O.2       0 UNK        -0.5176 
      4 N          18.4670  -24.1097  -44.2776 N.am      1 UNK        -0.4884 
      5 CA         18.8342  -25.4115  -44.8554 C.3       1 UNK         0.0853 
      6 C6         17.6020  -26.2905  -45.2113 C.3       10 UNK        -0.0849 
      7 S7         17.8917  -27.3809  -46.6454 S.3       10 UNK        -0.2776 
      8 C8         16.6157  -28.6531  -46.3882 C.3       10 UNK         0.0316 
      9 C9         17.0273  -29.6798  -45.3413 C.ar      10 UNK        -0.0863 
     10 C10        17.7845  -30.7940  -45.7174 C.ar      10 UNK        -0.1009 
     11 C11        18.1214  -31.7757  -44.7800 C.ar      10 UNK        -0.0712 
     12 C12        17.6977  -31.6297  -43.4552 C.ar      10 UNK        -0.0894 
     13 C13        16.9327  -30.5249  -43.0657 C.ar      10 UNK        -0.0745 
     14 C14        16.6036  -29.5517  -44.0139 C.ar      10 UNK        -0.0972 
     15 C15        16.3759  -30.4383  -41.6494 C.3       10 UNK         0.0209 
     16 S16        17.6646  -30.5228  -40.3652 S.3       10 UNK        -0.2568 
     17 C17        18.0437  -28.7698  -40.0365 C.3       10 UNK        -0.0983 
     18 CA         19.5362  -28.4656  -40.3014 C.3       3 UNK         0.0876 
     19 N          19.8290  -28.4133  -41.7361 N.am      3 UNK        -0.4424 
     20 C          21.0619  -28.4882  -42.2483 C.2       2 UNK         0.4918 
     21 O          22.0593  -28.7147  -41.5676 O.2       2 UNK        -0.4875 
     22 CA         21.2159  -28.2567  -43.7602 C.3       2 UNK         0.0481 
     23 CB         21.2725  -29.5982  -44.4932 C.3       2 UNK        -0.1831 
     24 N          20.1755  -27.4147  -44.3601 N.am      2 UNK        -0.4498 
     25 C          19.9131  -26.1445  -44.0243 C.2       1 UNK         0.5027 
     26 O          20.4775  -25.5661  -43.0919 O.2       1 UNK        -0.4969 
     27 C          20.0049  -27.2011  -39.5424 C.2       3 UNK         0.5005 
     28 O          20.1697  -27.2758  -38.3236 O.2       3 UNK        -0.5279 
     29 N          20.2285  -26.0816  -40.2486 N.am      4 UNK        -0.4463 
     30 CA         20.8099  -24.8574  -39.6957 C.3       4 UNK         0.0283 
     31 CB         20.0633  -23.6285  -40.2400 C.3       4 UNK        -0.1875 
     32 C          22.3073  -24.7695  -40.0248 C.2       4 UNK         0.4949 
     33 O          23.1009  -24.4767  -39.1303 O.2       4 UNK        -0.5039 
     34 N          22.6712  -25.0234  -41.2888 N.am      5 UNK        -0.4663 
     35 CA         24.0417  -24.9505  -41.7899 C.3       5 UNK         0.0242 
     36 CB         24.3550  -23.5046  -42.2226 C.3       5 UNK        -0.1982 
     37 C          24.1996  -25.9437  -42.9552 C.2       5 UNK         0.5017 
     38 O          23.7993  -25.6088  -44.0693 O.2       5 UNK        -0.5012 
     39 N          24.7379  -27.1521  -42.7453 N.am      6 UNK        -0.4439 
     40 CA         25.1916  -27.7447  -41.4902 C.3       6 UNK         0.0297 
     41 CB         26.6436  -27.3131  -41.2014 C.3       6 UNK        -0.2006 
     42 C          25.1030  -29.2734  -41.6033 C.2       6 UNK         0.4892 
     43 O          25.0441  -29.8063  -42.7152 O.2       6 UNK        -0.5089 
     44 N          25.1192  -29.9362  -40.4388 N.am      7 UNK        -0.4243 
     45 CA         25.1835  -31.3888  -40.2249 C.3       7 UNK         0.0196 
     46 CB         26.4639  -31.9822  -40.8531 C.3       7 UNK        -0.2007 
     47 C          23.9263  -32.1882  -40.6232 C.2       7 UNK         0.5020 
     48 O          23.9863  -33.4183  -40.5974 O.2       7 UNK        -0.5147 
     49 N          22.8134  -31.5162  -40.9635 N.am      8 UNK        -0.4734 
     50 CA         21.4994  -32.1040  -41.2865 C.3       8 UNK         0.0238 
     51 CB         20.8274  -32.6429  -40.0065 C.3       8 UNK        -0.1912 
     52 C          21.5433  -33.1493  -42.4217 C.2       8 UNK         0.5038 
     53 O          20.8264  -34.1499  -42.3673 O.2       8 UNK        -0.5046 
     54 N          22.4058  -32.8945  -43.4143 N.am      9 UNK        -0.4200 
     55 CA         22.7154  -33.7647  -44.5623 C.3       9 UNK         0.0839 
     56 C          23.5547  -35.0296  -44.2053 C.2       9 UNK         0.5513 
     57 N          24.0875  -35.1676  -42.9965 N.am      9 UNK        -0.7519 
     58 O          23.7571  -35.8943  -45.0541 O.2       9 UNK        -0.4960 
     59 C59        21.4868  -34.1101  -45.4578 C.3       10 UNK        -0.0876 
     60 S60        20.5070  -32.6468  -45.9459 S.3       10 UNK        -0.2414 
     61 C61        18.8869  -33.0250  -45.2000 C.3       10 UNK         0.0169 
     62 H62        17.8437  -25.7806  -42.1744 H         1 UNK         0.0903 
     63 H63        16.9007  -24.5713  -41.3316 H         1 UNK         0.0903 
     64 H64        16.2410  -25.3235  -42.7767 H         1 UNK         0.0903 
     65 H65        18.8605  -23.3222  -44.7743 H         1 UNK         0.3096 
     66 H66        19.3346  -25.1509  -45.7899 H         1 UNK         0.1121 
     67 H67        16.7530  -25.6562  -45.4724 H         1 UNK         0.0849 
     68 H68        17.2804  -26.8788  -44.3535 H         1 UNK         0.0849 
     69 H69        15.6715  -28.1792  -46.1144 H         1 UNK         0.0865 
     70 H70        16.4307  -29.1575  -47.3380 H         1 UNK         0.0865 
     71 H71        18.0990  -30.9084  -46.7461 H         1 UNK         0.1346 
     72 H72        17.9335  -32.3947  -42.7276 H         1 UNK         0.1412 
     73 H73        15.9829  -28.7142  -43.7267 H         1 UNK         0.1426 
     74 H74        15.6973  -31.2796  -41.5028 H         1 UNK         0.0716 
     75 H75        15.7712  -29.5409  -41.5116 H         1 UNK         0.0716 
     76 H76        17.7863  -28.5889  -38.9908 H         1 UNK         0.0695 
     77 H77        17.4002  -28.1130  -40.6241 H         1 UNK         0.0695 
     78 H78        20.1230  -29.2838  -39.8764 H         1 UNK         0.0983 
     79 H79        19.0464  -28.2916  -42.3605 H         1 UNK         0.3095 
     80 H80        22.1675  -27.7530  -43.9218 H         1 UNK         0.0454 
     81 H81        21.3752  -29.4678  -45.5705 H         1 UNK         0.0851 
     82 H82        22.1281  -30.1844  -44.1584 H         1 UNK         0.0851 
     83 H83        20.3755  -30.1875  -44.3078 H         1 UNK         0.0851 
     84 H84        19.6510  -27.8175  -45.1277 H         1 UNK         0.2976 
     85 H85        20.1297  -26.1067  -41.2579 H         1 UNK         0.3116 
     86 H86        20.7054  -24.8475  -38.6087 H         1 UNK         0.0646 
     87 H87        20.1541  -23.5393  -41.3227 H         1 UNK         0.0847 
     88 H88        20.4615  -22.7101  -39.8068 H         1 UNK         0.0847 
     89 H89        19.0023  -23.6674  -39.9941 H         1 UNK         0.0847 
     90 H90        21.9596  -25.2511  -41.9806 H         1 UNK         0.3040 
     91 H91        24.7374  -25.2020  -40.9907 H         1 UNK         0.1015 
     92 H92        25.3563  -23.4341  -42.6494 H         1 UNK         0.0786 
     93 H93        24.3152  -22.8199  -41.3753 H         1 UNK         0.0786 
     94 H94        23.6512  -23.1449  -42.9744 H         1 UNK         0.0786 
     95 H95        24.7731  -27.8099  -43.5144 H         1 UNK         0.3172 
     96 H96        24.5316  -27.4344  -40.6777 H         1 UNK         0.0595 
     97 H97        27.3260  -27.6730  -41.9728 H         1 UNK         0.0839 
     98 H98        26.9917  -27.7164  -40.2497 H         1 UNK         0.0839 
     99 H99        26.7548  -26.2310  -41.1480 H         1 UNK         0.0839 
    100 H100       25.1317  -29.3852  -39.5913 H         1 UNK         0.2998 
    101 H101       25.2694  -31.5165  -39.1448 H         1 UNK         0.0822 
    102 H102       27.3517  -31.4316  -40.5421 H         1 UNK         0.0787 
    103 H103       26.6073  -33.0197  -40.5486 H         1 UNK         0.0787 
    104 H104       26.4248  -31.9696  -41.9428 H         1 UNK         0.0787 
    105 H105       22.8581  -30.5019  -41.0051 H         1 UNK         0.3055 
    106 H106       20.8706  -31.2967  -41.6615 H         1 UNK         0.1106 
    107 H107       20.7660  -31.8737  -39.2370 H         1 UNK         0.0828 
    108 H108       19.8081  -32.9745  -40.2088 H         1 UNK         0.0828 
    109 H109       21.3707  -33.4926  -39.5919 H         1 UNK         0.0828 
    110 H110       22.9827  -32.0700  -43.3322 H         1 UNK         0.2931 
    111 H111       23.3861  -33.1634  -45.1771 H         1 UNK         0.0412 
    112 H112       23.9350  -34.4783  -42.2672 H         1 UNK         0.3472 
    113 H113       24.6355  -35.9888  -42.7957 H         1 UNK         0.3472 
    114 H114       21.8222  -34.5915  -46.3782 H         1 UNK         0.0970 
    115 H115       20.8508  -34.8453  -44.9631 H         1 UNK         0.0970 
    116 H116       18.2902  -33.5873  -45.9192 H         1 UNK         0.0612 
    117 H117       19.0217  -33.6788  -44.3382 H         1 UNK         0.0612 
@<TRIPOS>BOND
     1    1    2 1    
     2    1   62 1    
     3    1   63 1    
     4    1   64 1    
     5    2    3 2    
     6    2    4 am   BACKBONE|DICT|INTERRES
     7    4    5 1    
     8    4   65 1    
     9    5    6 1    
    10    5   25 1    
    11    5   66 1    
    12    6    7 1    
    13    6   67 1    
    14    6   68 1    
    15    7    8 1    
    16    8    9 1    
    17    8   69 1    
    18    8   70 1    
    19    9   10 ar   
    20    9   14 ar   
    21   10   11 ar   
    22   10   71 1    
    23   11   12 ar   
    24   11   61 1    
    25   12   13 ar   
    26   12   72 1    
    27   13   14 ar   
    28   13   15 1    
    29   14   73 1    
    30   15   16 1    
    31   15   74 1    
    32   15   75 1    
    33   16   17 1    
    34   17   18 1    
    35   17   76 1    
    36   17   77 1    
    37   18   19 1    
    38   18   27 1    
    39   18   78 1    
    40   19   20 am   BACKBONE|DICT|INTERRES
    41   19   79 1    
    42   20   21 2    
    43   20   22 1    
    44   22   23 1    
    45   22   24 1    
    46   22   80 1    
    47   23   81 1    
    48   23   82 1    
    49   23   83 1    
    50   24   25 am   BACKBONE|DICT|INTERRES
    51   24   84 1    
    52   25   26 2    
    53   27   28 2    
    54   27   29 am   BACKBONE|DICT|INTERRES
    55   29   30 1    
    56   29   85 1    
    57   30   31 1    
    58   30   32 1    
    59   30   86 1    
    60   31   87 1    
    61   31   88 1    
    62   31   89 1    
    63   32   33 2    
    64   32   34 am   BACKBONE|DICT|INTERRES
    65   34   35 1    
    66   34   90 1    
    67   35   36 1    
    68   35   37 1    
    69   35   91 1    
    70   36   92 1    
    71   36   93 1    
    72   36   94 1    
    73   37   38 2    
    74   37   39 am   BACKBONE|DICT|INTERRES
    75   39   40 1    
    76   39   95 1    
    77   40   41 1    
    78   40   42 1    
    79   40   96 1    
    80   41   97 1    
    81   41   98 1    
    82   41   99 1    
    83   42   43 2    
    84   42   44 am   BACKBONE|DICT|INTERRES
    85   44   45 1    
    86   44  100 1    
    87   45   46 1    
    88   45   47 1    
    89   45  101 1    
    90   46  102 1    
    91   46  103 1    
    92   46  104 1    
    93   47   48 2    
    94   47   49 am   BACKBONE|DICT|INTERRES
    95   49   50 1    
    96   49  105 1    
    97   50   51 1    
    98   50   52 1    
    99   50  106 1    
   100   51  107 1    
   101   51  108 1    
   102   51  109 1    
   103   52   53 2    
   104   52   54 am   BACKBONE|DICT|INTERRES
   105   54   55 1    
   106   54  110 1    
   107   55   56 1    
   108   55   59 1    
   109   55  111 1    
   110   56   57 am   BACKBONE|DICT|INTERRES
   111   56   58 2    
   112   57  112 1    
   113   57  113 1    
   114   59   60 1    
   115   59  114 1    
   116   59  115 1    
   117   60   61 1    
   118   61  116 1    
   119   61  117 1    
@<TRIPOS>SUBSTRUCTURE
     1 UNK         1 GROUP             0       ****    0 ROOT    
