@<TRIPOS>MOLECULE
3R8
117   119    1
SMALL
USER_CHARGES


@<TRIPOS>ATOM
      1 CA         15.2591  -22.9445  -45.2089 C.3       0 UNK        -0.2013 
      2 C          15.2908  -24.4627  -45.1180 C.2       0 UNK         0.4866 
      3 O          14.8693  -25.1424  -46.0541 O.2       0 UNK        -0.5176 
      4 N          15.7886  -25.0007  -44.0005 N.am      1 UNK        -0.4884 
      5 CA         15.9540  -26.4307  -43.7495 C.3       1 UNK         0.0853 
      6 C6         14.6159  -27.1080  -43.3460 C.3       10 UNK        -0.0849 
      7 S7         14.5785  -28.9367  -43.3974 S.3       10 UNK        -0.2776 
      8 C8         15.0542  -29.3550  -45.1119 C.3       10 UNK         0.0316 
      9 C9         16.5518  -29.6135  -45.2311 C.ar      10 UNK        -0.0863 
     10 C10        17.1393  -30.6584  -44.5103 C.ar      10 UNK        -0.1009 
     11 C11        18.5199  -30.8695  -44.5587 C.ar      10 UNK        -0.0712 
     12 C12        19.3166  -30.0236  -45.3367 C.ar      10 UNK        -0.0894 
     13 C13        18.7389  -28.9994  -46.0895 C.ar      10 UNK        -0.0745 
     14 C14        17.3547  -28.8093  -46.0465 C.ar      10 UNK        -0.0972 
     15 C15        19.6052  -28.0982  -46.9540 C.3       10 UNK         0.0209 
     16 S16        19.9425  -26.5081  -46.1383 S.3       10 UNK        -0.2568 
     17 C17        21.3792  -26.9018  -45.0813 C.3       10 UNK        -0.0983 
     18 CA         21.2665  -26.2007  -43.7001 C.3       3 UNK         0.0876 
     19 N          20.1651  -26.7250  -42.8862 N.am      3 UNK        -0.4424 
     20 C          20.0744  -27.9212  -42.2914 C.2       2 UNK         0.4918 
     21 O          21.0057  -28.7193  -42.1876 O.2       2 UNK        -0.4875 
     22 CA         18.6923  -28.3205  -41.7383 C.3       2 UNK         0.0481 
     23 CB         18.5503  -27.9339  -40.2540 C.3       2 UNK        -0.1831 
     24 N          17.5529  -27.8546  -42.5466 N.am      2 UNK        -0.4498 
     25 C          17.0945  -26.6087  -42.7285 C.2       1 UNK         0.5027 
     26 O          17.5774  -25.6173  -42.1725 O.2       1 UNK        -0.4969 
     27 C          22.6063  -26.0934  -42.9393 C.2       3 UNK         0.5005 
     28 O          23.6581  -26.4215  -43.4931 O.2       3 UNK        -0.5279 
     29 N          22.5344  -25.5805  -41.6992 N.am      4 UNK        -0.4463 
     30 CA         23.6317  -25.1035  -40.8441 C.3       4 UNK         0.0283 
     31 CB         24.0521  -23.6843  -41.2860 C.3       4 UNK        -0.1875 
     32 C          24.8213  -26.0767  -40.7421 C.2       4 UNK         0.4949 
     33 O          24.7694  -27.0096  -39.9416 O.2       4 UNK        -0.5039 
     34 N          25.8540  -25.8579  -41.5698 N.am      5 UNK        -0.4663 
     35 CA         27.0709  -26.6690  -41.6810 C.3       5 UNK         0.0242 
     36 CB         28.0305  -25.9941  -42.6745 C.3       5 UNK        -0.1982 
     37 C          26.8330  -28.1389  -42.0767 C.2       5 UNK         0.5017 
     38 O          27.6988  -28.9717  -41.8060 O.2       5 UNK        -0.5012 
     39 N          25.6678  -28.4465  -42.6684 N.am      6 UNK        -0.4439 
     40 CA         25.1960  -29.8155  -42.9046 C.3       6 UNK         0.0297 
     41 CB         24.0041  -29.7863  -43.8747 C.3       6 UNK        -0.2006 
     42 C          24.8278  -30.5733  -41.6110 C.2       6 UNK         0.4892 
     43 O          24.6928  -31.7965  -41.6626 O.2       6 UNK        -0.5089 
     44 N          24.6704  -29.8517  -40.4875 N.am      7 UNK        -0.4243 
     45 CA         24.4140  -30.3500  -39.1307 C.3       7 UNK         0.0196 
     46 CB         25.6487  -31.1055  -38.5945 C.3       7 UNK        -0.2007 
     47 C          23.1149  -31.1682  -39.0240 C.2       7 UNK         0.5020 
     48 O          23.0948  -32.2067  -38.3619 O.2       7 UNK        -0.5147 
     49 N          22.0614  -30.6875  -39.7025 N.am      8 UNK        -0.4734 
     50 CA         20.7622  -31.3471  -39.8812 C.3       8 UNK         0.0238 
     51 CB         20.0045  -31.4801  -38.5425 C.3       8 UNK        -0.1912 
     52 C          20.8820  -32.6744  -40.6555 C.2       8 UNK         0.5038 
     53 O          20.2037  -33.6468  -40.3201 O.2       8 UNK        -0.5046 
     54 N          21.7287  -32.6646  -41.6959 N.am      9 UNK        -0.4200 
     55 CA         22.0321  -33.7911  -42.5908 C.3       9 UNK         0.0839 
     56 C          22.7709  -34.9381  -41.8461 C.2       9 UNK         0.5513 
     57 N          23.8485  -34.6198  -41.1403 N.am      9 UNK        -0.7519 
     58 O          22.3864  -36.1037  -41.9069 O.2       9 UNK        -0.4960 
     59 C59        20.8041  -34.2549  -43.4289 C.3       10 UNK        -0.0876 
     60 S60        20.2959  -33.0192  -44.6731 S.3       10 UNK        -0.2414 
     61 C61        19.1496  -31.9712  -43.7200 C.3       10 UNK         0.0169 
     62 H62        15.6563  -22.4737  -44.3097 H         1 UNK         0.0903 
     63 H63        15.8521  -22.6072  -46.0586 H         1 UNK         0.0903 
     64 H64        14.2353  -22.5985  -45.3487 H         1 UNK         0.0903 
     65 H65        16.1846  -24.4157  -43.2731 H         1 UNK         0.3096 
     66 H66        16.3075  -26.8596  -44.6827 H         1 UNK         0.1121 
     67 H67        13.8173  -26.7667  -44.0065 H         1 UNK         0.0849 
     68 H68        14.3192  -26.7868  -42.3459 H         1 UNK         0.0849 
     69 H69        14.5200  -30.2572  -45.4134 H         1 UNK         0.0865 
     70 H70        14.7273  -28.5661  -45.7918 H         1 UNK         0.0865 
     71 H71        16.5194  -31.2908  -43.8888 H         1 UNK         0.1346 
     72 H72        20.3881  -30.1679  -45.3580 H         1 UNK         0.1412 
     73 H73        16.9106  -28.0134  -46.6297 H         1 UNK         0.1426 
     74 H74        20.5444  -28.5888  -47.2146 H         1 UNK         0.0716 
     75 H75        19.0934  -27.9045  -47.8979 H         1 UNK         0.0716 
     76 H76        22.2649  -26.5684  -45.6250 H         1 UNK         0.0695 
     77 H77        21.4832  -27.9803  -44.9583 H         1 UNK         0.0695 
     78 H78        21.0038  -25.1602  -43.8993 H         1 UNK         0.0983 
     79 H79        19.3372  -26.1400  -42.8419 H         1 UNK         0.3095 
     80 H80        18.6425  -29.4082  -41.7951 H         1 UNK         0.0454 
     81 H81        17.6031  -28.2830  -39.8432 H         1 UNK         0.0851 
     82 H82        18.6052  -26.8560  -40.1016 H         1 UNK         0.0851 
     83 H83        19.3461  -28.3814  -39.6576 H         1 UNK         0.0851 
     84 H84        17.0959  -28.5848  -43.0801 H         1 UNK         0.2976 
     85 H85        21.6073  -25.4154  -41.3323 H         1 UNK         0.3116 
     86 H86        23.2232  -25.0219  -39.8355 H         1 UNK         0.0646 
     87 H87        23.2307  -22.9786  -41.1620 H         1 UNK         0.0847 
     88 H88        24.8829  -23.3120  -40.6845 H         1 UNK         0.0847 
     89 H89        24.3563  -23.6482  -42.3326 H         1 UNK         0.0847 
     90 H90        25.7686  -25.0939  -42.2247 H         1 UNK         0.3040 
     91 H91        27.5452  -26.6800  -40.6973 H         1 UNK         0.1015 
     92 H92        27.5963  -25.9300  -43.6731 H         1 UNK         0.0786 
     93 H93        28.9631  -26.5540  -42.7599 H         1 UNK         0.0786 
     94 H94        28.2903  -24.9849  -42.3541 H         1 UNK         0.0786 
     95 H95        25.0203  -27.6916  -42.8872 H         1 UNK         0.3172 
     96 H96        26.0043  -30.3726  -43.3826 H         1 UNK         0.0595 
     97 H97        23.1674  -29.2241  -43.4637 H         1 UNK         0.0839 
     98 H98        23.6457  -30.7938  -44.0912 H         1 UNK         0.0839 
     99 H99        24.2767  -29.3278  -44.8252 H         1 UNK         0.0839 
    100 H100       24.7736  -28.8420  -40.5487 H         1 UNK         0.2998 
    101 H101       24.2695  -29.4685  -38.5040 H         1 UNK         0.0822 
    102 H102       25.5201  -31.3714  -37.5445 H         1 UNK         0.0787 
    103 H103       25.8274  -32.0298  -39.1450 H         1 UNK         0.0787 
    104 H104       26.5482  -30.4939  -38.6656 H         1 UNK         0.0787 
    105 H105       22.1902  -29.8326  -40.2297 H         1 UNK         0.3055 
    106 H106       20.1722  -30.6905  -40.5188 H         1 UNK         0.1106 
    107 H107       18.9861  -31.8347  -38.7060 H         1 UNK         0.0828 
    108 H108       20.4875  -32.1882  -37.8688 H         1 UNK         0.0828 
    109 H109       19.9337  -30.5216  -38.0287 H         1 UNK         0.0828 
    110 H110       22.2931  -31.8403  -41.8402 H         1 UNK         0.2931 
    111 H111       22.7688  -33.4112  -43.3003 H         1 UNK         0.0412 
    112 H112       24.3519  -35.3361  -40.6419 H         1 UNK         0.3472 
    113 H113       24.1771  -33.6590  -41.1296 H         1 UNK         0.3472 
    114 H114       19.9591  -34.5204  -42.7926 H         1 UNK         0.0970 
    115 H115       21.0503  -35.1627  -43.9826 H         1 UNK         0.0970 
    116 H116       19.6871  -31.4840  -42.9101 H         1 UNK         0.0612 
    117 H117       18.3850  -32.6020  -43.2639 H         1 UNK         0.0612 
@<TRIPOS>BOND
     1    1    2 1    
     2    1   62 1    
     3    1   63 1    
     4    1   64 1    
     5    2    3 2    
     6    2    4 am   BACKBONE|DICT|INTERRES
     7    4    5 1    
     8    4   65 1    
     9    5    6 1    
    10    5   25 1    
    11    5   66 1    
    12    6    7 1    
    13    6   67 1    
    14    6   68 1    
    15    7    8 1    
    16    8    9 1    
    17    8   69 1    
    18    8   70 1    
    19    9   10 ar   
    20    9   14 ar   
    21   10   11 ar   
    22   10   71 1    
    23   11   12 ar   
    24   11   61 1    
    25   12   13 ar   
    26   12   72 1    
    27   13   14 ar   
    28   13   15 1    
    29   14   73 1    
    30   15   16 1    
    31   15   74 1    
    32   15   75 1    
    33   16   17 1    
    34   17   18 1    
    35   17   76 1    
    36   17   77 1    
    37   18   19 1    
    38   18   27 1    
    39   18   78 1    
    40   19   20 am   BACKBONE|DICT|INTERRES
    41   19   79 1    
    42   20   21 2    
    43   20   22 1    
    44   22   23 1    
    45   22   24 1    
    46   22   80 1    
    47   23   81 1    
    48   23   82 1    
    49   23   83 1    
    50   24   25 am   BACKBONE|DICT|INTERRES
    51   24   84 1    
    52   25   26 2    
    53   27   28 2    
    54   27   29 am   BACKBONE|DICT|INTERRES
    55   29   30 1    
    56   29   85 1    
    57   30   31 1    
    58   30   32 1    
    59   30   86 1    
    60   31   87 1    
    61   31   88 1    
    62   31   89 1    
    63   32   33 2    
    64   32   34 am   BACKBONE|DICT|INTERRES
    65   34   35 1    
    66   34   90 1    
    67   35   36 1    
    68   35   37 1    
    69   35   91 1    
    70   36   92 1    
    71   36   93 1    
    72   36   94 1    
    73   37   38 2    
    74   37   39 am   BACKBONE|DICT|INTERRES
    75   39   40 1    
    76   39   95 1    
    77   40   41 1    
    78   40   42 1    
    79   40   96 1    
    80   41   97 1    
    81   41   98 1    
    82   41   99 1    
    83   42   43 2    
    84   42   44 am   BACKBONE|DICT|INTERRES
    85   44   45 1    
    86   44  100 1    
    87   45   46 1    
    88   45   47 1    
    89   45  101 1    
    90   46  102 1    
    91   46  103 1    
    92   46  104 1    
    93   47   48 2    
    94   47   49 am   BACKBONE|DICT|INTERRES
    95   49   50 1    
    96   49  105 1    
    97   50   51 1    
    98   50   52 1    
    99   50  106 1    
   100   51  107 1    
   101   51  108 1    
   102   51  109 1    
   103   52   53 2    
   104   52   54 am   BACKBONE|DICT|INTERRES
   105   54   55 1    
   106   54  110 1    
   107   55   56 1    
   108   55   59 1    
   109   55  111 1    
   110   56   57 am   BACKBONE|DICT|INTERRES
   111   56   58 2    
   112   57  112 1    
   113   57  113 1    
   114   59   60 1    
   115   59  114 1    
   116   59  115 1    
   117   60   61 1    
   118   61  116 1    
   119   61  117 1    
@<TRIPOS>SUBSTRUCTURE
     1 UNK         1 GROUP             0       ****    0 ROOT    
