@<TRIPOS>MOLECULE
3R8
117   119    1
SMALL
USER_CHARGES


@<TRIPOS>ATOM
      1 CA         16.6212  -23.5275  -49.3848 C.3       0 UNK        -0.2013 
      2 C          17.7131  -24.3058  -48.6657 C.2       0 UNK         0.4866 
      3 O          18.8962  -24.0294  -48.8676 O.2       0 UNK        -0.5176 
      4 N          17.3271  -25.2820  -47.8342 N.am      1 UNK        -0.4884 
      5 CA         18.2384  -26.0813  -47.0082 C.3       1 UNK         0.0853 
      6 C6         17.5547  -27.3888  -46.5305 C.3       10 UNK        -0.0849 
      7 S7         18.7584  -28.7313  -46.2645 S.3       10 UNK        -0.2776 
      8 C8         17.6673  -30.1213  -45.8213 C.3       10 UNK         0.0316 
      9 C9         17.4014  -30.1655  -44.3242 C.ar      10 UNK        -0.0863 
     10 C10        18.2396  -30.9067  -43.4864 C.ar      10 UNK        -0.1009 
     11 C11        18.0191  -30.9445  -42.1059 C.ar      10 UNK        -0.0712 
     12 C12        16.9311  -30.2527  -41.5678 C.ar      10 UNK        -0.0894 
     13 C13        16.1174  -29.4640  -42.3897 C.ar      10 UNK        -0.0745 
     14 C14        16.3394  -29.4464  -43.7700 C.ar      10 UNK        -0.0972 
     15 C15        15.0686  -28.5495  -41.7747 C.3       10 UNK         0.0209 
     16 S16        15.8141  -27.3532  -40.6112 S.3       10 UNK        -0.2568 
     17 C17        17.0165  -26.4316  -41.6440 C.3       10 UNK        -0.0983 
     18 CA         18.4350  -27.0724  -41.7105 C.3       3 UNK         0.0876 
     19 N          19.2492  -26.5231  -42.7962 N.am      3 UNK        -0.4424 
     20 C          19.8416  -25.3212  -42.8419 C.2       2 UNK         0.4918 
     21 O          19.8127  -24.4908  -41.9341 O.2       2 UNK        -0.4875 
     22 CA         20.5864  -24.9831  -44.1470 C.3       2 UNK         0.0481 
     23 CB         22.0584  -25.4162  -44.0479 C.3       2 UNK        -0.1831 
     24 N          19.9708  -25.5889  -45.3347 N.am      2 UNK        -0.4498 
     25 C          18.7620  -25.2564  -45.8127 C.2       1 UNK         0.5027 
     26 O          18.0533  -24.3718  -45.3238 O.2       1 UNK        -0.4969 
     27 C          19.2005  -27.1357  -40.3695 C.2       3 UNK         0.5005 
     28 O          18.7867  -26.5335  -39.3761 O.2       3 UNK        -0.5279 
     29 N          20.3220  -27.8673  -40.3754 N.am      4 UNK        -0.4463 
     30 CA         21.1527  -28.1458  -39.2092 C.3       4 UNK         0.0283 
     31 CB         22.0223  -26.9217  -38.8619 C.3       4 UNK        -0.1875 
     32 C          22.0146  -29.3825  -39.4849 C.2       4 UNK         0.4949 
     33 O          22.2148  -29.7575  -40.6462 O.2       4 UNK        -0.5039 
     34 N          22.5242  -29.9853  -38.4050 N.am      5 UNK        -0.4663 
     35 CA         23.5087  -31.0662  -38.4506 C.3       5 UNK         0.0242 
     36 CB         23.6329  -31.7018  -37.0575 C.3       5 UNK        -0.1982 
     37 C          24.8712  -30.5429  -38.9322 C.2       5 UNK         0.5017 
     38 O          25.2251  -29.4003  -38.6317 O.2       5 UNK        -0.5012 
     39 N          25.5907  -31.3738  -39.6955 N.am      6 UNK        -0.4439 
     40 CA         26.8640  -31.1249  -40.3873 C.3       6 UNK         0.0297 
     41 CB         27.9817  -30.6936  -39.4174 C.3       6 UNK        -0.2006 
     42 C          26.7437  -30.1559  -41.5779 C.2       6 UNK         0.4892 
     43 O          27.3784  -30.3930  -42.6059 O.2       6 UNK        -0.5089 
     44 N          25.9221  -29.1071  -41.4382 N.am      7 UNK        -0.4243 
     45 CA         25.5752  -28.1594  -42.4974 C.3       7 UNK         0.0196 
     46 CB         24.8544  -26.9503  -41.8838 C.3       7 UNK        -0.2007 
     47 C          24.7057  -28.7944  -43.5948 C.2       7 UNK         0.5020 
     48 O          24.8771  -28.4524  -44.7651 O.2       7 UNK        -0.5147 
     49 N          23.7985  -29.7000  -43.2043 N.am      8 UNK        -0.4734 
     50 CA         22.9240  -30.4341  -44.1157 C.3       8 UNK         0.0238 
     51 CB         21.5483  -29.7526  -44.1964 C.3       8 UNK        -0.1912 
     52 C          22.8135  -31.9085  -43.7109 C.2       8 UNK         0.5038 
     53 O          23.1893  -32.7722  -44.5046 O.2       8 UNK        -0.5046 
     54 N          22.2983  -32.1779  -42.5035 N.am      9 UNK        -0.4200 
     55 CA         22.1011  -33.5456  -41.9915 C.3       9 UNK         0.0839 
     56 C          23.4216  -34.1657  -41.4674 C.2       9 UNK         0.5513 
     57 N          23.6341  -35.4551  -41.6867 N.am      9 UNK        -0.7519 
     58 O          24.2299  -33.5029  -40.8234 O.2       9 UNK        -0.4960 
     59 C59        20.9861  -33.6115  -40.9154 C.3       10 UNK        -0.0876 
     60 S60        19.3340  -33.3575  -41.6469 S.3       10 UNK        -0.2414 
     61 C61        19.0191  -31.6291  -41.1853 C.3       10 UNK         0.0169 
     62 H62        16.6810  -22.4710  -49.1248 H         1 UNK         0.0903 
     63 H63        16.7425  -23.6204  -50.4637 H         1 UNK         0.0903 
     64 H64        15.6253  -23.8849  -49.1238 H         1 UNK         0.0903 
     65 H65        16.3411  -25.4376  -47.6787 H         1 UNK         0.3096 
     66 H66        19.0918  -26.3408  -47.6400 H         1 UNK         0.1121 
     67 H67        16.9635  -27.2283  -45.6270 H         1 UNK         0.0849 
     68 H68        16.8538  -27.7423  -47.2888 H         1 UNK         0.0849 
     69 H69        16.7297  -30.0601  -46.3760 H         1 UNK         0.0865 
     70 H70        18.1419  -31.0515  -46.1377 H         1 UNK         0.0865 
     71 H71        19.0808  -31.4413  -43.9050 H         1 UNK         0.1346 
     72 H72        16.7708  -30.2476  -40.4980 H         1 UNK         0.1412 
     73 H73        15.7087  -28.8441  -44.4091 H         1 UNK         0.1426 
     74 H74        14.3340  -29.1548  -41.2420 H         1 UNK         0.0716 
     75 H75        14.5216  -28.0027  -42.5444 H         1 UNK         0.0716 
     76 H76        17.0834  -25.4102  -41.2655 H         1 UNK         0.0695 
     77 H77        16.6008  -26.3480  -42.6495 H         1 UNK         0.0695 
     78 H78        18.3134  -28.1079  -42.0051 H         1 UNK         0.0983 
     79 H79        19.3404  -27.1145  -43.6094 H         1 UNK         0.3095 
     80 H80        20.5605  -23.8987  -44.2732 H         1 UNK         0.0454 
     81 H81        22.1611  -26.4926  -43.9089 H         1 UNK         0.0851 
     82 H82        22.5458  -24.9329  -43.2001 H         1 UNK         0.0851 
     83 H83        22.6178  -25.1376  -44.9410 H         1 UNK         0.0851 
     84 H84        20.4870  -26.3284  -45.7905 H         1 UNK         0.2976 
     85 H85        20.6184  -28.3470  -41.2158 H         1 UNK         0.3116 
     86 H86        20.5020  -28.3779  -38.3632 H         1 UNK         0.0646 
     87 H87        22.6088  -26.5859  -39.7154 H         1 UNK         0.0847 
     88 H88        22.7199  -27.1434  -38.0533 H         1 UNK         0.0847 
     89 H89        21.4100  -26.0817  -38.5340 H         1 UNK         0.0847 
     90 H90        22.3351  -29.5906  -37.4949 H         1 UNK         0.3040 
     91 H91        23.1485  -31.8224  -39.1490 H         1 UNK         0.1015 
     92 H92        22.6760  -32.0952  -36.7135 H         1 UNK         0.0786 
     93 H93        23.9888  -30.9849  -36.3162 H         1 UNK         0.0786 
     94 H94        24.3380  -32.5342  -37.0708 H         1 UNK         0.0786 
     95 H95        25.1513  -32.2588  -39.9548 H         1 UNK         0.3172 
     96 H96        27.1527  -32.0912  -40.8041 H         1 UNK         0.0595 
     97 H97        27.8000  -29.7068  -38.9912 H         1 UNK         0.0839 
     98 H98        28.9422  -30.6478  -39.9321 H         1 UNK         0.0839 
     99 H99        28.0883  -31.4008  -38.5949 H         1 UNK         0.0839 
    100 H100       25.4854  -28.9770  -40.5310 H         1 UNK         0.2998 
    101 H101       26.5031  -27.8130  -42.9577 H         1 UNK         0.0822 
    102 H102       23.8806  -27.2313  -41.4837 H         1 UNK         0.0787 
    103 H103       25.4363  -26.5008  -41.0790 H         1 UNK         0.0787 
    104 H104       24.6886  -26.1776  -42.6353 H         1 UNK         0.0787 
    105 H105       23.6936  -29.8975  -42.2160 H         1 UNK         0.3055 
    106 H106       23.3552  -30.4271  -45.1198 H         1 UNK         0.1106 
    107 H107       21.0624  -29.6841  -43.2234 H         1 UNK         0.0828 
    108 H108       21.6318  -28.7456  -44.6027 H         1 UNK         0.0828 
    109 H109       20.8875  -30.3089  -44.8608 H         1 UNK         0.0828 
    110 H110       22.0708  -31.4146  -41.8777 H         1 UNK         0.2931 
    111 H111       21.7717  -34.1648  -42.8295 H         1 UNK         0.0412 
    112 H112       22.9726  -36.0128  -42.2049 H         1 UNK         0.3472 
    113 H113       24.4798  -35.8779  -41.3369 H         1 UNK         0.3472 
    114 H114       20.9703  -34.5941  -40.4395 H         1 UNK         0.0970 
    115 H115       21.1656  -32.8942  -40.1129 H         1 UNK         0.0970 
    116 H116       19.9495  -31.0648  -41.2300 H         1 UNK         0.0612 
    117 H117       18.6869  -31.5982  -40.1465 H         1 UNK         0.0612 
@<TRIPOS>BOND
     1    1    2 1    
     2    1   62 1    
     3    1   63 1    
     4    1   64 1    
     5    2    3 2    
     6    2    4 am   BACKBONE|DICT|INTERRES
     7    4    5 1    
     8    4   65 1    
     9    5    6 1    
    10    5   25 1    
    11    5   66 1    
    12    6    7 1    
    13    6   67 1    
    14    6   68 1    
    15    7    8 1    
    16    8    9 1    
    17    8   69 1    
    18    8   70 1    
    19    9   10 ar   
    20    9   14 ar   
    21   10   11 ar   
    22   10   71 1    
    23   11   12 ar   
    24   11   61 1    
    25   12   13 ar   
    26   12   72 1    
    27   13   14 ar   
    28   13   15 1    
    29   14   73 1    
    30   15   16 1    
    31   15   74 1    
    32   15   75 1    
    33   16   17 1    
    34   17   18 1    
    35   17   76 1    
    36   17   77 1    
    37   18   19 1    
    38   18   27 1    
    39   18   78 1    
    40   19   20 am   BACKBONE|DICT|INTERRES
    41   19   79 1    
    42   20   21 2    
    43   20   22 1    
    44   22   23 1    
    45   22   24 1    
    46   22   80 1    
    47   23   81 1    
    48   23   82 1    
    49   23   83 1    
    50   24   25 am   BACKBONE|DICT|INTERRES
    51   24   84 1    
    52   25   26 2    
    53   27   28 2    
    54   27   29 am   BACKBONE|DICT|INTERRES
    55   29   30 1    
    56   29   85 1    
    57   30   31 1    
    58   30   32 1    
    59   30   86 1    
    60   31   87 1    
    61   31   88 1    
    62   31   89 1    
    63   32   33 2    
    64   32   34 am   BACKBONE|DICT|INTERRES
    65   34   35 1    
    66   34   90 1    
    67   35   36 1    
    68   35   37 1    
    69   35   91 1    
    70   36   92 1    
    71   36   93 1    
    72   36   94 1    
    73   37   38 2    
    74   37   39 am   BACKBONE|DICT|INTERRES
    75   39   40 1    
    76   39   95 1    
    77   40   41 1    
    78   40   42 1    
    79   40   96 1    
    80   41   97 1    
    81   41   98 1    
    82   41   99 1    
    83   42   43 2    
    84   42   44 am   BACKBONE|DICT|INTERRES
    85   44   45 1    
    86   44  100 1    
    87   45   46 1    
    88   45   47 1    
    89   45  101 1    
    90   46  102 1    
    91   46  103 1    
    92   46  104 1    
    93   47   48 2    
    94   47   49 am   BACKBONE|DICT|INTERRES
    95   49   50 1    
    96   49  105 1    
    97   50   51 1    
    98   50   52 1    
    99   50  106 1    
   100   51  107 1    
   101   51  108 1    
   102   51  109 1    
   103   52   53 2    
   104   52   54 am   BACKBONE|DICT|INTERRES
   105   54   55 1    
   106   54  110 1    
   107   55   56 1    
   108   55   59 1    
   109   55  111 1    
   110   56   57 am   BACKBONE|DICT|INTERRES
   111   56   58 2    
   112   57  112 1    
   113   57  113 1    
   114   59   60 1    
   115   59  114 1    
   116   59  115 1    
   117   60   61 1    
   118   61  116 1    
   119   61  117 1    
@<TRIPOS>SUBSTRUCTURE
     1 UNK         1 GROUP             0       ****    0 ROOT    
