@<TRIPOS>MOLECULE
3R8
117   119    1
SMALL
USER_CHARGES


@<TRIPOS>ATOM
      1 CA         15.8458  -31.5513  -45.4951 C.3       0 UNK        -0.2013 
      2 C          15.9928  -30.2158  -44.7818 C.2       0 UNK         0.4866 
      3 O          15.5895  -30.0941  -43.6258 O.2       0 UNK        -0.5176 
      4 N          16.5691  -29.2201  -45.4619 N.am      1 UNK        -0.4884 
      5 CA         16.9137  -27.9024  -44.9309 C.3       1 UNK         0.0853 
      6 C6         15.6697  -26.9917  -44.6864 C.3       10 UNK        -0.0849 
      7 S7         15.9530  -25.4413  -43.7438 S.3       10 UNK        -0.2776 
      8 C8         15.8684  -25.9516  -41.9945 C.3       10 UNK         0.0316 
      9 C9         17.1915  -26.5374  -41.5237 C.ar      10 UNK        -0.0863 
     10 C10        17.3586  -27.9216  -41.4750 C.ar      10 UNK        -0.1009 
     11 C11        18.5987  -28.4736  -41.1551 C.ar      10 UNK        -0.0712 
     12 C12        19.6510  -27.6363  -40.7792 C.ar      10 UNK        -0.0894 
     13 C13        19.4980  -26.2467  -40.8070 C.ar      10 UNK        -0.0745 
     14 C14        18.2615  -25.7029  -41.1775 C.ar      10 UNK        -0.0972 
     15 C15        20.6704  -25.3360  -40.4543 C.3       10 UNK         0.0209 
     16 S16        21.2676  -24.3740  -41.8871 S.3       10 UNK        -0.2568 
     17 C17        22.4700  -25.4916  -42.7016 C.3       10 UNK        -0.0983 
     18 CA         21.8165  -26.7026  -43.4219 C.3       3 UNK         0.0876 
     19 N          20.7146  -26.3077  -44.3085 N.am      3 UNK        -0.4424 
     20 C          20.7987  -25.6527  -45.4783 C.2       2 UNK         0.4918 
     21 O          21.8582  -25.3251  -46.0139 O.2       2 UNK        -0.4875 
     22 CA         19.4653  -25.2605  -46.1497 C.3       2 UNK         0.0481 
     23 CB         19.5383  -25.2943  -47.6912 C.3       2 UNK        -0.1831 
     24 N          18.3161  -26.0174  -45.6374 N.am      2 UNK        -0.4498 
     25 C          18.0410  -27.3169  -45.8049 C.2       1 UNK         0.5027 
     26 O          18.6733  -28.0608  -46.5599 O.2       1 UNK        -0.4969 
     27 C          22.8156  -27.6252  -44.1519 C.2       3 UNK         0.5005 
     28 O          23.9881  -27.2803  -44.3141 O.2       3 UNK        -0.5279 
     29 N          22.2839  -28.7528  -44.6510 N.am      4 UNK        -0.4463 
     30 CA         22.9218  -29.6509  -45.6166 C.3       4 UNK         0.0283 
     31 CB         21.9150  -30.7259  -46.0558 C.3       4 UNK        -0.1875 
     32 C          24.2416  -30.2912  -45.1551 C.2       4 UNK         0.4949 
     33 O          25.1315  -30.4625  -45.9893 O.2       4 UNK        -0.5039 
     34 N          24.3571  -30.6229  -43.8621 N.am      5 UNK        -0.4663 
     35 CA         25.6094  -31.0834  -43.2536 C.3       5 UNK         0.0242 
     36 CB         25.4192  -32.4643  -42.6010 C.3       5 UNK        -0.1982 
     37 C          26.1149  -30.0403  -42.2501 C.2       5 UNK         0.5017 
     38 O          27.2644  -29.6110  -42.3541 O.2       5 UNK        -0.5012 
     39 N          25.2422  -29.6311  -41.3232 N.am      6 UNK        -0.4439 
     40 CA         25.4611  -28.5829  -40.3291 C.3       6 UNK         0.0297 
     41 CB         26.4832  -29.0378  -39.2596 C.3       6 UNK        -0.2006 
     42 C          24.0756  -28.2305  -39.7728 C.2       6 UNK         0.4892 
     43 O          23.1667  -27.9775  -40.5623 O.2       6 UNK        -0.5089 
     44 N          23.9024  -28.2946  -38.4448 N.am      7 UNK        -0.4243 
     45 CA         22.5868  -28.3332  -37.7944 C.3       7 UNK         0.0196 
     46 CB         22.7605  -28.1433  -36.2792 C.3       7 UNK        -0.2007 
     47 C          21.8274  -29.6419  -38.0963 C.2       7 UNK         0.5020 
     48 O          20.5979  -29.6541  -38.0568 O.2       7 UNK        -0.5147 
     49 N          22.5755  -30.7081  -38.4104 N.am      8 UNK        -0.4734 
     50 CA         22.0694  -31.9511  -38.9847 C.3       8 UNK         0.0238 
     51 CB         23.0267  -33.0939  -38.6074 C.3       8 UNK        -0.1912 
     52 C          21.9666  -31.8294  -40.5141 C.2       8 UNK         0.5038 
     53 O          22.6951  -31.0393  -41.1235 O.2       8 UNK        -0.5046 
     54 N          21.0923  -32.6503  -41.0990 N.am      9 UNK        -0.4200 
     55 CA         20.8796  -32.7876  -42.5430 C.3       9 UNK         0.0839 
     56 C          20.8901  -34.2889  -42.9231 C.2       9 UNK         0.5513 
     57 N          21.3651  -34.6248  -44.1141 N.am      9 UNK        -0.7519 
     58 O          20.4430  -35.1466  -42.1634 O.2       9 UNK        -0.4960 
     59 C59        19.5546  -32.1165  -42.9922 C.3       10 UNK        -0.0876 
     60 S60        19.6193  -30.2972  -42.9131 S.3       10 UNK        -0.2414 
     61 C61        18.8243  -29.9658  -41.3079 C.3       10 UNK         0.0169 
     62 H62        16.2264  -31.5133  -46.5156 H         1 UNK         0.0903 
     63 H63        16.3941  -32.3241  -44.9570 H         1 UNK         0.0903 
     64 H64        14.7965  -31.8421  -45.5348 H         1 UNK         0.0903 
     65 H65        16.9487  -29.3875  -46.3866 H         1 UNK         0.3096 
     66 H66        17.4010  -28.0877  -43.9792 H         1 UNK         0.1121 
     67 H67        15.2216  -26.7244  -45.6448 H         1 UNK         0.0849 
     68 H68        14.8981  -27.5522  -44.1573 H         1 UNK         0.0849 
     69 H69        15.0508  -26.6599  -41.8507 H         1 UNK         0.0865 
     70 H70        15.6245  -25.0801  -41.3851 H         1 UNK         0.0865 
     71 H71        16.5427  -28.5706  -41.7627 H         1 UNK         0.1346 
     72 H72        20.6059  -28.0722  -40.5199 H         1 UNK         0.1412 
     73 H73        18.1411  -24.6287  -41.2209 H         1 UNK         0.1426 
     74 H74        21.4981  -25.9031  -40.0271 H         1 UNK         0.0716 
     75 H75        20.3480  -24.6395  -39.6792 H         1 UNK         0.0716 
     76 H76        23.1962  -25.8252  -41.9604 H         1 UNK         0.0695 
     77 H77        23.0326  -24.8916  -43.4188 H         1 UNK         0.0695 
     78 H78        21.3851  -27.3362  -42.6529 H         1 UNK         0.0983 
     79 H79        19.7911  -26.4947  -43.9489 H         1 UNK         0.3095 
     80 H80        19.2828  -24.2252  -45.8586 H         1 UNK         0.0454 
     81 H81        18.5793  -25.0385  -48.1412 H         1 UNK         0.0851 
     82 H82        19.8359  -26.2742  -48.0650 H         1 UNK         0.0851 
     83 H83        20.2700  -24.5754  -48.0615 H         1 UNK         0.0851 
     84 H84        17.7070  -25.5054  -45.0070 H         1 UNK         0.2976 
     85 H85        21.3138  -28.9477  -44.4438 H         1 UNK         0.3116 
     86 H86        23.1570  -29.0432  -46.4930 H         1 UNK         0.0646 
     87 H87        22.3524  -31.3891  -46.8034 H         1 UNK         0.0847 
     88 H88        21.0261  -30.2791  -46.5025 H         1 UNK         0.0847 
     89 H89        21.5933  -31.3446  -45.2196 H         1 UNK         0.0847 
     90 H90        23.5827  -30.4383  -43.2367 H         1 UNK         0.3040 
     91 H91        26.3880  -31.1923  -44.0120 H         1 UNK         0.1015 
     92 H92        25.0658  -33.1971  -43.3265 H         1 UNK         0.0786 
     93 H93        24.7094  -32.4447  -41.7764 H         1 UNK         0.0786 
     94 H94        26.3642  -32.8342  -42.2014 H         1 UNK         0.0786 
     95 H95        24.3020  -30.0260  -41.3192 H         1 UNK         0.3172 
     96 H96        25.8426  -27.6938  -40.8347 H         1 UNK         0.0595 
     97 H97        26.1646  -29.9476  -38.7492 H         1 UNK         0.0839 
     98 H98        26.6443  -28.2642  -38.5077 H         1 UNK         0.0839 
     99 H99        27.4579  -29.2401  -39.7031 H         1 UNK         0.0839 
    100 H100       24.7052  -28.4815  -37.8614 H         1 UNK         0.2998 
    101 H101       21.9862  -27.5066  -38.1796 H         1 UNK         0.0822 
    102 H102       23.3584  -28.9411  -35.8366 H         1 UNK         0.0787 
    103 H103       23.2440  -27.1932  -36.0511 H         1 UNK         0.0787 
    104 H104       21.7933  -28.1427  -35.7745 H         1 UNK         0.0787 
    105 H105       23.5752  -30.5822  -38.4457 H         1 UNK         0.3055 
    106 H106       21.0785  -32.1627  -38.5758 H         1 UNK         0.1106 
    107 H107       22.6677  -34.0503  -38.9901 H         1 UNK         0.0828 
    108 H108       24.0266  -32.9360  -39.0144 H         1 UNK         0.0828 
    109 H109       23.1171  -33.1942  -37.5256 H         1 UNK         0.0828 
    110 H110       20.5877  -33.3221  -40.5374 H         1 UNK         0.2931 
    111 H111       21.7102  -32.3185  -43.0740 H         1 UNK         0.0412 
    112 H112       21.7290  -33.9327  -44.7494 H         1 UNK         0.3472 
    113 H113       21.3671  -35.5971  -44.3814 H         1 UNK         0.3472 
    114 H114       19.3312  -32.3739  -44.0294 H         1 UNK         0.0970 
    115 H115       18.7107  -32.4860  -42.4069 H         1 UNK         0.0970 
    116 H116       17.8761  -30.5026  -41.2493 H         1 UNK         0.0612 
    117 H117       19.4487  -30.3350  -40.4948 H         1 UNK         0.0612 
@<TRIPOS>BOND
     1    1    2 1    
     2    1   62 1    
     3    1   63 1    
     4    1   64 1    
     5    2    3 2    
     6    2    4 am   BACKBONE|DICT|INTERRES
     7    4    5 1    
     8    4   65 1    
     9    5    6 1    
    10    5   25 1    
    11    5   66 1    
    12    6    7 1    
    13    6   67 1    
    14    6   68 1    
    15    7    8 1    
    16    8    9 1    
    17    8   69 1    
    18    8   70 1    
    19    9   10 ar   
    20    9   14 ar   
    21   10   11 ar   
    22   10   71 1    
    23   11   12 ar   
    24   11   61 1    
    25   12   13 ar   
    26   12   72 1    
    27   13   14 ar   
    28   13   15 1    
    29   14   73 1    
    30   15   16 1    
    31   15   74 1    
    32   15   75 1    
    33   16   17 1    
    34   17   18 1    
    35   17   76 1    
    36   17   77 1    
    37   18   19 1    
    38   18   27 1    
    39   18   78 1    
    40   19   20 am   BACKBONE|DICT|INTERRES
    41   19   79 1    
    42   20   21 2    
    43   20   22 1    
    44   22   23 1    
    45   22   24 1    
    46   22   80 1    
    47   23   81 1    
    48   23   82 1    
    49   23   83 1    
    50   24   25 am   BACKBONE|DICT|INTERRES
    51   24   84 1    
    52   25   26 2    
    53   27   28 2    
    54   27   29 am   BACKBONE|DICT|INTERRES
    55   29   30 1    
    56   29   85 1    
    57   30   31 1    
    58   30   32 1    
    59   30   86 1    
    60   31   87 1    
    61   31   88 1    
    62   31   89 1    
    63   32   33 2    
    64   32   34 am   BACKBONE|DICT|INTERRES
    65   34   35 1    
    66   34   90 1    
    67   35   36 1    
    68   35   37 1    
    69   35   91 1    
    70   36   92 1    
    71   36   93 1    
    72   36   94 1    
    73   37   38 2    
    74   37   39 am   BACKBONE|DICT|INTERRES
    75   39   40 1    
    76   39   95 1    
    77   40   41 1    
    78   40   42 1    
    79   40   96 1    
    80   41   97 1    
    81   41   98 1    
    82   41   99 1    
    83   42   43 2    
    84   42   44 am   BACKBONE|DICT|INTERRES
    85   44   45 1    
    86   44  100 1    
    87   45   46 1    
    88   45   47 1    
    89   45  101 1    
    90   46  102 1    
    91   46  103 1    
    92   46  104 1    
    93   47   48 2    
    94   47   49 am   BACKBONE|DICT|INTERRES
    95   49   50 1    
    96   49  105 1    
    97   50   51 1    
    98   50   52 1    
    99   50  106 1    
   100   51  107 1    
   101   51  108 1    
   102   51  109 1    
   103   52   53 2    
   104   52   54 am   BACKBONE|DICT|INTERRES
   105   54   55 1    
   106   54  110 1    
   107   55   56 1    
   108   55   59 1    
   109   55  111 1    
   110   56   57 am   BACKBONE|DICT|INTERRES
   111   56   58 2    
   112   57  112 1    
   113   57  113 1    
   114   59   60 1    
   115   59  114 1    
   116   59  115 1    
   117   60   61 1    
   118   61  116 1    
   119   61  117 1    
@<TRIPOS>SUBSTRUCTURE
     1 UNK         1 GROUP             0       ****    0 ROOT    
