@<TRIPOS>MOLECULE
3R8
117   119    1
SMALL
USER_CHARGES


@<TRIPOS>ATOM
      1 CA         16.4284  -23.4808  -47.6737 C.3       0 UNK        -0.2013 
      2 C          17.7563  -24.2013  -47.4918 C.2       0 UNK         0.4866 
      3 O          18.7948  -23.5504  -47.3687 O.2       0 UNK        -0.5176 
      4 N          17.7326  -25.5396  -47.4842 N.am      1 UNK        -0.4884 
      5 CA         18.8957  -26.3984  -47.2386 C.3       1 UNK         0.0853 
      6 C6         18.6817  -27.8150  -47.8364 C.3       10 UNK        -0.0849 
      7 S7         17.2366  -28.7131  -47.1626 S.3       10 UNK        -0.2776 
      8 C8         18.0719  -29.9454  -46.1091 C.3       10 UNK         0.0316 
      9 C9         17.3038  -30.2917  -44.8392 C.ar      10 UNK        -0.0863 
     10 C10        17.2731  -31.6145  -44.3919 C.ar      10 UNK        -0.1009 
     11 C11        16.7159  -31.9365  -43.1514 C.ar      10 UNK        -0.0712 
     12 C12        16.1280  -30.9298  -42.3796 C.ar      10 UNK        -0.0894 
     13 C13        16.1152  -29.6067  -42.8315 C.ar      10 UNK        -0.0745 
     14 C14        16.7109  -29.2948  -44.0577 C.ar      10 UNK        -0.0972 
     15 C15        15.4791  -28.5103  -41.9872 C.3       10 UNK         0.0209 
     16 S16        16.6454  -27.1642  -41.6020 S.3       10 UNK        -0.2568 
     17 C17        17.8528  -28.0051  -40.5240 C.3       10 UNK        -0.0983 
     18 CA         19.0626  -28.6130  -41.2838 C.3       3 UNK         0.0876 
     19 N          19.7046  -27.6617  -42.1958 N.am      3 UNK        -0.4424 
     20 C          20.4118  -28.0215  -43.2727 C.2       2 UNK         0.4918 
     21 O          20.5682  -29.1850  -43.6419 O.2       2 UNK        -0.4875 
     22 CA         21.0644  -26.8858  -44.0778 C.3       2 UNK         0.0481 
     23 CB         22.5870  -27.0885  -44.1480 C.3       2 UNK        -0.1831 
     24 N          20.5228  -26.7944  -45.4366 N.am      2 UNK        -0.4498 
     25 C          19.2695  -26.4231  -45.7365 C.2       1 UNK         0.5027 
     26 O          18.4337  -26.1049  -44.8860 O.2       1 UNK        -0.4969 
     27 C          20.0787  -29.1788  -40.2754 C.2       3 UNK         0.5005 
     28 O          20.0654  -30.3795  -40.0003 O.2       3 UNK        -0.5279 
     29 N          20.9280  -28.2969  -39.7352 N.am      4 UNK        -0.4463 
     30 CA         21.9249  -28.5751  -38.7078 C.3       4 UNK         0.0283 
     31 CB         21.2496  -28.5829  -37.3220 C.3       4 UNK        -0.1875 
     32 C          23.0331  -27.5161  -38.7926 C.2       4 UNK         0.4949 
     33 O          22.9246  -26.5710  -39.5805 O.2       4 UNK        -0.5039 
     34 N          24.0732  -27.6918  -37.9661 N.am      5 UNK        -0.4663 
     35 CA         25.2509  -26.8324  -37.7730 C.3       5 UNK         0.0242 
     36 CB         24.8593  -25.4153  -37.3054 C.3       5 UNK        -0.1982 
     37 C          26.1990  -26.7933  -38.9824 C.2       5 UNK         0.5017 
     38 O          27.3536  -27.2001  -38.8512 O.2       5 UNK        -0.5012 
     39 N          25.7006  -26.3227  -40.1324 N.am      6 UNK        -0.4439 
     40 CA         26.4265  -26.3012  -41.4060 C.3       6 UNK         0.0297 
     41 CB         25.7208  -25.3541  -42.3893 C.3       6 UNK        -0.2006 
     42 C          26.5807  -27.7104  -42.0039 C.2       6 UNK         0.4892 
     43 O          27.6451  -28.0358  -42.5305 O.2       6 UNK        -0.5089 
     44 N          25.5273  -28.5224  -41.8716 N.am      7 UNK        -0.4243 
     45 CA         25.4638  -29.9400  -42.2046 C.3       7 UNK         0.0196 
     46 CB         25.3955  -30.1476  -43.7290 C.3       7 UNK        -0.2007 
     47 C          24.2086  -30.4912  -41.5252 C.2       7 UNK         0.5020 
     48 O          23.2137  -29.7710  -41.4401 O.2       7 UNK        -0.5147 
     49 N          24.2665  -31.7406  -41.0525 N.am      8 UNK        -0.4734 
     50 CA         23.1229  -32.4477  -40.4738 C.3       8 UNK         0.0238 
     51 CB         23.6311  -33.5223  -39.4955 C.3       8 UNK        -0.1912 
     52 C          22.2837  -33.0491  -41.6102 C.2       8 UNK         0.5038 
     53 O          22.6117  -34.1364  -42.0922 O.2       8 UNK        -0.5046 
     54 N          21.2585  -32.3059  -42.0427 N.am      9 UNK        -0.4200 
     55 CA         20.4283  -32.5760  -43.2274 C.3       9 UNK         0.0839 
     56 C          21.2330  -32.5329  -44.5671 C.2       9 UNK         0.5513 
     57 N          20.6471  -32.9588  -45.6797 N.am      9 UNK        -0.7519 
     58 O          22.3761  -32.0853  -44.6305 O.2       9 UNK        -0.4960 
     59 C59        19.5399  -33.8484  -43.0636 C.3       10 UNK        -0.0876 
     60 S60        18.3174  -33.6889  -41.7146 S.3       10 UNK        -0.2414 
     61 C61        16.7732  -33.3661  -42.6323 C.3       10 UNK         0.0169 
     62 H62        15.5978  -24.1782  -47.7824 H         1 UNK         0.0903 
     63 H63        16.2259  -22.8444  -46.8124 H         1 UNK         0.0903 
     64 H64        16.4615  -22.8512  -48.5627 H         1 UNK         0.0903 
     65 H65        16.8496  -26.0270  -47.5485 H         1 UNK         0.3096 
     66 H66        19.7444  -25.9524  -47.7632 H         1 UNK         0.1121 
     67 H67        18.5330  -27.7260  -48.9138 H         1 UNK         0.0849 
     68 H68        19.5851  -28.4181  -47.7296 H         1 UNK         0.0849 
     69 H69        18.2591  -30.8387  -46.7071 H         1 UNK         0.0865 
     70 H70        19.0497  -29.5744  -45.8020 H         1 UNK         0.0865 
     71 H71        17.7304  -32.3897  -44.9884 H         1 UNK         0.1346 
     72 H72        15.6937  -31.1767  -41.4204 H         1 UNK         0.1412 
     73 H73        16.7422  -28.2641  -44.3849 H         1 UNK         0.1426 
     74 H74        15.0759  -28.9120  -41.0562 H         1 UNK         0.0716 
     75 H75        14.6328  -28.0941  -42.5351 H         1 UNK         0.0716 
     76 H76        18.1907  -27.2678  -39.7929 H         1 UNK         0.0695 
     77 H77        17.3372  -28.7792  -39.9522 H         1 UNK         0.0695 
     78 H78        18.6998  -29.4580  -41.8728 H         1 UNK         0.0983 
     79 H79        19.5629  -26.6815  -42.0011 H         1 UNK         0.3095 
     80 H80        20.8753  -25.9371  -43.5707 H         1 UNK         0.0454 
     81 H81        22.8484  -27.9712  -44.7325 H         1 UNK         0.0851 
     82 H82        23.0860  -26.2279  -44.5932 H         1 UNK         0.0851 
     83 H83        23.0045  -27.2318  -43.1505 H         1 UNK         0.0851 
     84 H84        21.1460  -27.0656  -46.1831 H         1 UNK         0.2976 
     85 H85        20.9554  -27.3470  -40.0837 H         1 UNK         0.3116 
     86 H86        22.3768  -29.5499  -38.8969 H         1 UNK         0.0646 
     87 H87        21.9609  -28.8193  -36.5303 H         1 UNK         0.0847 
     88 H88        20.4583  -29.3309  -37.2700 H         1 UNK         0.0847 
     89 H89        20.8079  -27.6140  -37.0859 H         1 UNK         0.0847 
     90 H90        24.0672  -28.5234  -37.3908 H         1 UNK         0.3040 
     91 H91        25.8154  -27.2892  -36.9577 H         1 UNK         0.1015 
     92 H92        24.2652  -25.4515  -36.3922 H         1 UNK         0.0786 
     93 H93        24.2832  -24.8733  -38.0557 H         1 UNK         0.0786 
     94 H94        25.7471  -24.8194  -37.0895 H         1 UNK         0.0786 
     95 H95        24.7154  -26.0722  -40.1390 H         1 UNK         0.3172 
     96 H96        27.4289  -25.9083  -41.2225 H         1 UNK         0.0595 
     97 H97        25.7277  -24.3280  -42.0214 H         1 UNK         0.0839 
     98 H98        24.6830  -25.6401  -42.5559 H         1 UNK         0.0839 
     99 H99        26.2208  -25.3528  -43.3589 H         1 UNK         0.0839 
    100 H100       24.6869  -28.1776  -41.4237 H         1 UNK         0.2998 
    101 H101       26.3466  -30.4386  -41.7990 H         1 UNK         0.0822 
    102 H102       26.2798  -29.7551  -44.2306 H         1 UNK         0.0787 
    103 H103       25.3272  -31.2083  -43.9740 H         1 UNK         0.0787 
    104 H104       24.5200  -29.6610  -44.1599 H         1 UNK         0.0787 
    105 H105       25.1063  -32.2835  -41.1965 H         1 UNK         0.3055 
    106 H106       22.4990  -31.7506  -39.9093 H         1 UNK         0.1106 
    107 H107       24.2910  -34.2411  -39.9832 H         1 UNK         0.0828 
    108 H108       24.1785  -33.0746  -38.6660 H         1 UNK         0.0828 
    109 H109       22.7980  -34.0825  -39.0690 H         1 UNK         0.0828 
    110 H110       21.0826  -31.4182  -41.5861 H         1 UNK         0.2931 
    111 H111       19.7650  -31.7143  -43.2850 H         1 UNK         0.0412 
    112 H112       21.1680  -32.9168  -46.5420 H         1 UNK         0.3472 
    113 H113       19.7161  -33.3385  -45.6797 H         1 UNK         0.3472 
    114 H114       20.1593  -34.7238  -42.8649 H         1 UNK         0.0970 
    115 H115       19.0011  -34.0871  -43.9793 H         1 UNK         0.0970 
    116 H116       15.9292  -33.5503  -41.9661 H         1 UNK         0.0612 
    117 H117       16.6693  -34.0772  -43.4531 H         1 UNK         0.0612 
@<TRIPOS>BOND
     1    1    2 1    
     2    1   62 1    
     3    1   63 1    
     4    1   64 1    
     5    2    3 2    
     6    2    4 am   BACKBONE|DICT|INTERRES
     7    4    5 1    
     8    4   65 1    
     9    5    6 1    
    10    5   25 1    
    11    5   66 1    
    12    6    7 1    
    13    6   67 1    
    14    6   68 1    
    15    7    8 1    
    16    8    9 1    
    17    8   69 1    
    18    8   70 1    
    19    9   10 ar   
    20    9   14 ar   
    21   10   11 ar   
    22   10   71 1    
    23   11   12 ar   
    24   11   61 1    
    25   12   13 ar   
    26   12   72 1    
    27   13   14 ar   
    28   13   15 1    
    29   14   73 1    
    30   15   16 1    
    31   15   74 1    
    32   15   75 1    
    33   16   17 1    
    34   17   18 1    
    35   17   76 1    
    36   17   77 1    
    37   18   19 1    
    38   18   27 1    
    39   18   78 1    
    40   19   20 am   BACKBONE|DICT|INTERRES
    41   19   79 1    
    42   20   21 2    
    43   20   22 1    
    44   22   23 1    
    45   22   24 1    
    46   22   80 1    
    47   23   81 1    
    48   23   82 1    
    49   23   83 1    
    50   24   25 am   BACKBONE|DICT|INTERRES
    51   24   84 1    
    52   25   26 2    
    53   27   28 2    
    54   27   29 am   BACKBONE|DICT|INTERRES
    55   29   30 1    
    56   29   85 1    
    57   30   31 1    
    58   30   32 1    
    59   30   86 1    
    60   31   87 1    
    61   31   88 1    
    62   31   89 1    
    63   32   33 2    
    64   32   34 am   BACKBONE|DICT|INTERRES
    65   34   35 1    
    66   34   90 1    
    67   35   36 1    
    68   35   37 1    
    69   35   91 1    
    70   36   92 1    
    71   36   93 1    
    72   36   94 1    
    73   37   38 2    
    74   37   39 am   BACKBONE|DICT|INTERRES
    75   39   40 1    
    76   39   95 1    
    77   40   41 1    
    78   40   42 1    
    79   40   96 1    
    80   41   97 1    
    81   41   98 1    
    82   41   99 1    
    83   42   43 2    
    84   42   44 am   BACKBONE|DICT|INTERRES
    85   44   45 1    
    86   44  100 1    
    87   45   46 1    
    88   45   47 1    
    89   45  101 1    
    90   46  102 1    
    91   46  103 1    
    92   46  104 1    
    93   47   48 2    
    94   47   49 am   BACKBONE|DICT|INTERRES
    95   49   50 1    
    96   49  105 1    
    97   50   51 1    
    98   50   52 1    
    99   50  106 1    
   100   51  107 1    
   101   51  108 1    
   102   51  109 1    
   103   52   53 2    
   104   52   54 am   BACKBONE|DICT|INTERRES
   105   54   55 1    
   106   54  110 1    
   107   55   56 1    
   108   55   59 1    
   109   55  111 1    
   110   56   57 am   BACKBONE|DICT|INTERRES
   111   56   58 2    
   112   57  112 1    
   113   57  113 1    
   114   59   60 1    
   115   59  114 1    
   116   59  115 1    
   117   60   61 1    
   118   61  116 1    
   119   61  117 1    
@<TRIPOS>SUBSTRUCTURE
     1 UNK         1 GROUP             0       ****    0 ROOT    
