@<TRIPOS>MOLECULE
3R8
117   119    1
SMALL
USER_CHARGES


@<TRIPOS>ATOM
      1 CA         17.4597  -23.5655  -48.6367 C.3       0 UNK        -0.2013 
      2 C          17.9692  -24.6218  -47.6681 C.2       0 UNK         0.4866 
      3 O          17.3513  -24.8463  -46.6277 O.2       0 UNK        -0.5176 
      4 N          19.1052  -25.2568  -47.9886 N.am      1 UNK        -0.4884 
      5 CA         19.7806  -26.3409  -47.2524 C.3       1 UNK         0.0853 
      6 C6         18.8770  -27.5875  -47.0463 C.3       10 UNK        -0.0849 
      7 S7         19.8267  -29.1442  -47.0804 S.3       10 UNK        -0.2776 
      8 C8         18.5584  -30.3515  -46.5859 C.3       10 UNK         0.0316 
      9 C9         18.2715  -30.2939  -45.0927 C.ar      10 UNK        -0.0863 
     10 C10        19.1221  -30.9380  -44.1901 C.ar      10 UNK        -0.1009 
     11 C11        18.8526  -30.9189  -42.8177 C.ar      10 UNK        -0.0712 
     12 C12        17.7305  -30.2274  -42.3494 C.ar      10 UNK        -0.0894 
     13 C13        16.8872  -29.5579  -43.2414 C.ar      10 UNK        -0.0745 
     14 C14        17.1540  -29.6072  -44.6122 C.ar      10 UNK        -0.0972 
     15 C15        15.6895  -28.7710  -42.7348 C.3       10 UNK         0.0209 
     16 S16        16.0422  -26.9850  -42.7009 S.3       10 UNK        -0.2568 
     17 C17        17.0153  -26.8119  -41.1659 C.3       10 UNK        -0.0983 
     18 CA         18.5476  -26.7233  -41.3894 C.3       3 UNK         0.0876 
     19 N          18.9060  -25.7170  -42.4004 N.am      3 UNK        -0.4424 
     20 C          20.1448  -25.4240  -42.8181 C.2       2 UNK         0.4918 
     21 O          21.1647  -25.9385  -42.3567 O.2       2 UNK        -0.4875 
     22 CA         20.2403  -24.3687  -43.9308 C.3       2 UNK         0.0481 
     23 CB         21.6260  -23.6913  -43.9962 C.3       2 UNK        -0.1831 
     24 N          19.8494  -24.9320  -45.2261 N.am      2 UNK        -0.4498 
     25 C          20.4575  -25.8967  -45.9332 C.2       1 UNK         0.5027 
     26 O          21.5245  -26.4178  -45.6077 O.2       1 UNK        -0.4969 
     27 C          19.2536  -26.5231  -40.0285 C.2       3 UNK         0.5005 
     28 O          19.5043  -27.5048  -39.3299 O.2       3 UNK        -0.5279 
     29 N          19.5634  -25.2641  -39.6804 N.am      4 UNK        -0.4463 
     30 CA         20.3064  -24.8856  -38.4756 C.3       4 UNK         0.0283 
     31 CB         20.1417  -23.3772  -38.2291 C.3       4 UNK        -0.1875 
     32 C          21.7993  -25.2583  -38.5371 C.2       4 UNK         0.4949 
     33 O          22.3846  -25.5515  -37.4944 O.2       4 UNK        -0.5039 
     34 N          22.3888  -25.2412  -39.7416 N.am      5 UNK        -0.4663 
     35 CA         23.7602  -25.6941  -39.9922 C.3       5 UNK         0.0242 
     36 CB         24.3260  -24.9856  -41.2342 C.3       5 UNK        -0.1982 
     37 C          23.8063  -27.2193  -40.1630 C.2       5 UNK         0.5017 
     38 O          24.7137  -27.8622  -39.6332 O.2       5 UNK        -0.5012 
     39 N          22.8079  -27.7616  -40.8760 N.am      6 UNK        -0.4439 
     40 CA         22.4885  -29.1740  -41.1096 C.3       6 UNK         0.0297 
     41 CB         22.2076  -29.9118  -39.7834 C.3       6 UNK        -0.2006 
     42 C          23.5093  -29.9495  -41.9595 C.2       6 UNK         0.4892 
     43 O          23.1096  -30.6120  -42.9162 O.2       6 UNK        -0.5089 
     44 N          24.7908  -29.8911  -41.5735 N.am      7 UNK        -0.4243 
     45 CA         25.9208  -30.6480  -42.1293 C.3       7 UNK         0.0196 
     46 CB         26.2253  -30.2011  -43.5755 C.3       7 UNK        -0.2007 
     47 C          25.7541  -32.1783  -41.9911 C.2       7 UNK         0.5020 
     48 O          26.2218  -32.9238  -42.8529 O.2       7 UNK        -0.5147 
     49 N          25.1081  -32.6080  -40.8938 N.am      8 UNK        -0.4734 
     50 CA         24.8358  -33.9957  -40.4930 C.3       8 UNK         0.0238 
     51 CB         26.1488  -34.7136  -40.1112 C.3       8 UNK        -0.1912 
     52 C          24.0101  -34.7750  -41.5369 C.2       8 UNK         0.5038 
     53 O          24.4874  -35.7733  -42.0811 O.2       8 UNK        -0.5046 
     54 N          22.7834  -34.3007  -41.7973 N.am      9 UNK        -0.4200 
     55 CA         21.8269  -34.9288  -42.7273 C.3       9 UNK         0.0839 
     56 C          21.2532  -36.3082  -42.2821 C.2       9 UNK         0.5513 
     57 N          21.4116  -36.7257  -41.0314 N.am      9 UNK        -0.7519 
     58 O          20.6628  -37.0164  -43.0939 O.2       9 UNK        -0.4960 
     59 C59        20.7090  -33.9450  -43.1653 C.3       10 UNK        -0.0876 
     60 S60        19.5941  -33.4141  -41.8119 S.3       10 UNK        -0.2414 
     61 C61        19.7901  -31.6062  -41.8346 C.3       10 UNK         0.0169 
     62 H62        17.4046  -22.5969  -48.1406 H         1 UNK         0.0903 
     63 H63        18.1059  -23.4642  -49.5086 H         1 UNK         0.0903 
     64 H64        16.4606  -23.8276  -48.9841 H         1 UNK         0.0903 
     65 H65        19.5754  -24.9843  -48.8419 H         1 UNK         0.3096 
     66 H66        20.5993  -26.6299  -47.9145 H         1 UNK         0.1121 
     67 H67        18.3075  -27.5106  -46.1183 H         1 UNK         0.0849 
     68 H68        18.1365  -27.6529  -47.8451 H         1 UNK         0.0849 
     69 H69        17.6475  -30.1868  -47.1639 H         1 UNK         0.0865 
     70 H70        18.9047  -31.3522  -46.8487 H         1 UNK         0.0865 
     71 H71        19.9968  -31.4493  -44.5639 H         1 UNK         0.1346 
     72 H72        17.5235  -30.1940  -41.2883 H         1 UNK         0.1412 
     73 H73        16.4970  -29.0957  -45.3028 H         1 UNK         0.1426 
     74 H74        15.3815  -29.1138  -41.7459 H         1 UNK         0.0716 
     75 H75        14.8380  -28.9468  -43.3940 H         1 UNK         0.0716 
     76 H76        16.6558  -25.9121  -40.6626 H         1 UNK         0.0695 
     77 H77        16.7765  -27.6411  -40.4971 H         1 UNK         0.0695 
     78 H78        18.8919  -27.6831  -41.7794 H         1 UNK         0.0983 
     79 H79        18.1235  -25.2700  -42.8569 H         1 UNK         0.3095 
     80 H80        19.5114  -23.5900  -43.7013 H         1 UNK         0.0454 
     81 H81        22.4258  -24.4026  -44.2029 H         1 UNK         0.0851 
     82 H82        21.6548  -22.9231  -44.7685 H         1 UNK         0.0851 
     83 H83        21.8656  -23.2079  -43.0485 H         1 UNK         0.0851 
     84 H84        18.9467  -24.6329  -45.5861 H         1 UNK         0.2976 
     85 H85        19.2966  -24.5182  -40.3067 H         1 UNK         0.3116 
     86 H86        19.8691  -25.4174  -37.6276 H         1 UNK         0.0646 
     87 H87        19.0932  -23.1064  -38.1038 H         1 UNK         0.0847 
     88 H88        20.5477  -22.7848  -39.0500 H         1 UNK         0.0847 
     89 H89        20.6629  -23.0725  -37.3203 H         1 UNK         0.0847 
     90 H90        21.8214  -25.0498  -40.5577 H         1 UNK         0.3040 
     91 H91        24.3882  -25.4325  -39.1372 H         1 UNK         0.1015 
     92 H92        24.3150  -23.9025  -41.1116 H         1 UNK         0.0786 
     93 H93        23.7622  -25.2263  -42.1359 H         1 UNK         0.0786 
     94 H94        25.3611  -25.2812  -41.4108 H         1 UNK         0.0786 
     95 H95        22.1748  -27.1086  -41.3345 H         1 UNK         0.3172 
     96 H96        21.5579  -29.1563  -41.6788 H         1 UNK         0.0595 
     97 H97        21.9604  -30.9594  -39.9550 H         1 UNK         0.0839 
     98 H98        21.3661  -29.4641  -39.2552 H         1 UNK         0.0839 
     99 H99        23.0656  -29.8953  -39.1114 H         1 UNK         0.0839 
    100 H100       24.9971  -29.2861  -40.7804 H         1 UNK         0.2998 
    101 H101       26.7864  -30.3871  -41.5186 H         1 UNK         0.0822 
    102 H102       26.3452  -29.1196  -43.6393 H         1 UNK         0.0787 
    103 H103       27.1509  -30.6505  -43.9373 H         1 UNK         0.0787 
    104 H104       25.4325  -30.4923  -44.2652 H         1 UNK         0.0787 
    105 H105       24.7656  -31.8983  -40.2614 H         1 UNK         0.3055 
    106 H106       24.2218  -33.9478  -39.5918 H         1 UNK         0.1106 
    107 H107       26.8217  -34.8143  -40.9635 H         1 UNK         0.0828 
    108 H108       26.6813  -34.1764  -39.3264 H         1 UNK         0.0828 
    109 H109       25.9492  -35.7183  -39.7364 H         1 UNK         0.0828 
    110 H110       22.4584  -33.4757  -41.3171 H         1 UNK         0.2931 
    111 H111       22.3984  -35.1478  -43.6317 H         1 UNK         0.0412 
    112 H112       21.8860  -36.1496  -40.3556 H         1 UNK         0.3472 
    113 H113       21.0396  -37.6221  -40.7591 H         1 UNK         0.3472 
    114 H114       21.1800  -33.0749  -43.6221 H         1 UNK         0.0970 
    115 H115       20.0986  -34.3898  -43.9534 H         1 UNK         0.0970 
    116 H116       19.6171  -31.2284  -40.8258 H         1 UNK         0.0612 
    117 H117       20.8199  -31.3620  -42.0789 H         1 UNK         0.0612 
@<TRIPOS>BOND
     1    1    2 1    
     2    1   62 1    
     3    1   63 1    
     4    1   64 1    
     5    2    3 2    
     6    2    4 am   BACKBONE|DICT|INTERRES
     7    4    5 1    
     8    4   65 1    
     9    5    6 1    
    10    5   25 1    
    11    5   66 1    
    12    6    7 1    
    13    6   67 1    
    14    6   68 1    
    15    7    8 1    
    16    8    9 1    
    17    8   69 1    
    18    8   70 1    
    19    9   10 ar   
    20    9   14 ar   
    21   10   11 ar   
    22   10   71 1    
    23   11   12 ar   
    24   11   61 1    
    25   12   13 ar   
    26   12   72 1    
    27   13   14 ar   
    28   13   15 1    
    29   14   73 1    
    30   15   16 1    
    31   15   74 1    
    32   15   75 1    
    33   16   17 1    
    34   17   18 1    
    35   17   76 1    
    36   17   77 1    
    37   18   19 1    
    38   18   27 1    
    39   18   78 1    
    40   19   20 am   BACKBONE|DICT|INTERRES
    41   19   79 1    
    42   20   21 2    
    43   20   22 1    
    44   22   23 1    
    45   22   24 1    
    46   22   80 1    
    47   23   81 1    
    48   23   82 1    
    49   23   83 1    
    50   24   25 am   BACKBONE|DICT|INTERRES
    51   24   84 1    
    52   25   26 2    
    53   27   28 2    
    54   27   29 am   BACKBONE|DICT|INTERRES
    55   29   30 1    
    56   29   85 1    
    57   30   31 1    
    58   30   32 1    
    59   30   86 1    
    60   31   87 1    
    61   31   88 1    
    62   31   89 1    
    63   32   33 2    
    64   32   34 am   BACKBONE|DICT|INTERRES
    65   34   35 1    
    66   34   90 1    
    67   35   36 1    
    68   35   37 1    
    69   35   91 1    
    70   36   92 1    
    71   36   93 1    
    72   36   94 1    
    73   37   38 2    
    74   37   39 am   BACKBONE|DICT|INTERRES
    75   39   40 1    
    76   39   95 1    
    77   40   41 1    
    78   40   42 1    
    79   40   96 1    
    80   41   97 1    
    81   41   98 1    
    82   41   99 1    
    83   42   43 2    
    84   42   44 am   BACKBONE|DICT|INTERRES
    85   44   45 1    
    86   44  100 1    
    87   45   46 1    
    88   45   47 1    
    89   45  101 1    
    90   46  102 1    
    91   46  103 1    
    92   46  104 1    
    93   47   48 2    
    94   47   49 am   BACKBONE|DICT|INTERRES
    95   49   50 1    
    96   49  105 1    
    97   50   51 1    
    98   50   52 1    
    99   50  106 1    
   100   51  107 1    
   101   51  108 1    
   102   51  109 1    
   103   52   53 2    
   104   52   54 am   BACKBONE|DICT|INTERRES
   105   54   55 1    
   106   54  110 1    
   107   55   56 1    
   108   55   59 1    
   109   55  111 1    
   110   56   57 am   BACKBONE|DICT|INTERRES
   111   56   58 2    
   112   57  112 1    
   113   57  113 1    
   114   59   60 1    
   115   59  114 1    
   116   59  115 1    
   117   60   61 1    
   118   61  116 1    
   119   61  117 1    
@<TRIPOS>SUBSTRUCTURE
     1 UNK         1 GROUP             0       ****    0 ROOT    
