@<TRIPOS>MOLECULE
3R8
117   119    1
SMALL
USER_CHARGES


@<TRIPOS>ATOM
      1 CA         20.5976  -22.7341  -41.1792 C.3       0 UNK        -0.2013 
      2 C          21.1817  -24.1310  -41.3592 C.2       0 UNK         0.4866 
      3 O          22.3513  -24.3434  -41.0448 O.2       0 UNK        -0.5176 
      4 N          20.4242  -25.1180  -41.8545 N.am      1 UNK        -0.4884 
      5 CA         19.0510  -25.0268  -42.3645 C.3       1 UNK         0.0853 
      6 C6         18.2476  -26.3036  -41.9910 C.3       10 UNK        -0.0849 
      7 S7         18.9374  -27.8179  -42.7399 S.3       10 UNK        -0.2776 
      8 C8         17.4456  -28.7771  -43.1326 C.3       10 UNK         0.0316 
      9 C9         17.8510  -29.9926  -43.9437 C.ar      10 UNK        -0.0863 
     10 C10        18.2692  -31.1607  -43.3015 C.ar      10 UNK        -0.1009 
     11 C11        18.7597  -32.2373  -44.0437 C.ar      10 UNK        -0.0712 
     12 C12        18.8251  -32.1411  -45.4372 C.ar      10 UNK        -0.0894 
     13 C13        18.4091  -30.9767  -46.0918 C.ar      10 UNK        -0.0745 
     14 C14        17.8926  -29.9174  -45.3376 C.ar      10 UNK        -0.0972 
     15 C15        18.5704  -30.8643  -47.6065 C.3       10 UNK         0.0209 
     16 S16        19.1400  -29.2252  -48.1894 S.3       10 UNK        -0.2568 
     17 C17        20.6266  -28.9147  -47.1675 C.3       10 UNK        -0.0983 
     18 CA         20.8743  -27.4028  -46.9087 C.3       3 UNK         0.0876 
     19 N          19.7061  -26.7252  -46.3292 N.am      3 UNK        -0.4424 
     20 C          19.0750  -25.6793  -46.8811 C.2       2 UNK         0.4918 
     21 O          19.3765  -25.1895  -47.9698 O.2       2 UNK        -0.4875 
     22 CA         17.9228  -25.0443  -46.0764 C.3       2 UNK         0.0481 
     23 CB         16.5772  -25.6415  -46.5184 C.3       2 UNK        -0.1831 
     24 N          18.0518  -25.1725  -44.6201 N.am      2 UNK        -0.4498 
     25 C          19.0720  -24.7103  -43.8811 C.2       1 UNK         0.5027 
     26 O          20.0196  -24.0864  -44.3655 O.2       1 UNK        -0.4969 
     27 C          22.1291  -27.1621  -46.0370 C.2       3 UNK         0.5005 
     28 O          23.0867  -27.9324  -46.1345 O.2       3 UNK        -0.5279 
     29 N          22.1137  -26.1001  -45.2120 N.am      4 UNK        -0.4463 
     30 CA         23.1388  -25.7122  -44.2359 C.3       4 UNK         0.0283 
     31 CB         24.4638  -25.3435  -44.9423 C.3       4 UNK        -0.1875 
     32 C          23.3013  -26.7556  -43.1084 C.2       4 UNK         0.4949 
     33 O          22.3514  -27.4804  -42.8029 O.2       4 UNK        -0.5039 
     34 N          24.4827  -26.7738  -42.4734 N.am      5 UNK        -0.4663 
     35 CA         24.9547  -27.7484  -41.4775 C.3       5 UNK         0.0242 
     36 CB         25.1834  -29.1158  -42.1584 C.3       5 UNK        -0.1982 
     37 C          24.0932  -27.8883  -40.2041 C.2       5 UNK         0.5017 
     38 O          24.2115  -28.9043  -39.5187 O.2       5 UNK        -0.5012 
     39 N          23.2320  -26.9019  -39.9054 N.am      6 UNK        -0.4439 
     40 CA         22.2942  -26.8650  -38.7719 C.3       6 UNK         0.0297 
     41 CB         23.0637  -26.6469  -37.4519 C.3       6 UNK        -0.2006 
     42 C          21.3359  -28.0759  -38.7016 C.2       6 UNK         0.4892 
     43 O          20.9012  -28.4401  -37.6078 O.2       6 UNK        -0.5089 
     44 N          21.0468  -28.6861  -39.8631 N.am      7 UNK        -0.4243 
     45 CA         20.2689  -29.9175  -40.0578 C.3       7 UNK         0.0196 
     46 CB         18.8099  -29.7354  -39.5820 C.3       7 UNK        -0.2007 
     47 C          20.9147  -31.1823  -39.4521 C.2       7 UNK         0.5020 
     48 O          20.2261  -32.1944  -39.3062 O.2       7 UNK        -0.5147 
     49 N          22.2149  -31.1421  -39.1218 N.am      8 UNK        -0.4734 
     50 CA         22.9604  -32.2462  -38.5062 C.3       8 UNK         0.0238 
     51 CB         24.1545  -31.6721  -37.7209 C.3       8 UNK        -0.1912 
     52 C          23.3852  -33.3089  -39.5392 C.2       8 UNK         0.5038 
     53 O          24.5777  -33.5784  -39.6976 O.2       8 UNK        -0.5046 
     54 N          22.3970  -33.8851  -40.2318 N.am      9 UNK        -0.4200 
     55 CA         22.5694  -34.9241  -41.2600 C.3       9 UNK         0.0839 
     56 C          22.9025  -36.3390  -40.7030 C.2       9 UNK         0.5513 
     57 N          22.8025  -36.5875  -39.4024 N.am      9 UNK        -0.7519 
     58 O          23.2645  -37.2286  -41.4688 O.2       9 UNK        -0.4960 
     59 C59        21.3567  -34.9814  -42.2251 C.3       10 UNK        -0.0876 
     60 S60        21.0547  -33.3891  -43.0620 S.3       10 UNK        -0.2414 
     61 C61        19.2606  -33.4853  -43.3365 C.3       10 UNK         0.0169 
     62 H62        21.3643  -22.0436  -40.8285 H         1 UNK         0.0903 
     63 H63        19.7956  -22.7429  -40.4417 H         1 UNK         0.0903 
     64 H64        20.2110  -22.3470  -42.1214 H         1 UNK         0.0903 
     65 H65        20.8556  -26.0206  -42.0157 H         1 UNK         0.3096 
     66 H66        18.5388  -24.1871  -41.8926 H         1 UNK         0.1121 
     67 H67        18.2576  -26.4341  -40.9076 H         1 UNK         0.0849 
     68 H68        17.1942  -26.1956  -42.2542 H         1 UNK         0.0849 
     69 H69        16.9444  -29.0785  -42.2115 H         1 UNK         0.0865 
     70 H70        16.7377  -28.1650  -43.6935 H         1 UNK         0.0865 
     71 H71        18.2517  -31.2176  -42.2224 H         1 UNK         0.1346 
     72 H72        19.2309  -32.9655  -46.0079 H         1 UNK         0.1412 
     73 H73        17.5812  -29.0085  -45.8327 H         1 UNK         0.1426 
     74 H74        19.2781  -31.6123  -47.9673 H         1 UNK         0.0716 
     75 H75        17.6136  -31.0910  -48.0782 H         1 UNK         0.0716 
     76 H76        21.4775  -29.3579  -47.6878 H         1 UNK         0.0695 
     77 H77        20.5492  -29.4428  -46.2167 H         1 UNK         0.0695 
     78 H78        21.1150  -26.9548  -47.8750 H         1 UNK         0.0983 
     79 H79        19.4008  -27.0639  -45.4274 H         1 UNK         0.3095 
     80 H80        17.9138  -23.9774  -46.3084 H         1 UNK         0.0454 
     81 H81        15.7394  -25.1366  -46.0375 H         1 UNK         0.0851 
     82 H82        16.5096  -26.7048  -46.2858 H         1 UNK         0.0851 
     83 H83        16.4391  -25.5363  -47.5956 H         1 UNK         0.0851 
     84 H84        17.3159  -25.6799  -44.1519 H         1 UNK         0.2976 
     85 H85        21.2793  -25.5240  -45.1936 H         1 UNK         0.3116 
     86 H86        22.7630  -24.8049  -43.7636 H         1 UNK         0.0646 
     87 H87        24.2873  -24.6791  -45.7882 H         1 UNK         0.0847 
     88 H88        25.1429  -24.8189  -44.2697 H         1 UNK         0.0847 
     89 H89        24.9854  -26.2250  -45.3174 H         1 UNK         0.0847 
     90 H90        25.1696  -26.0894  -42.7583 H         1 UNK         0.3040 
     91 H91        25.9245  -27.3856  -41.1334 H         1 UNK         0.1015 
     92 H92        25.8214  -29.0205  -43.0370 H         1 UNK         0.0786 
     93 H93        24.2430  -29.5686  -42.4755 H         1 UNK         0.0786 
     94 H94        25.6718  -29.8198  -41.4832 H         1 UNK         0.0786 
     95 H95        23.1798  -26.1006  -40.5293 H         1 UNK         0.3172 
     96 H96        21.6587  -25.9931  -38.9290 H         1 UNK         0.0595 
     97 H97        23.7169  -25.7766  -37.5127 H         1 UNK         0.0839 
     98 H98        23.6777  -27.5111  -37.1958 H         1 UNK         0.0839 
     99 H99        22.3788  -26.4768  -36.6202 H         1 UNK         0.0839 
    100 H100       21.4670  -28.3085  -40.7043 H         1 UNK         0.2998 
    101 H101       20.2484  -30.0842  -41.1357 H         1 UNK         0.0822 
    102 H102       18.3659  -28.8271  -39.9864 H         1 UNK         0.0787 
    103 H103       18.1856  -30.5703  -39.9008 H         1 UNK         0.0787 
    104 H104       18.7420  -29.6831  -38.4952 H         1 UNK         0.0787 
    105 H105       22.7418  -30.2907  -39.2951 H         1 UNK         0.3055 
    106 H106       22.3091  -32.7460  -37.7854 H         1 UNK         0.1106 
    107 H107       23.8318  -30.9261  -36.9944 H         1 UNK         0.0828 
    108 H108       24.6737  -32.4579  -37.1708 H         1 UNK         0.0828 
    109 H109       24.8844  -31.2022  -38.3810 H         1 UNK         0.0828 
    110 H110       21.4488  -33.5713  -40.0518 H         1 UNK         0.2931 
    111 H111       23.4368  -34.6368  -41.8577 H         1 UNK         0.0412 
    112 H112       23.0254  -37.5078  -39.0562 H         1 UNK         0.3472 
    113 H113       22.5042  -35.8668  -38.7651 H         1 UNK         0.3472 
    114 H114       21.5138  -35.7355  -42.9989 H         1 UNK         0.0970 
    115 H115       20.4598  -35.2838  -41.6813 H         1 UNK         0.0970 
    116 H116       19.0291  -34.3712  -43.9299 H         1 UNK         0.0612 
    117 H117       18.7520  -33.6066  -42.3786 H         1 UNK         0.0612 
@<TRIPOS>BOND
     1    1    2 1    
     2    1   62 1    
     3    1   63 1    
     4    1   64 1    
     5    2    3 2    
     6    2    4 am   BACKBONE|DICT|INTERRES
     7    4    5 1    
     8    4   65 1    
     9    5    6 1    
    10    5   25 1    
    11    5   66 1    
    12    6    7 1    
    13    6   67 1    
    14    6   68 1    
    15    7    8 1    
    16    8    9 1    
    17    8   69 1    
    18    8   70 1    
    19    9   10 ar   
    20    9   14 ar   
    21   10   11 ar   
    22   10   71 1    
    23   11   12 ar   
    24   11   61 1    
    25   12   13 ar   
    26   12   72 1    
    27   13   14 ar   
    28   13   15 1    
    29   14   73 1    
    30   15   16 1    
    31   15   74 1    
    32   15   75 1    
    33   16   17 1    
    34   17   18 1    
    35   17   76 1    
    36   17   77 1    
    37   18   19 1    
    38   18   27 1    
    39   18   78 1    
    40   19   20 am   BACKBONE|DICT|INTERRES
    41   19   79 1    
    42   20   21 2    
    43   20   22 1    
    44   22   23 1    
    45   22   24 1    
    46   22   80 1    
    47   23   81 1    
    48   23   82 1    
    49   23   83 1    
    50   24   25 am   BACKBONE|DICT|INTERRES
    51   24   84 1    
    52   25   26 2    
    53   27   28 2    
    54   27   29 am   BACKBONE|DICT|INTERRES
    55   29   30 1    
    56   29   85 1    
    57   30   31 1    
    58   30   32 1    
    59   30   86 1    
    60   31   87 1    
    61   31   88 1    
    62   31   89 1    
    63   32   33 2    
    64   32   34 am   BACKBONE|DICT|INTERRES
    65   34   35 1    
    66   34   90 1    
    67   35   36 1    
    68   35   37 1    
    69   35   91 1    
    70   36   92 1    
    71   36   93 1    
    72   36   94 1    
    73   37   38 2    
    74   37   39 am   BACKBONE|DICT|INTERRES
    75   39   40 1    
    76   39   95 1    
    77   40   41 1    
    78   40   42 1    
    79   40   96 1    
    80   41   97 1    
    81   41   98 1    
    82   41   99 1    
    83   42   43 2    
    84   42   44 am   BACKBONE|DICT|INTERRES
    85   44   45 1    
    86   44  100 1    
    87   45   46 1    
    88   45   47 1    
    89   45  101 1    
    90   46  102 1    
    91   46  103 1    
    92   46  104 1    
    93   47   48 2    
    94   47   49 am   BACKBONE|DICT|INTERRES
    95   49   50 1    
    96   49  105 1    
    97   50   51 1    
    98   50   52 1    
    99   50  106 1    
   100   51  107 1    
   101   51  108 1    
   102   51  109 1    
   103   52   53 2    
   104   52   54 am   BACKBONE|DICT|INTERRES
   105   54   55 1    
   106   54  110 1    
   107   55   56 1    
   108   55   59 1    
   109   55  111 1    
   110   56   57 am   BACKBONE|DICT|INTERRES
   111   56   58 2    
   112   57  112 1    
   113   57  113 1    
   114   59   60 1    
   115   59  114 1    
   116   59  115 1    
   117   60   61 1    
   118   61  116 1    
   119   61  117 1    
@<TRIPOS>SUBSTRUCTURE
     1 UNK         1 GROUP             0       ****    0 ROOT    
