@<TRIPOS>MOLECULE
3R8
117   119    1
SMALL
USER_CHARGES


@<TRIPOS>ATOM
      1 CA         15.8838  -23.2783  -45.1729 C.3       0 UNK        -0.2013 
      2 C          15.2563  -24.6615  -45.0828 C.2       0 UNK         0.4866 
      3 O          14.0383  -24.7820  -45.2103 O.2       0 UNK        -0.5176 
      4 N          16.0883  -25.6906  -44.8757 N.am      1 UNK        -0.4884 
      5 CA         15.7380  -27.1006  -44.6658 C.3       1 UNK         0.0853 
      6 C6         14.9243  -27.7132  -45.8400 C.3       10 UNK        -0.0849 
      7 S7         15.1047  -29.5280  -45.9339 S.3       10 UNK        -0.2776 
      8 C8         16.4258  -29.7124  -47.1764 C.3       10 UNK         0.0316 
      9 C9         17.7681  -29.2375  -46.6398 C.ar      10 UNK        -0.0863 
     10 C10        18.5485  -30.0864  -45.8484 C.ar      10 UNK        -0.1009 
     11 C11        19.7707  -29.6459  -45.3333 C.ar      10 UNK        -0.0712 
     12 C12        20.2129  -28.3526  -45.6191 C.ar      10 UNK        -0.0894 
     13 C13        19.4313  -27.4859  -46.3878 C.ar      10 UNK        -0.0745 
     14 C14        18.2188  -27.9416  -46.9127 C.ar      10 UNK        -0.0972 
     15 C15        19.8866  -26.0569  -46.6471 C.3       10 UNK         0.0209 
     16 S16        19.4396  -24.9406  -45.2742 S.3       10 UNK        -0.2568 
     17 C17        20.7852  -25.2605  -44.0820 C.3       10 UNK        -0.0983 
     18 CA         20.3224  -25.6867  -42.6602 C.3       3 UNK         0.0876 
     19 N          19.3212  -26.7549  -42.6584 N.am      3 UNK        -0.4424 
     20 C          18.0576  -26.6191  -42.2490 C.2       2 UNK         0.4918 
     21 O          17.5414  -25.5423  -41.9432 O.2       2 UNK        -0.4875 
     22 CA         17.2446  -27.9193  -42.1250 C.3       2 UNK         0.0481 
     23 CB         17.5354  -28.5816  -40.7676 C.3       2 UNK        -0.1831 
     24 N          15.7978  -27.6964  -42.2240 N.am      2 UNK        -0.4498 
     25 C          15.0686  -27.3092  -43.2835 C.2       1 UNK         0.5027 
     26 O          13.8578  -27.1187  -43.1670 O.2       1 UNK        -0.4969 
     27 C          21.5311  -26.2086  -41.8661 C.2       3 UNK         0.5005 
     28 O          21.7258  -27.4246  -41.7833 O.2       3 UNK        -0.5279 
     29 N          22.3832  -25.3023  -41.3699 N.am      4 UNK        -0.4463 
     30 CA         23.6537  -25.6224  -40.7021 C.3       4 UNK         0.0283 
     31 CB         24.0678  -24.4319  -39.8167 C.3       4 UNK        -0.1875 
     32 C          24.7619  -26.0338  -41.6997 C.2       4 UNK         0.4949 
     33 O          25.8826  -25.5280  -41.6248 O.2       4 UNK        -0.5039 
     34 N          24.4189  -26.9248  -42.6375 N.am      5 UNK        -0.4663 
     35 CA         25.2914  -27.4118  -43.7066 C.3       5 UNK         0.0242 
     36 CB         24.4210  -27.9395  -44.8598 C.3       5 UNK        -0.1982 
     37 C          26.2646  -28.4980  -43.2240 C.2       5 UNK         0.5017 
     38 O          27.3976  -28.5508  -43.7036 O.2       5 UNK        -0.5012 
     39 N          25.8067  -29.3378  -42.2893 N.am      6 UNK        -0.4439 
     40 CA         26.5374  -30.4442  -41.6809 C.3       6 UNK         0.0297 
     41 CB         26.7081  -31.5994  -42.6883 C.3       6 UNK        -0.2006 
     42 C          25.7415  -30.9184  -40.4626 C.2       6 UNK         0.4892 
     43 O          24.5249  -30.7161  -40.4174 O.2       6 UNK        -0.5089 
     44 N          26.4248  -31.5898  -39.5257 N.am      7 UNK        -0.4243 
     45 CA         25.8309  -32.1790  -38.3175 C.3       7 UNK         0.0196 
     46 CB         26.9461  -32.7435  -37.4231 C.3       7 UNK        -0.2007 
     47 C          24.7761  -33.2620  -38.6110 C.2       7 UNK         0.5020 
     48 O          23.8379  -33.4226  -37.8306 O.2       7 UNK        -0.5147 
     49 N          24.9169  -33.9474  -39.7552 N.am      8 UNK        -0.4734 
     50 CA         23.9608  -34.9264  -40.2838 C.3       8 UNK         0.0238 
     51 CB         24.5783  -35.6151  -41.5120 C.3       8 UNK        -0.1912 
     52 C          22.5825  -34.3327  -40.6372 C.2       8 UNK         0.5038 
     53 O          21.6101  -35.0858  -40.7024 O.2       8 UNK        -0.5046 
     54 N          22.5167  -33.0100  -40.8453 N.am      9 UNK        -0.4200 
     55 CA         21.2715  -32.2503  -41.0193 C.3       9 UNK         0.0839 
     56 C          20.4860  -32.0222  -39.6898 C.2       9 UNK         0.5513 
     57 N          21.0548  -32.2900  -38.5184 N.am      9 UNK        -0.7519 
     58 O          19.3277  -31.6166  -39.7167 O.2       9 UNK        -0.4960 
     59 C59        21.5480  -30.9251  -41.7789 C.3       10 UNK        -0.0876 
     60 S60        20.1020  -30.3069  -42.7028 S.3       10 UNK        -0.2414 
     61 C61        20.6023  -30.5429  -44.4326 C.3       10 UNK         0.0169 
     62 H62        15.3354  -22.5753  -44.5463 H         1 UNK         0.0903 
     63 H63        16.9223  -23.2789  -44.8430 H         1 UNK         0.0903 
     64 H64        15.8512  -22.9171  -46.2004 H         1 UNK         0.0903 
     65 H65        17.0761  -25.4872  -44.7823 H         1 UNK         0.3096 
     66 H66        16.6951  -27.6144  -44.6618 H         1 UNK         0.1121 
     67 H67        13.8640  -27.4657  -45.7642 H         1 UNK         0.0849 
     68 H68        15.2503  -27.2843  -46.7882 H         1 UNK         0.0849 
     69 H69        16.4979  -30.7632  -47.4611 H         1 UNK         0.0865 
     70 H70        16.1578  -29.1721  -48.0859 H         1 UNK         0.0865 
     71 H71        18.1959  -31.0824  -45.6170 H         1 UNK         0.1346 
     72 H72        21.1588  -28.0209  -45.2182 H         1 UNK         0.1412 
     73 H73        17.6124  -27.2764  -47.5123 H         1 UNK         0.1426 
     74 H74        20.9629  -26.0255  -46.8231 H         1 UNK         0.0716 
     75 H75        19.4240  -25.6810  -47.5610 H         1 UNK         0.0716 
     76 H76        21.4712  -25.9925  -44.5066 H         1 UNK         0.0695 
     77 H77        21.3692  -24.3412  -44.0111 H         1 UNK         0.0695 
     78 H78        19.9340  -24.8094  -42.1380 H         1 UNK         0.0983 
     79 H79        19.7033  -27.6828  -42.7990 H         1 UNK         0.3095 
     80 H80        17.5519  -28.6124  -42.9098 H         1 UNK         0.0454 
     81 H81        17.0479  -29.5534  -40.6868 H         1 UNK         0.0851 
     82 H82        18.6039  -28.7521  -40.6278 H         1 UNK         0.0851 
     83 H83        17.1981  -27.9642  -39.9341 H         1 UNK         0.0851 
     84 H84        15.3020  -27.7888  -41.3501 H         1 UNK         0.2976 
     85 H85        22.1916  -24.3210  -41.5166 H         1 UNK         0.3116 
     86 H86        23.4922  -26.4786  -40.0433 H         1 UNK         0.0646 
     87 H87        24.9733  -24.6594  -39.2525 H         1 UNK         0.0847 
     88 H88        23.2924  -24.1873  -39.0906 H         1 UNK         0.0847 
     89 H89        24.2689  -23.5383  -40.4089 H         1 UNK         0.0847 
     90 H90        23.4764  -27.3023  -42.5884 H         1 UNK         0.3040 
     91 H91        25.8874  -26.5759  -44.0807 H         1 UNK         0.1015 
     92 H92        23.7805  -27.1552  -45.2636 H         1 UNK         0.0786 
     93 H93        23.7823  -28.7642  -44.5409 H         1 UNK         0.0786 
     94 H94        25.0403  -28.3047  -45.6804 H         1 UNK         0.0786 
     95 H95        24.8726  -29.2115  -41.9177 H         1 UNK         0.3172 
     96 H96        27.5146  -30.0862  -41.3503 H         1 UNK         0.0595 
     97 H97        25.7450  -31.9661  -43.0463 H         1 UNK         0.0839 
     98 H98        27.2323  -32.4429  -42.2376 H         1 UNK         0.0839 
     99 H99        27.2906  -31.2930  -43.5570 H         1 UNK         0.0839 
    100 H100       27.4201  -31.7151  -39.6469 H         1 UNK         0.2998 
    101 H101       25.3270  -31.3770  -37.7734 H         1 UNK         0.0822 
    102 H102       27.6520  -31.9664  -37.1294 H         1 UNK         0.0787 
    103 H103       26.5336  -33.1666  -36.5058 H         1 UNK         0.0787 
    104 H104       27.5050  -33.5350  -37.9242 H         1 UNK         0.0787 
    105 H105       25.7249  -33.7490  -40.3270 H         1 UNK         0.3055 
    106 H106       23.7945  -35.6802  -39.5109 H         1 UNK         0.1106 
    107 H107       23.9043  -36.3725  -41.9152 H         1 UNK         0.0828 
    108 H108       24.7850  -34.9041  -42.3130 H         1 UNK         0.0828 
    109 H109       25.5114  -36.1188  -41.2588 H         1 UNK         0.0828 
    110 H110       23.3552  -32.4533  -40.7300 H         1 UNK         0.2931 
    111 H111       20.6236  -32.8596  -41.6528 H         1 UNK         0.0412 
    112 H112       20.5241  -32.1440  -37.6744 H         1 UNK         0.3472 
    113 H113       22.0007  -32.6472  -38.4596 H         1 UNK         0.3472 
    114 H114       22.3717  -31.0591  -42.4813 H         1 UNK         0.0970 
    115 H115       21.8834  -30.1453  -41.0921 H         1 UNK         0.0970 
    116 H116       21.6602  -30.3058  -44.5537 H         1 UNK         0.0612 
    117 H117       20.4800  -31.5911  -44.7092 H         1 UNK         0.0612 
@<TRIPOS>BOND
     1    1    2 1    
     2    1   62 1    
     3    1   63 1    
     4    1   64 1    
     5    2    3 2    
     6    2    4 am   BACKBONE|DICT|INTERRES
     7    4    5 1    
     8    4   65 1    
     9    5    6 1    
    10    5   25 1    
    11    5   66 1    
    12    6    7 1    
    13    6   67 1    
    14    6   68 1    
    15    7    8 1    
    16    8    9 1    
    17    8   69 1    
    18    8   70 1    
    19    9   10 ar   
    20    9   14 ar   
    21   10   11 ar   
    22   10   71 1    
    23   11   12 ar   
    24   11   61 1    
    25   12   13 ar   
    26   12   72 1    
    27   13   14 ar   
    28   13   15 1    
    29   14   73 1    
    30   15   16 1    
    31   15   74 1    
    32   15   75 1    
    33   16   17 1    
    34   17   18 1    
    35   17   76 1    
    36   17   77 1    
    37   18   19 1    
    38   18   27 1    
    39   18   78 1    
    40   19   20 am   BACKBONE|DICT|INTERRES
    41   19   79 1    
    42   20   21 2    
    43   20   22 1    
    44   22   23 1    
    45   22   24 1    
    46   22   80 1    
    47   23   81 1    
    48   23   82 1    
    49   23   83 1    
    50   24   25 am   BACKBONE|DICT|INTERRES
    51   24   84 1    
    52   25   26 2    
    53   27   28 2    
    54   27   29 am   BACKBONE|DICT|INTERRES
    55   29   30 1    
    56   29   85 1    
    57   30   31 1    
    58   30   32 1    
    59   30   86 1    
    60   31   87 1    
    61   31   88 1    
    62   31   89 1    
    63   32   33 2    
    64   32   34 am   BACKBONE|DICT|INTERRES
    65   34   35 1    
    66   34   90 1    
    67   35   36 1    
    68   35   37 1    
    69   35   91 1    
    70   36   92 1    
    71   36   93 1    
    72   36   94 1    
    73   37   38 2    
    74   37   39 am   BACKBONE|DICT|INTERRES
    75   39   40 1    
    76   39   95 1    
    77   40   41 1    
    78   40   42 1    
    79   40   96 1    
    80   41   97 1    
    81   41   98 1    
    82   41   99 1    
    83   42   43 2    
    84   42   44 am   BACKBONE|DICT|INTERRES
    85   44   45 1    
    86   44  100 1    
    87   45   46 1    
    88   45   47 1    
    89   45  101 1    
    90   46  102 1    
    91   46  103 1    
    92   46  104 1    
    93   47   48 2    
    94   47   49 am   BACKBONE|DICT|INTERRES
    95   49   50 1    
    96   49  105 1    
    97   50   51 1    
    98   50   52 1    
    99   50  106 1    
   100   51  107 1    
   101   51  108 1    
   102   51  109 1    
   103   52   53 2    
   104   52   54 am   BACKBONE|DICT|INTERRES
   105   54   55 1    
   106   54  110 1    
   107   55   56 1    
   108   55   59 1    
   109   55  111 1    
   110   56   57 am   BACKBONE|DICT|INTERRES
   111   56   58 2    
   112   57  112 1    
   113   57  113 1    
   114   59   60 1    
   115   59  114 1    
   116   59  115 1    
   117   60   61 1    
   118   61  116 1    
   119   61  117 1    
@<TRIPOS>SUBSTRUCTURE
     1 UNK         1 GROUP             0       ****    0 ROOT    
