@<TRIPOS>MOLECULE
3R8
117   119    1
SMALL
USER_CHARGES


@<TRIPOS>ATOM
      1 CA         16.8482  -24.3400  -47.5470 C.3       0 UNK        -0.2013 
      2 C          17.7224  -25.2225  -46.6698 C.2       0 UNK         0.4866 
      3 O          17.4155  -25.4072  -45.4922 O.2       0 UNK        -0.5176 
      4 N          18.8191  -25.7539  -47.2290 N.am      1 UNK        -0.4884 
      5 CA         19.7994  -26.6855  -46.6361 C.3       1 UNK         0.0853 
      6 C6         19.1805  -28.0014  -46.0873 C.3       10 UNK        -0.0849 
      7 S7         18.1366  -28.8958  -47.2831 S.3       10 UNK        -0.2776 
      8 C8         16.5436  -28.9283  -46.3949 C.3       10 UNK         0.0316 
      9 C9         16.5994  -29.7729  -45.1258 C.ar      10 UNK        -0.0863 
     10 C10        16.7761  -31.1571  -45.2176 C.ar      10 UNK        -0.1009 
     11 C11        16.7889  -31.9510  -44.0679 C.ar      10 UNK        -0.0712 
     12 C12        16.6079  -31.3516  -42.8184 C.ar      10 UNK        -0.0894 
     13 C13        16.4389  -29.9685  -42.7079 C.ar      10 UNK        -0.0745 
     14 C14        16.4415  -29.1814  -43.8655 C.ar      10 UNK        -0.0972 
     15 C15        16.1978  -29.3485  -41.3373 C.3       10 UNK         0.0209 
     16 S16        17.7026  -29.3204  -40.3073 S.3       10 UNK        -0.2568 
     17 C17        18.5183  -27.7805  -40.8467 C.3       10 UNK        -0.0983 
     18 CA         19.8039  -28.0309  -41.6841 C.3       3 UNK         0.0876 
     19 N          20.0730  -26.9203  -42.5979 N.am      3 UNK        -0.4424 
     20 C          20.4418  -25.6721  -42.2744 C.2       2 UNK         0.4918 
     21 O          20.6194  -25.2911  -41.1168 O.2       2 UNK        -0.4875 
     22 CA         20.5933  -24.6570  -43.4270 C.3       2 UNK         0.0481 
     23 CB         22.0196  -24.0774  -43.4993 C.3       2 UNK        -0.1831 
     24 N          20.1229  -25.1715  -44.7228 N.am      2 UNK        -0.4498 
     25 C          20.6941  -26.0697  -45.5382 C.2       1 UNK         0.5027 
     26 O          21.8440  -26.4852  -45.4070 O.2       1 UNK        -0.4969 
     27 C          21.0663  -28.3877  -40.8644 C.2       3 UNK         0.5005 
     28 O          22.1789  -28.2700  -41.3851 O.2       3 UNK        -0.5279 
     29 N          20.8931  -28.7904  -39.5986 N.am      4 UNK        -0.4463 
     30 CA         21.9407  -29.2372  -38.6711 C.3       4 UNK         0.0283 
     31 CB         21.2841  -29.6486  -37.3436 C.3       4 UNK        -0.1875 
     32 C          23.0948  -28.2436  -38.4172 C.2       4 UNK         0.4949 
     33 O          24.1323  -28.6623  -37.9043 O.2       4 UNK        -0.5039 
     34 N          22.9234  -26.9657  -38.7878 N.am      5 UNK        -0.4663 
     35 CA         23.9920  -25.9622  -38.8029 C.3       5 UNK         0.0242 
     36 CB         23.3791  -24.5640  -38.9788 C.3       5 UNK        -0.1982 
     37 C          25.0491  -26.2286  -39.8930 C.2       5 UNK         0.5017 
     38 O          26.2113  -25.8731  -39.6938 O.2       5 UNK        -0.5012 
     39 N          24.6357  -26.8502  -41.0066 N.am      6 UNK        -0.4439 
     40 CA         25.5102  -27.3109  -42.0878 C.3       6 UNK         0.0297 
     41 CB         24.9220  -26.8866  -43.4431 C.3       6 UNK        -0.2006 
     42 C          25.7062  -28.8345  -42.0294 C.2       6 UNK         0.4892 
     43 O          26.8241  -29.2980  -42.2542 O.2       6 UNK        -0.5089 
     44 N          24.6272  -29.5637  -41.7046 N.am      7 UNK        -0.4243 
     45 CA         24.5159  -31.0132  -41.5279 C.3       7 UNK         0.0196 
     46 CB         25.2556  -31.4349  -40.2394 C.3       7 UNK        -0.2007 
     47 C          24.9794  -31.8310  -42.7596 C.2       7 UNK         0.5020 
     48 O          26.0712  -32.3960  -42.7097 O.2       7 UNK        -0.5147 
     49 N          24.2283  -31.9457  -43.8703 N.am      8 UNK        -0.4734 
     50 CA         22.8822  -31.4687  -44.2263 C.3       8 UNK         0.0238 
     51 CB         22.8668  -29.9509  -44.4928 C.3       8 UNK        -0.1912 
     52 C          21.7829  -31.9416  -43.2598 C.2       8 UNK         0.5038 
     53 O          21.1032  -31.1148  -42.6536 O.2       8 UNK        -0.5046 
     54 N          21.6635  -33.2679  -43.1118 N.am      9 UNK        -0.4200 
     55 CA         20.7153  -33.9490  -42.2083 C.3       9 UNK         0.0839 
     56 C          21.0798  -33.8091  -40.6989 C.2       9 UNK         0.5513 
     57 N          22.3525  -33.6630  -40.3515 N.am      9 UNK        -0.7519 
     58 O          20.2136  -33.8611  -39.8294 O.2       9 UNK        -0.4960 
     59 C59        19.2227  -33.6133  -42.4992 C.3       10 UNK        -0.0876 
     60 S60        18.7330  -33.9266  -44.2290 S.3       10 UNK        -0.2414 
     61 C61        16.9748  -33.4577  -44.1802 C.3       10 UNK         0.0169 
     62 H62        16.7835  -23.3376  -47.1245 H         1 UNK         0.0903 
     63 H63        17.2381  -24.2569  -48.5613 H         1 UNK         0.0903 
     64 H64        15.8409  -24.7516  -47.6039 H         1 UNK         0.0903 
     65 H65        19.0112  -25.5234  -48.1946 H         1 UNK         0.3096 
     66 H66        20.4720  -26.9566  -47.4520 H         1 UNK         0.1121 
     67 H67        18.5996  -27.7986  -45.1867 H         1 UNK         0.0849 
     68 H68        19.9669  -28.6921  -45.7797 H         1 UNK         0.0849 
     69 H69        16.2342  -27.9065  -46.1702 H         1 UNK         0.0865 
     70 H70        15.7798  -29.3361  -47.0585 H         1 UNK         0.0865 
     71 H71        16.9037  -31.6170  -46.1883 H         1 UNK         0.1346 
     72 H72        16.5993  -31.9622  -41.9257 H         1 UNK         0.1412 
     73 H73        16.2987  -28.1117  -43.7874 H         1 UNK         0.1426 
     74 H74        15.7821  -28.3438  -41.4265 H         1 UNK         0.0716 
     75 H75        15.4396  -29.9361  -40.8175 H         1 UNK         0.0716 
     76 H76        18.7229  -27.1525  -39.9775 H         1 UNK         0.0695 
     77 H77        17.8013  -27.2122  -41.4410 H         1 UNK         0.0695 
     78 H78        19.6220  -28.8916  -42.3302 H         1 UNK         0.0983 
     79 H79        20.0119  -27.1413  -43.5778 H         1 UNK         0.3095 
     80 H80        19.9216  -23.8317  -43.1872 H         1 UNK         0.0454 
     81 H81        22.1194  -23.3633  -44.3163 H         1 UNK         0.0851 
     82 H82        22.7687  -24.8553  -43.6366 H         1 UNK         0.0851 
     83 H83        22.2714  -23.5534  -42.5765 H         1 UNK         0.0851 
     84 H84        19.1427  -24.9798  -44.9218 H         1 UNK         0.2976 
     85 H85        19.9397  -28.8663  -39.2690 H         1 UNK         0.3116 
     86 H86        22.3903  -30.1278  -39.1146 H         1 UNK         0.0646 
     87 H87        20.7792  -28.8077  -36.8666 H         1 UNK         0.0847 
     88 H88        20.5521  -30.4430  -37.4910 H         1 UNK         0.0847 
     89 H89        22.0267  -30.0251  -36.6385 H         1 UNK         0.0847 
     90 H90        22.0427  -26.7014  -39.2082 H         1 UNK         0.3040 
     91 H91        24.5010  -25.9940  -37.8368 H         1 UNK         0.1015 
     92 H92        22.8799  -24.4598  -39.9426 H         1 UNK         0.0786 
     93 H93        24.1493  -23.7931  -38.9278 H         1 UNK         0.0786 
     94 H94        22.6510  -24.3463  -38.1971 H         1 UNK         0.0786 
     95 H95        23.6633  -27.1447  -41.0593 H         1 UNK         0.3172 
     96 H96        26.4971  -26.8520  -41.9981 H         1 UNK         0.0595 
     97 H97        23.8839  -27.2005  -43.5555 H         1 UNK         0.0839 
     98 H98        25.4866  -27.3178  -44.2709 H         1 UNK         0.0839 
     99 H99        24.9577  -25.8040  -43.5608 H         1 UNK         0.0839 
    100 H100       23.7450  -29.0651  -41.5941 H         1 UNK         0.2998 
    101 H101       23.4639  -31.2148  -41.3474 H         1 UNK         0.0822 
    102 H102       25.1533  -32.5056  -40.0602 H         1 UNK         0.0787 
    103 H103       26.3226  -31.2152  -40.2907 H         1 UNK         0.0787 
    104 H104       24.8539  -30.9218  -39.3661 H         1 UNK         0.0787 
    105 H105       24.6490  -32.5010  -44.6025 H         1 UNK         0.3055 
    106 H106       22.6518  -31.9451  -45.1812 H         1 UNK         0.1106 
    107 H107       21.9651  -29.6703  -45.0355 H         1 UNK         0.0828 
    108 H108       22.8667  -29.3664  -43.5788 H         1 UNK         0.0828 
    109 H109       23.7175  -29.6357  -45.0966 H         1 UNK         0.0828 
    110 H110       22.2786  -33.8732  -43.6358 H         1 UNK         0.2931 
    111 H111       20.8389  -35.0123  -42.4168 H         1 UNK         0.0412 
    112 H112       22.5871  -33.5909  -39.3742 H         1 UNK         0.3472 
    113 H113       23.0779  -33.6814  -41.0482 H         1 UNK         0.3472 
    114 H114       18.5700  -34.2100  -41.8594 H         1 UNK         0.0970 
    115 H115       19.0171  -32.5719  -42.2510 H         1 UNK         0.0970 
    116 H116       16.4917  -33.8191  -45.0892 H         1 UNK         0.0612 
    117 H117       16.4824  -33.9688  -43.3514 H         1 UNK         0.0612 
@<TRIPOS>BOND
     1    1    2 1    
     2    1   62 1    
     3    1   63 1    
     4    1   64 1    
     5    2    3 2    
     6    2    4 am   BACKBONE|DICT|INTERRES
     7    4    5 1    
     8    4   65 1    
     9    5    6 1    
    10    5   25 1    
    11    5   66 1    
    12    6    7 1    
    13    6   67 1    
    14    6   68 1    
    15    7    8 1    
    16    8    9 1    
    17    8   69 1    
    18    8   70 1    
    19    9   10 ar   
    20    9   14 ar   
    21   10   11 ar   
    22   10   71 1    
    23   11   12 ar   
    24   11   61 1    
    25   12   13 ar   
    26   12   72 1    
    27   13   14 ar   
    28   13   15 1    
    29   14   73 1    
    30   15   16 1    
    31   15   74 1    
    32   15   75 1    
    33   16   17 1    
    34   17   18 1    
    35   17   76 1    
    36   17   77 1    
    37   18   19 1    
    38   18   27 1    
    39   18   78 1    
    40   19   20 am   BACKBONE|DICT|INTERRES
    41   19   79 1    
    42   20   21 2    
    43   20   22 1    
    44   22   23 1    
    45   22   24 1    
    46   22   80 1    
    47   23   81 1    
    48   23   82 1    
    49   23   83 1    
    50   24   25 am   BACKBONE|DICT|INTERRES
    51   24   84 1    
    52   25   26 2    
    53   27   28 2    
    54   27   29 am   BACKBONE|DICT|INTERRES
    55   29   30 1    
    56   29   85 1    
    57   30   31 1    
    58   30   32 1    
    59   30   86 1    
    60   31   87 1    
    61   31   88 1    
    62   31   89 1    
    63   32   33 2    
    64   32   34 am   BACKBONE|DICT|INTERRES
    65   34   35 1    
    66   34   90 1    
    67   35   36 1    
    68   35   37 1    
    69   35   91 1    
    70   36   92 1    
    71   36   93 1    
    72   36   94 1    
    73   37   38 2    
    74   37   39 am   BACKBONE|DICT|INTERRES
    75   39   40 1    
    76   39   95 1    
    77   40   41 1    
    78   40   42 1    
    79   40   96 1    
    80   41   97 1    
    81   41   98 1    
    82   41   99 1    
    83   42   43 2    
    84   42   44 am   BACKBONE|DICT|INTERRES
    85   44   45 1    
    86   44  100 1    
    87   45   46 1    
    88   45   47 1    
    89   45  101 1    
    90   46  102 1    
    91   46  103 1    
    92   46  104 1    
    93   47   48 2    
    94   47   49 am   BACKBONE|DICT|INTERRES
    95   49   50 1    
    96   49  105 1    
    97   50   51 1    
    98   50   52 1    
    99   50  106 1    
   100   51  107 1    
   101   51  108 1    
   102   51  109 1    
   103   52   53 2    
   104   52   54 am   BACKBONE|DICT|INTERRES
   105   54   55 1    
   106   54  110 1    
   107   55   56 1    
   108   55   59 1    
   109   55  111 1    
   110   56   57 am   BACKBONE|DICT|INTERRES
   111   56   58 2    
   112   57  112 1    
   113   57  113 1    
   114   59   60 1    
   115   59  114 1    
   116   59  115 1    
   117   60   61 1    
   118   61  116 1    
   119   61  117 1    
@<TRIPOS>SUBSTRUCTURE
     1 UNK         1 GROUP             0       ****    0 ROOT    
