@<TRIPOS>MOLECULE
3R8
117   119    1
SMALL
USER_CHARGES


@<TRIPOS>ATOM
      1 CA         22.2733  -25.8991  -48.7364 C.3       0 UNK        -0.2013 
      2 C          21.5702  -26.3635  -47.4705 C.2       0 UNK         0.4866 
      3 O          22.2336  -26.6805  -46.4826 O.2       0 UNK        -0.5176 
      4 N          20.2309  -26.3947  -47.4830 N.am      1 UNK        -0.4884 
      5 CA         19.3646  -26.8317  -46.3784 C.3       1 UNK         0.0853 
      6 C6         17.9847  -27.3146  -46.8944 C.3       10 UNK        -0.0849 
      7 S7         18.1295  -28.9576  -47.6800 S.3       10 UNK        -0.2776 
      8 C8         16.8069  -29.9151  -46.8643 C.3       10 UNK         0.0316 
      9 C9         17.0569  -30.1561  -45.3784 C.ar      10 UNK        -0.0863 
     10 C10        17.8706  -31.2126  -44.9537 C.ar      10 UNK        -0.1009 
     11 C11        18.0511  -31.4743  -43.5866 C.ar      10 UNK        -0.0712 
     12 C12        17.4128  -30.6549  -42.6485 C.ar      10 UNK        -0.0894 
     13 C13        16.5817  -29.6099  -43.0598 C.ar      10 UNK        -0.0745 
     14 C14        16.4105  -29.3659  -44.4241 C.ar      10 UNK        -0.0972 
     15 C15        15.8034  -28.7863  -42.0444 C.3       10 UNK         0.0209 
     16 S16        16.4682  -27.1020  -41.8747 S.3       10 UNK        -0.2568 
     17 C17        17.6545  -27.2745  -40.4978 C.3       10 UNK        -0.0983 
     18 CA         19.1375  -27.2546  -40.9445 C.3       3 UNK         0.0876 
     19 N          19.4253  -26.1280  -41.8391 N.am      3 UNK        -0.4424 
     20 C          20.6152  -25.7779  -42.3420 C.2       2 UNK         0.4918 
     21 O          21.6848  -26.3305  -42.0706 O.2       2 UNK        -0.4875 
     22 CA         20.5785  -24.6983  -43.4312 C.3       2 UNK         0.0481 
     23 CB         21.8572  -23.8436  -43.4529 C.3       2 UNK        -0.1831 
     24 N          20.4334  -25.3925  -44.7067 N.am      2 UNK        -0.4498 
     25 C          19.2719  -25.7828  -45.2459 C.2       1 UNK         0.5027 
     26 O          18.1766  -25.3711  -44.8599 O.2       1 UNK        -0.4969 
     27 C          20.0567  -27.2581  -39.7077 C.2       3 UNK         0.5005 
     28 O          20.1156  -26.2496  -38.9997 O.2       3 UNK        -0.5279 
     29 N          20.7776  -28.3670  -39.4937 N.am      4 UNK        -0.4463 
     30 CA         21.7742  -28.6312  -38.4433 C.3       4 UNK         0.0283 
     31 CB         21.1519  -28.5450  -37.0366 C.3       4 UNK        -0.1875 
     32 C          23.0608  -27.7863  -38.5324 C.2       4 UNK         0.4949 
     33 O          24.1322  -28.3055  -38.2206 O.2       4 UNK        -0.5039 
     34 N          22.9488  -26.5206  -38.9560 N.am      5 UNK        -0.4663 
     35 CA         24.0548  -25.5804  -39.1575 C.3       5 UNK         0.0242 
     36 CB         23.4847  -24.1854  -39.4591 C.3       5 UNK        -0.1982 
     37 C          25.0228  -26.0230  -40.2670 C.2       5 UNK         0.5017 
     38 O          26.2352  -25.8808  -40.1030 O.2       5 UNK        -0.5012 
     39 N          24.4674  -26.5702  -41.3538 N.am      6 UNK        -0.4439 
     40 CA         25.2033  -27.2153  -42.4401 C.3       6 UNK         0.0297 
     41 CB         25.2652  -26.2910  -43.6680 C.3       6 UNK        -0.2006 
     42 C          24.5486  -28.5549  -42.7928 C.2       6 UNK         0.4892 
     43 O          25.2470  -29.5647  -42.8922 O.2       6 UNK        -0.5089 
     44 N          23.2191  -28.5527  -42.9532 N.am      7 UNK        -0.4243 
     45 CA         22.4201  -29.7308  -43.2697 C.3       7 UNK         0.0196 
     46 CB         21.2072  -29.3093  -44.1110 C.3       7 UNK        -0.2007 
     47 C          22.0195  -30.4579  -41.9823 C.2       7 UNK         0.5020 
     48 O          20.8838  -30.3310  -41.5216 O.2       7 UNK        -0.5147 
     49 N          22.9764  -31.1905  -41.4036 N.am      8 UNK        -0.4734 
     50 CA         22.7177  -32.1684  -40.3425 C.3       8 UNK         0.0238 
     51 CB         24.0086  -32.4141  -39.5461 C.3       8 UNK        -0.1912 
     52 C          22.1600  -33.4848  -40.9140 C.2       8 UNK         0.5038 
     53 O          21.3919  -34.1611  -40.2299 O.2       8 UNK        -0.5046 
     54 N          22.5445  -33.8015  -42.1600 N.am      9 UNK        -0.4200 
     55 CA         22.0907  -34.9491  -42.9646 C.3       9 UNK         0.0839 
     56 C          22.4992  -36.3471  -42.4060 C.2       9 UNK         0.5513 
     57 N          23.4915  -36.4421  -41.5290 N.am      9 UNK        -0.7519 
     58 O          21.9339  -37.3665  -42.7943 O.2       9 UNK        -0.4960 
     59 C59        20.5838  -34.8662  -43.3428 C.3       10 UNK        -0.0876 
     60 S60        20.1367  -33.3108  -44.1963 S.3       10 UNK        -0.2414 
     61 C61        18.8443  -32.6784  -43.0743 C.3       10 UNK         0.0169 
     62 H62        21.5671  -25.6497  -49.5281 H         1 UNK         0.0903 
     63 H63        22.8758  -25.0155  -48.5274 H         1 UNK         0.0903 
     64 H64        22.9342  -26.6827  -49.1057 H         1 UNK         0.0903 
     65 H65        19.7446  -26.1053  -48.3200 H         1 UNK         0.3096 
     66 H66        19.8357  -27.6948  -45.9095 H         1 UNK         0.1121 
     67 H67        17.5628  -26.6052  -47.6081 H         1 UNK         0.0849 
     68 H68        17.2605  -27.3814  -46.0838 H         1 UNK         0.0849 
     69 H69        15.8532  -29.4062  -47.0140 H         1 UNK         0.0865 
     70 H70        16.7118  -30.8762  -47.3718 H         1 UNK         0.0865 
     71 H71        18.3371  -31.8448  -45.6959 H         1 UNK         0.1346 
     72 H72        17.5324  -30.8580  -41.5930 H         1 UNK         0.1412 
     73 H73        15.7507  -28.5689  -44.7392 H         1 UNK         0.1426 
     74 H74        15.7685  -29.2844  -41.0746 H         1 UNK         0.0716 
     75 H75        14.7663  -28.7123  -42.3751 H         1 UNK         0.0716 
     76 H76        17.4409  -28.1878  -39.9399 H         1 UNK         0.0695 
     77 H77        17.4554  -26.4514  -39.8082 H         1 UNK         0.0695 
     78 H78        19.3232  -28.1620  -41.5221 H         1 UNK         0.0983 
     79 H79        18.6065  -25.6401  -42.1750 H         1 UNK         0.3095 
     80 H80        19.7280  -24.0355  -43.2583 H         1 UNK         0.0454 
     81 H81        22.7517  -24.4431  -43.6167 H         1 UNK         0.0851 
     82 H82        21.9868  -23.3158  -42.5079 H         1 UNK         0.0851 
     83 H83        21.8140  -23.0910  -44.2401 H         1 UNK         0.0851 
     84 H84        21.2791  -25.7890  -45.1107 H         1 UNK         0.2976 
     85 H85        20.6947  -29.1140  -40.1843 H         1 UNK         0.3116 
     86 H86        22.0828  -29.6656  -38.5955 H         1 UNK         0.0646 
     87 H87        20.8382  -27.5307  -36.7886 H         1 UNK         0.0847 
     88 H88        21.8699  -28.8541  -36.2759 H         1 UNK         0.0847 
     89 H89        20.2835  -29.1972  -36.9460 H         1 UNK         0.0847 
     90 H90        22.0080  -26.1804  -39.1380 H         1 UNK         0.3040 
     91 H91        24.6229  -25.5287  -38.2261 H         1 UNK         0.1015 
     92 H92        22.8687  -24.1884  -40.3588 H         1 UNK         0.0786 
     93 H93        24.2849  -23.4598  -39.6117 H         1 UNK         0.0786 
     94 H94        22.8705  -23.8220  -38.6349 H         1 UNK         0.0786 
     95 H95        23.4526  -26.6069  -41.3998 H         1 UNK         0.3172 
     96 H96        26.2252  -27.4296  -42.1197 H         1 UNK         0.0595 
     97 H97        24.2786  -26.1172  -44.0978 H         1 UNK         0.0839 
     98 H98        25.8833  -26.7311  -44.4514 H         1 UNK         0.0839 
     99 H99        25.6995  -25.3233  -43.4165 H         1 UNK         0.0839 
    100 H100       22.7003  -27.6923  -42.8030 H         1 UNK         0.2998 
    101 H101       23.0067  -30.4244  -43.8765 H         1 UNK         0.0822 
    102 H102       21.5360  -28.8949  -45.0627 H         1 UNK         0.0787 
    103 H103       20.5713  -30.1658  -44.3357 H         1 UNK         0.0787 
    104 H104       20.5901  -28.5674  -43.6051 H         1 UNK         0.0787 
    105 H105       23.9113  -31.1539  -41.7917 H         1 UNK         0.3055 
    106 H106       21.9642  -31.7706  -39.6594 H         1 UNK         0.1106 
    107 H107       23.8394  -33.1313  -38.7416 H         1 UNK         0.0828 
    108 H108       24.8064  -32.8106  -40.1752 H         1 UNK         0.0828 
    109 H109       24.3695  -31.4932  -39.0869 H         1 UNK         0.0828 
    110 H110       23.1878  -33.1806  -42.6259 H         1 UNK         0.2931 
    111 H111       22.6481  -34.8676  -43.8984 H         1 UNK         0.0412 
    112 H112       23.7575  -37.3498  -41.1802 H         1 UNK         0.3472 
    113 H113       23.9725  -35.6169  -41.2093 H         1 UNK         0.3472 
    114 H114       20.3158  -35.6845  -44.0135 H         1 UNK         0.0970 
    115 H115       19.9671  -34.9994  -42.4526 H         1 UNK         0.0970 
    116 H116       18.1327  -33.4807  -42.8757 H         1 UNK         0.0612 
    117 H117       19.3142  -32.4364  -42.1200 H         1 UNK         0.0612 
@<TRIPOS>BOND
     1    1    2 1    
     2    1   62 1    
     3    1   63 1    
     4    1   64 1    
     5    2    3 2    
     6    2    4 am   BACKBONE|DICT|INTERRES
     7    4    5 1    
     8    4   65 1    
     9    5    6 1    
    10    5   25 1    
    11    5   66 1    
    12    6    7 1    
    13    6   67 1    
    14    6   68 1    
    15    7    8 1    
    16    8    9 1    
    17    8   69 1    
    18    8   70 1    
    19    9   10 ar   
    20    9   14 ar   
    21   10   11 ar   
    22   10   71 1    
    23   11   12 ar   
    24   11   61 1    
    25   12   13 ar   
    26   12   72 1    
    27   13   14 ar   
    28   13   15 1    
    29   14   73 1    
    30   15   16 1    
    31   15   74 1    
    32   15   75 1    
    33   16   17 1    
    34   17   18 1    
    35   17   76 1    
    36   17   77 1    
    37   18   19 1    
    38   18   27 1    
    39   18   78 1    
    40   19   20 am   BACKBONE|DICT|INTERRES
    41   19   79 1    
    42   20   21 2    
    43   20   22 1    
    44   22   23 1    
    45   22   24 1    
    46   22   80 1    
    47   23   81 1    
    48   23   82 1    
    49   23   83 1    
    50   24   25 am   BACKBONE|DICT|INTERRES
    51   24   84 1    
    52   25   26 2    
    53   27   28 2    
    54   27   29 am   BACKBONE|DICT|INTERRES
    55   29   30 1    
    56   29   85 1    
    57   30   31 1    
    58   30   32 1    
    59   30   86 1    
    60   31   87 1    
    61   31   88 1    
    62   31   89 1    
    63   32   33 2    
    64   32   34 am   BACKBONE|DICT|INTERRES
    65   34   35 1    
    66   34   90 1    
    67   35   36 1    
    68   35   37 1    
    69   35   91 1    
    70   36   92 1    
    71   36   93 1    
    72   36   94 1    
    73   37   38 2    
    74   37   39 am   BACKBONE|DICT|INTERRES
    75   39   40 1    
    76   39   95 1    
    77   40   41 1    
    78   40   42 1    
    79   40   96 1    
    80   41   97 1    
    81   41   98 1    
    82   41   99 1    
    83   42   43 2    
    84   42   44 am   BACKBONE|DICT|INTERRES
    85   44   45 1    
    86   44  100 1    
    87   45   46 1    
    88   45   47 1    
    89   45  101 1    
    90   46  102 1    
    91   46  103 1    
    92   46  104 1    
    93   47   48 2    
    94   47   49 am   BACKBONE|DICT|INTERRES
    95   49   50 1    
    96   49  105 1    
    97   50   51 1    
    98   50   52 1    
    99   50  106 1    
   100   51  107 1    
   101   51  108 1    
   102   51  109 1    
   103   52   53 2    
   104   52   54 am   BACKBONE|DICT|INTERRES
   105   54   55 1    
   106   54  110 1    
   107   55   56 1    
   108   55   59 1    
   109   55  111 1    
   110   56   57 am   BACKBONE|DICT|INTERRES
   111   56   58 2    
   112   57  112 1    
   113   57  113 1    
   114   59   60 1    
   115   59  114 1    
   116   59  115 1    
   117   60   61 1    
   118   61  116 1    
   119   61  117 1    
@<TRIPOS>SUBSTRUCTURE
     1 UNK         1 GROUP             0       ****    0 ROOT    
