@<TRIPOS>MOLECULE
3R8
117   119    1
SMALL
USER_CHARGES


@<TRIPOS>ATOM
      1 CA         15.3195  -33.7949  -44.4424 C.3       0 UNK        -0.2013 
      2 C          15.5761  -32.3087  -44.2426 C.2       0 UNK         0.4866 
      3 O          15.3818  -31.8012  -43.1377 O.2       0 UNK        -0.5176 
      4 N          16.0161  -31.6179  -45.3002 N.am      1 UNK        -0.4884 
      5 CA         16.3531  -30.1954  -45.3017 C.3       1 UNK         0.0853 
      6 C6         15.2603  -29.3445  -46.0014 C.3       10 UNK        -0.0849 
      7 S7         13.7757  -29.1693  -44.9531 S.3       10 UNK        -0.2776 
      8 C8         13.9460  -27.4718  -44.3061 C.3       10 UNK         0.0316 
      9 C9         15.3393  -27.1858  -43.7591 C.ar      10 UNK        -0.0863 
     10 C10        15.7885  -27.8113  -42.5925 C.ar      10 UNK        -0.1009 
     11 C11        17.0752  -27.5630  -42.1063 C.ar      10 UNK        -0.0712 
     12 C12        17.9076  -26.6706  -42.7921 C.ar      10 UNK        -0.0894 
     13 C13        17.4637  -26.0165  -43.9504 C.ar      10 UNK        -0.0745 
     14 C14        16.1794  -26.2905  -44.4273 C.ar      10 UNK        -0.0972 
     15 C15        18.3287  -25.0158  -44.7214 C.3       10 UNK         0.0209 
     16 S16        19.5881  -24.1656  -43.7089 S.3       10 UNK        -0.2568 
     17 C17        21.1472  -24.5836  -44.5589 C.3       10 UNK        -0.0983 
     18 CA         21.6277  -26.0267  -44.2415 C.3       3 UNK         0.0876 
     19 N          20.9688  -27.0140  -45.1051 N.am      3 UNK        -0.4424 
     20 C          20.7464  -28.2898  -44.7760 C.2       2 UNK         0.4918 
     21 O          21.0896  -28.7795  -43.7006 O.2       2 UNK        -0.4875 
     22 CA         20.0349  -29.1636  -45.8128 C.3       2 UNK         0.0481 
     23 CB         20.8446  -30.4460  -46.0998 C.3       2 UNK        -0.1831 
     24 N          18.6973  -29.4669  -45.3071 N.am      2 UNK        -0.4498 
     25 C          17.7099  -30.0437  -46.0049 C.2       1 UNK         0.5027 
     26 O          17.8244  -30.4391  -47.1677 O.2       1 UNK        -0.4969 
     27 C          23.1622  -26.1981  -44.3064 C.2       3 UNK         0.5005 
     28 O          23.8792  -25.2989  -44.7512 O.2       3 UNK        -0.5279 
     29 N          23.6358  -27.3701  -43.8657 N.am      4 UNK        -0.4463 
     30 CA         25.0457  -27.6812  -43.6401 C.3       4 UNK         0.0283 
     31 CB         25.2072  -29.2085  -43.5574 C.3       4 UNK        -0.1875 
     32 C          25.5338  -27.0204  -42.3418 C.2       4 UNK         0.4949 
     33 O          24.7436  -26.8525  -41.4104 O.2       4 UNK        -0.5039 
     34 N          26.8354  -26.7105  -42.2729 N.am      5 UNK        -0.4663 
     35 CA         27.4823  -26.0632  -41.1205 C.3       5 UNK         0.0242 
     36 CB         28.9427  -25.7396  -41.4750 C.3       5 UNK        -0.1982 
     37 C          27.4138  -26.8768  -39.8133 C.2       5 UNK         0.5017 
     38 O          27.4116  -26.2883  -38.7321 O.2       5 UNK        -0.5012 
     39 N          27.3316  -28.2075  -39.9411 N.am      6 UNK        -0.4439 
     40 CA         27.1427  -29.1547  -38.8402 C.3       6 UNK         0.0297 
     41 CB         27.7092  -30.5197  -39.2704 C.3       6 UNK        -0.2006 
     42 C          25.6729  -29.3010  -38.3921 C.2       6 UNK         0.4892 
     43 O          25.4238  -30.0403  -37.4394 O.2       6 UNK        -0.5089 
     44 N          24.7304  -28.6454  -39.0929 N.am      7 UNK        -0.4243 
     45 CA         23.2704  -28.7570  -38.9467 C.3       7 UNK         0.0196 
     46 CB         22.7995  -28.2448  -37.5690 C.3       7 UNK        -0.2007 
     47 C          22.7370  -30.1654  -39.2812 C.2       7 UNK         0.5020 
     48 O          21.7119  -30.5886  -38.7441 O.2       7 UNK        -0.5147 
     49 N          23.4387  -30.8708  -40.1778 N.am      8 UNK        -0.4734 
     50 CA         23.1166  -32.2170  -40.6510 C.3       8 UNK         0.0238 
     51 CB         24.4160  -32.8918  -41.1307 C.3       8 UNK        -0.1912 
     52 C          22.0283  -32.1795  -41.7401 C.2       8 UNK         0.5038 
     53 O          22.2966  -32.5337  -42.8897 O.2       8 UNK        -0.5046 
     54 N          20.8301  -31.7209  -41.3589 N.am      9 UNK        -0.4200 
     55 CA         19.6598  -31.5834  -42.2403 C.3       9 UNK         0.0839 
     56 C          19.1290  -32.9356  -42.7891 C.2       9 UNK         0.5513 
     57 N          19.1658  -34.0111  -42.0108 N.am      9 UNK        -0.7519 
     58 O          18.7074  -33.0147  -43.9380 O.2       9 UNK        -0.4960 
     59 C59        18.5217  -30.7565  -41.5844 C.3       10 UNK        -0.0876 
     60 S60        19.0972  -29.1335  -40.9781 S.3       10 UNK        -0.2414 
     61 C61        17.5397  -28.2073  -40.8051 C.3       10 UNK         0.0169 
     62 H62        15.5048  -34.1067  -45.4701 H         1 UNK         0.0903 
     63 H63        15.9713  -34.3756  -43.7899 H         1 UNK         0.0903 
     64 H64        14.2857  -34.0347  -44.1954 H         1 UNK         0.0903 
     65 H65        16.2173  -32.0966  -46.1684 H         1 UNK         0.3096 
     66 H66        16.4732  -29.8433  -44.2767 H         1 UNK         0.1121 
     67 H67        14.9649  -29.8031  -46.9469 H         1 UNK         0.0849 
     68 H68        15.6330  -28.3532  -46.2638 H         1 UNK         0.0849 
     69 H69        13.6898  -26.7674  -45.0991 H         1 UNK         0.0865 
     70 H70        13.2097  -27.3179  -43.5160 H         1 UNK         0.0865 
     71 H71        15.1349  -28.4974  -42.0705 H         1 UNK         0.1346 
     72 H72        18.8990  -26.4824  -42.4052 H         1 UNK         0.1412 
     73 H73        15.8303  -25.8004  -45.3264 H         1 UNK         0.1426 
     74 H74        17.6898  -24.2432  -45.1521 H         1 UNK         0.0716 
     75 H75        18.7894  -25.5244  -45.5670 H         1 UNK         0.0716 
     76 H76        21.8688  -23.8434  -44.2081 H         1 UNK         0.0695 
     77 H77        21.0497  -24.4171  -45.6330 H         1 UNK         0.0695 
     78 H78        21.3620  -26.2382  -43.2025 H         1 UNK         0.0983 
     79 H79        20.7077  -26.6942  -46.0260 H         1 UNK         0.3095 
     80 H80        19.9333  -28.5995  -46.7421 H         1 UNK         0.0454 
     81 H81        21.8645  -30.2023  -46.3995 H         1 UNK         0.0851 
     82 H82        20.4064  -31.0293  -46.9089 H         1 UNK         0.0851 
     83 H83        20.9119  -31.0924  -45.2247 H         1 UNK         0.0851 
     84 H84        18.5259  -29.1584  -44.3584 H         1 UNK         0.2976 
     85 H85        22.9560  -28.0460  -43.5309 H         1 UNK         0.3116 
     86 H86        25.6340  -27.3039  -44.4793 H         1 UNK         0.0646 
     87 H87        26.2494  -29.4879  -43.3982 H         1 UNK         0.0847 
     88 H88        24.6239  -29.6343  -42.7403 H         1 UNK         0.0847 
     89 H89        24.8832  -29.6900  -44.4803 H         1 UNK         0.0847 
     90 H90        27.4212  -26.8909  -43.0767 H         1 UNK         0.3040 
     91 H91        26.9584  -25.1224  -40.9363 H         1 UNK         0.1015 
     92 H92        29.4431  -25.2349  -40.6471 H         1 UNK         0.0786 
     93 H93        29.0049  -25.0773  -42.3388 H         1 UNK         0.0786 
     94 H94        29.5139  -26.6413  -41.6996 H         1 UNK         0.0786 
     95 H95        27.3588  -28.5907  -40.8747 H         1 UNK         0.3172 
     96 H96        27.7121  -28.8083  -37.9751 H         1 UNK         0.0595 
     97 H97        27.1697  -30.9329  -40.1236 H         1 UNK         0.0839 
     98 H98        27.6394  -31.2468  -38.4600 H         1 UNK         0.0839 
     99 H99        28.7625  -30.4453  -39.5419 H         1 UNK         0.0839 
    100 H100       25.0280  -28.0325  -39.8463 H         1 UNK         0.2998 
    101 H101       22.8435  -28.0947  -39.7017 H         1 UNK         0.0822 
    102 H102       21.7113  -28.1822  -37.5285 H         1 UNK         0.0787 
    103 H103       23.1152  -28.9037  -36.7598 H         1 UNK         0.0787 
    104 H104       23.1882  -27.2476  -37.3628 H         1 UNK         0.0787 
    105 H105       24.2542  -30.4360  -40.5809 H         1 UNK         0.3055 
    106 H106       22.7236  -32.8044  -39.8177 H         1 UNK         0.1106 
    107 H107       25.1508  -32.9533  -40.3276 H         1 UNK         0.0828 
    108 H108       24.2237  -33.9107  -41.4696 H         1 UNK         0.0828 
    109 H109       24.8715  -32.3527  -41.9624 H         1 UNK         0.0828 
    110 H110       20.7256  -31.3860  -40.4079 H         1 UNK         0.2931 
    111 H111       19.9963  -31.0199  -43.1086 H         1 UNK         0.0412 
    112 H112       19.5247  -33.9538  -41.0711 H         1 UNK         0.3472 
    113 H113       18.8372  -34.8926  -42.3722 H         1 UNK         0.3472 
    114 H114       18.0841  -31.3020  -40.7463 H         1 UNK         0.0970 
    115 H115       17.7132  -30.5946  -42.2985 H         1 UNK         0.0970 
    116 H116       16.7738  -28.8668  -40.3938 H         1 UNK         0.0612 
    117 H117       17.6908  -27.4178  -40.0679 H         1 UNK         0.0612 
@<TRIPOS>BOND
     1    1    2 1    
     2    1   62 1    
     3    1   63 1    
     4    1   64 1    
     5    2    3 2    
     6    2    4 am   BACKBONE|DICT|INTERRES
     7    4    5 1    
     8    4   65 1    
     9    5    6 1    
    10    5   25 1    
    11    5   66 1    
    12    6    7 1    
    13    6   67 1    
    14    6   68 1    
    15    7    8 1    
    16    8    9 1    
    17    8   69 1    
    18    8   70 1    
    19    9   10 ar   
    20    9   14 ar   
    21   10   11 ar   
    22   10   71 1    
    23   11   12 ar   
    24   11   61 1    
    25   12   13 ar   
    26   12   72 1    
    27   13   14 ar   
    28   13   15 1    
    29   14   73 1    
    30   15   16 1    
    31   15   74 1    
    32   15   75 1    
    33   16   17 1    
    34   17   18 1    
    35   17   76 1    
    36   17   77 1    
    37   18   19 1    
    38   18   27 1    
    39   18   78 1    
    40   19   20 am   BACKBONE|DICT|INTERRES
    41   19   79 1    
    42   20   21 2    
    43   20   22 1    
    44   22   23 1    
    45   22   24 1    
    46   22   80 1    
    47   23   81 1    
    48   23   82 1    
    49   23   83 1    
    50   24   25 am   BACKBONE|DICT|INTERRES
    51   24   84 1    
    52   25   26 2    
    53   27   28 2    
    54   27   29 am   BACKBONE|DICT|INTERRES
    55   29   30 1    
    56   29   85 1    
    57   30   31 1    
    58   30   32 1    
    59   30   86 1    
    60   31   87 1    
    61   31   88 1    
    62   31   89 1    
    63   32   33 2    
    64   32   34 am   BACKBONE|DICT|INTERRES
    65   34   35 1    
    66   34   90 1    
    67   35   36 1    
    68   35   37 1    
    69   35   91 1    
    70   36   92 1    
    71   36   93 1    
    72   36   94 1    
    73   37   38 2    
    74   37   39 am   BACKBONE|DICT|INTERRES
    75   39   40 1    
    76   39   95 1    
    77   40   41 1    
    78   40   42 1    
    79   40   96 1    
    80   41   97 1    
    81   41   98 1    
    82   41   99 1    
    83   42   43 2    
    84   42   44 am   BACKBONE|DICT|INTERRES
    85   44   45 1    
    86   44  100 1    
    87   45   46 1    
    88   45   47 1    
    89   45  101 1    
    90   46  102 1    
    91   46  103 1    
    92   46  104 1    
    93   47   48 2    
    94   47   49 am   BACKBONE|DICT|INTERRES
    95   49   50 1    
    96   49  105 1    
    97   50   51 1    
    98   50   52 1    
    99   50  106 1    
   100   51  107 1    
   101   51  108 1    
   102   51  109 1    
   103   52   53 2    
   104   52   54 am   BACKBONE|DICT|INTERRES
   105   54   55 1    
   106   54  110 1    
   107   55   56 1    
   108   55   59 1    
   109   55  111 1    
   110   56   57 am   BACKBONE|DICT|INTERRES
   111   56   58 2    
   112   57  112 1    
   113   57  113 1    
   114   59   60 1    
   115   59  114 1    
   116   59  115 1    
   117   60   61 1    
   118   61  116 1    
   119   61  117 1    
@<TRIPOS>SUBSTRUCTURE
     1 UNK         1 GROUP             0       ****    0 ROOT    
