@<TRIPOS>MOLECULE
3R8
117   119    1
SMALL
USER_CHARGES


@<TRIPOS>ATOM
      1 CA         23.5550  -23.9400  -49.0159 C.3       0 UNK        -0.2013 
      2 C          23.3052  -24.8676  -47.8361 C.2       0 UNK         0.4866 
      3 O          24.2514  -25.4406  -47.2957 O.2       0 UNK        -0.5176 
      4 N          22.0408  -25.0190  -47.4315 N.am      1 UNK        -0.4884 
      5 CA         21.6045  -25.8395  -46.3050 C.3       1 UNK         0.0853 
      6 C6         21.4827  -27.3372  -46.6997 C.3       10 UNK        -0.0849 
      7 S7         21.1226  -28.4468  -45.2924 S.3       10 UNK        -0.2776 
      8 C8         19.4021  -28.9346  -45.6704 C.3       10 UNK         0.0316 
      9 C9         18.7057  -29.6886  -44.5383 C.ar      10 UNK        -0.0863 
     10 C10        19.3853  -30.6379  -43.7676 C.ar      10 UNK        -0.1009 
     11 C11        18.7312  -31.3361  -42.7500 C.ar      10 UNK        -0.0712 
     12 C12        17.3807  -31.0816  -42.4968 C.ar      10 UNK        -0.0894 
     13 C13        16.6828  -30.1401  -43.2601 C.ar      10 UNK        -0.0745 
     14 C14        17.3491  -29.4574  -44.2852 C.ar      10 UNK        -0.0972 
     15 C15        15.2119  -29.8605  -42.9726 C.3       10 UNK         0.0209 
     16 S16        14.8870  -28.1023  -42.6103 S.3       10 UNK        -0.2568 
     17 C17        15.7502  -27.8545  -41.0182 C.3       10 UNK        -0.0983 
     18 CA         17.2567  -27.5247  -41.1776 C.3       3 UNK         0.0876 
     19 N          17.5115  -26.4721  -42.1642 N.am      3 UNK        -0.4424 
     20 C          18.7239  -26.1341  -42.6142 C.2       2 UNK         0.4918 
     21 O          19.7817  -26.5686  -42.1448 O.2       2 UNK        -0.4875 
     22 CA         18.7650  -25.1788  -43.8122 C.3       2 UNK         0.0481 
     23 CB         18.6428  -23.7043  -43.3915 C.3       2 UNK        -0.1831 
     24 N          20.0279  -25.4210  -44.4952 N.am      2 UNK        -0.4498 
     25 C          20.2773  -25.2516  -45.7947 C.2       1 UNK         0.5027 
     26 O          19.5069  -24.6952  -46.5829 O.2       1 UNK        -0.4969 
     27 C          17.9217  -27.2123  -39.8240 C.2       3 UNK         0.5005 
     28 O          17.5882  -26.2026  -39.2006 O.2       3 UNK        -0.5279 
     29 N          18.8779  -28.0694  -39.4347 N.am      4 UNK        -0.4463 
     30 CA         19.7528  -27.9808  -38.2578 C.3       4 UNK         0.0283 
     31 CB         18.9367  -27.9609  -36.9477 C.3       4 UNK        -0.1875 
     32 C          20.7955  -26.8432  -38.3078 C.2       4 UNK         0.4949 
     33 O          21.5300  -26.6740  -37.3338 O.2       4 UNK        -0.5039 
     34 N          20.8832  -26.1051  -39.4243 N.am      5 UNK        -0.4663 
     35 CA         21.8944  -25.0660  -39.6445 C.3       5 UNK         0.0242 
     36 CB         21.3292  -23.9895  -40.5827 C.3       5 UNK        -0.1982 
     37 C          23.1922  -25.6463  -40.2280 C.2       5 UNK         0.5017 
     38 O          24.2560  -25.0604  -40.0238 O.2       5 UNK        -0.5012 
     39 N          23.0845  -26.7781  -40.9342 N.am      6 UNK        -0.4439 
     40 CA         24.1944  -27.5437  -41.4873 C.3       6 UNK         0.0297 
     41 CB         24.2958  -27.2862  -43.0000 C.3       6 UNK        -0.2006 
     42 C          23.9342  -29.0245  -41.2029 C.2       6 UNK         0.4892 
     43 O          22.7937  -29.4788  -41.3244 O.2       6 UNK        -0.5089 
     44 N          24.9974  -29.7611  -40.8629 N.am      7 UNK        -0.4243 
     45 CA         24.9671  -31.1954  -40.5652 C.3       7 UNK         0.0196 
     46 CB         26.0791  -31.5169  -39.5483 C.3       7 UNK        -0.2007 
     47 C          25.0714  -32.0419  -41.8484 C.2       7 UNK         0.5020 
     48 O          25.9241  -32.9263  -41.9386 O.2       7 UNK        -0.5147 
     49 N          24.2146  -31.7438  -42.8339 N.am      8 UNK        -0.4734 
     50 CA         24.1488  -32.4589  -44.1132 C.3       8 UNK         0.0238 
     51 CB         23.4464  -31.5751  -45.1564 C.3       8 UNK        -0.1912 
     52 C          23.4531  -33.8273  -43.9973 C.2       8 UNK         0.5038 
     53 O          23.7321  -34.7144  -44.8049 O.2       8 UNK        -0.5046 
     54 N          22.5680  -33.9707  -43.0032 N.am      9 UNK        -0.4200 
     55 CA         21.8817  -35.2213  -42.6565 C.3       9 UNK         0.0839 
     56 C          22.8375  -36.2047  -41.9323 C.2       9 UNK         0.5513 
     57 N          22.7875  -37.4852  -42.2718 N.am      9 UNK        -0.7519 
     58 O          23.5868  -35.8230  -41.0358 O.2       9 UNK        -0.4960 
     59 C59        20.6154  -34.9563  -41.8019 C.3       10 UNK        -0.0876 
     60 S60        19.3584  -34.0097  -42.7236 S.3       10 UNK        -0.2414 
     61 C61        19.4876  -32.3750  -41.9394 C.3       10 UNK         0.0169 
     62 H62        22.6307  -23.5048  -49.3955 H         1 UNK         0.0903 
     63 H63        24.2166  -23.1262  -48.7200 H         1 UNK         0.0903 
     64 H64        24.0307  -24.4875  -49.8291 H         1 UNK         0.0903 
     65 H65        21.2880  -24.5023  -47.8718 H         1 UNK         0.3096 
     66 H66        22.3428  -25.7419  -45.5049 H         1 UNK         0.1121 
     67 H67        22.4242  -27.6764  -47.1343 H         1 UNK         0.0849 
     68 H68        20.7348  -27.4690  -47.4840 H         1 UNK         0.0849 
     69 H69        18.8345  -28.0359  -45.9169 H         1 UNK         0.0865 
     70 H70        19.3977  -29.5612  -46.5632 H         1 UNK         0.0865 
     71 H71        20.4273  -30.8424  -43.9610 H         1 UNK         0.1346 
     72 H72        16.8739  -31.6233  -41.7096 H         1 UNK         0.1412 
     73 H73        16.8061  -28.7340  -44.8784 H         1 UNK         0.1426 
     74 H74        14.8502  -30.4675  -42.1411 H         1 UNK         0.0716 
     75 H75        14.6244  -30.1525  -43.8439 H         1 UNK         0.0716 
     76 H76        15.6169  -28.7446  -40.4005 H         1 UNK         0.0695 
     77 H77        15.2387  -27.0435  -40.4959 H         1 UNK         0.0695 
     78 H78        17.7450  -28.4163  -41.5698 H         1 UNK         0.0983 
     79 H79        16.6917  -26.0650  -42.5895 H         1 UNK         0.3095 
     80 H80        17.9414  -25.4363  -44.4818 H         1 UNK         0.0454 
     81 H81        19.4698  -23.3887  -42.7577 H         1 UNK         0.0851 
     82 H82        17.7205  -23.5296  -42.8364 H         1 UNK         0.0851 
     83 H83        18.6244  -23.0479  -44.2614 H         1 UNK         0.0851 
     84 H84        20.6830  -25.9497  -43.9297 H         1 UNK         0.2976 
     85 H85        19.0896  -28.8411  -40.0532 H         1 UNK         0.3116 
     86 H86        20.3332  -28.9048  -38.2608 H         1 UNK         0.0646 
     87 H87        18.3887  -27.0268  -36.8228 H         1 UNK         0.0847 
     88 H88        19.5886  -28.0679  -36.0799 H         1 UNK         0.0847 
     89 H89        18.2187  -28.7800  -36.9130 H         1 UNK         0.0847 
     90 H90        20.2674  -26.3118  -40.2042 H         1 UNK         0.3040 
     91 H91        22.1375  -24.5901  -38.6915 H         1 UNK         0.1015 
     92 H92        21.2071  -24.3696  -41.5966 H         1 UNK         0.0786 
     93 H93        22.0034  -23.1339  -40.6399 H         1 UNK         0.0786 
     94 H94        20.3633  -23.6213  -40.2365 H         1 UNK         0.0786 
     95 H95        22.1762  -27.2170  -41.0227 H         1 UNK         0.3172 
     96 H96        25.1320  -27.2528  -41.0086 H         1 UNK         0.0595 
     97 H97        23.3814  -27.5750  -43.5188 H         1 UNK         0.0839 
     98 H98        25.1147  -27.8557  -43.4414 H         1 UNK         0.0839 
     99 H99        24.4811  -26.2330  -43.2115 H         1 UNK         0.0839 
    100 H100       25.9050  -29.3182  -40.8322 H         1 UNK         0.2998 
    101 H101       24.0122  -31.4446  -40.0967 H         1 UNK         0.0822 
    102 H102       25.9615  -30.9340  -38.6346 H         1 UNK         0.0787 
    103 H103       26.0556  -32.5695  -39.2626 H         1 UNK         0.0787 
    104 H104       27.0704  -31.3102  -39.9536 H         1 UNK         0.0787 
    105 H105       23.5525  -30.9916  -42.6784 H         1 UNK         0.3055 
    106 H106       25.1688  -32.6432  -44.4589 H         1 UNK         0.1106 
    107 H107       23.4360  -32.0598  -46.1336 H         1 UNK         0.0828 
    108 H108       22.4114  -31.3730  -44.8854 H         1 UNK         0.0828 
    109 H109       23.9539  -30.6176  -45.2761 H         1 UNK         0.0828 
    110 H110       22.4362  -33.1980  -42.3706 H         1 UNK         0.2931 
    111 H111       21.5595  -35.6897  -43.5894 H         1 UNK         0.0412 
    112 H112       22.1679  -37.8075  -42.9995 H         1 UNK         0.3472 
    113 H113       23.3893  -38.1423  -41.7996 H         1 UNK         0.3472 
    114 H114       20.1543  -35.9011  -41.5069 H         1 UNK         0.0970 
    115 H115       20.8690  -34.4438  -40.8719 H         1 UNK         0.0970 
    116 H116       19.0947  -32.4267  -40.9228 H         1 UNK         0.0612 
    117 H117       20.5362  -32.0857  -41.8543 H         1 UNK         0.0612 
@<TRIPOS>BOND
     1    1    2 1    
     2    1   62 1    
     3    1   63 1    
     4    1   64 1    
     5    2    3 2    
     6    2    4 am   BACKBONE|DICT|INTERRES
     7    4    5 1    
     8    4   65 1    
     9    5    6 1    
    10    5   25 1    
    11    5   66 1    
    12    6    7 1    
    13    6   67 1    
    14    6   68 1    
    15    7    8 1    
    16    8    9 1    
    17    8   69 1    
    18    8   70 1    
    19    9   10 ar   
    20    9   14 ar   
    21   10   11 ar   
    22   10   71 1    
    23   11   12 ar   
    24   11   61 1    
    25   12   13 ar   
    26   12   72 1    
    27   13   14 ar   
    28   13   15 1    
    29   14   73 1    
    30   15   16 1    
    31   15   74 1    
    32   15   75 1    
    33   16   17 1    
    34   17   18 1    
    35   17   76 1    
    36   17   77 1    
    37   18   19 1    
    38   18   27 1    
    39   18   78 1    
    40   19   20 am   BACKBONE|DICT|INTERRES
    41   19   79 1    
    42   20   21 2    
    43   20   22 1    
    44   22   23 1    
    45   22   24 1    
    46   22   80 1    
    47   23   81 1    
    48   23   82 1    
    49   23   83 1    
    50   24   25 am   BACKBONE|DICT|INTERRES
    51   24   84 1    
    52   25   26 2    
    53   27   28 2    
    54   27   29 am   BACKBONE|DICT|INTERRES
    55   29   30 1    
    56   29   85 1    
    57   30   31 1    
    58   30   32 1    
    59   30   86 1    
    60   31   87 1    
    61   31   88 1    
    62   31   89 1    
    63   32   33 2    
    64   32   34 am   BACKBONE|DICT|INTERRES
    65   34   35 1    
    66   34   90 1    
    67   35   36 1    
    68   35   37 1    
    69   35   91 1    
    70   36   92 1    
    71   36   93 1    
    72   36   94 1    
    73   37   38 2    
    74   37   39 am   BACKBONE|DICT|INTERRES
    75   39   40 1    
    76   39   95 1    
    77   40   41 1    
    78   40   42 1    
    79   40   96 1    
    80   41   97 1    
    81   41   98 1    
    82   41   99 1    
    83   42   43 2    
    84   42   44 am   BACKBONE|DICT|INTERRES
    85   44   45 1    
    86   44  100 1    
    87   45   46 1    
    88   45   47 1    
    89   45  101 1    
    90   46  102 1    
    91   46  103 1    
    92   46  104 1    
    93   47   48 2    
    94   47   49 am   BACKBONE|DICT|INTERRES
    95   49   50 1    
    96   49  105 1    
    97   50   51 1    
    98   50   52 1    
    99   50  106 1    
   100   51  107 1    
   101   51  108 1    
   102   51  109 1    
   103   52   53 2    
   104   52   54 am   BACKBONE|DICT|INTERRES
   105   54   55 1    
   106   54  110 1    
   107   55   56 1    
   108   55   59 1    
   109   55  111 1    
   110   56   57 am   BACKBONE|DICT|INTERRES
   111   56   58 2    
   112   57  112 1    
   113   57  113 1    
   114   59   60 1    
   115   59  114 1    
   116   59  115 1    
   117   60   61 1    
   118   61  116 1    
   119   61  117 1    
@<TRIPOS>SUBSTRUCTURE
     1 UNK         1 GROUP             0       ****    0 ROOT    
