@<TRIPOS>MOLECULE
3R8
117   119    1
SMALL
USER_CHARGES


@<TRIPOS>ATOM
      1 CA         15.8011  -21.9447  -46.8658 C.3       0 UNK        -0.2013 
      2 C          16.6038  -23.2206  -47.0726 C.2       0 UNK         0.4866 
      3 O          17.6493  -23.1873  -47.7230 O.2       0 UNK        -0.5176 
      4 N          16.1200  -24.3461  -46.5318 N.am      1 UNK        -0.4884 
      5 CA         16.7978  -25.6469  -46.5687 C.3       1 UNK         0.0853 
      6 C6         15.7961  -26.8028  -46.3149 C.3       10 UNK        -0.0849 
      7 S7         16.2710  -28.3226  -47.2020 S.3       10 UNK        -0.2776 
      8 C8         15.2141  -29.5588  -46.3839 C.3       10 UNK         0.0316 
      9 C9         15.7751  -29.9712  -45.0312 C.ar      10 UNK        -0.0863 
     10 C10        16.8663  -30.8413  -44.9692 C.ar      10 UNK        -0.1009 
     11 C11        17.4037  -31.2270  -43.7365 C.ar      10 UNK        -0.0712 
     12 C12        16.8061  -30.7668  -42.5595 C.ar      10 UNK        -0.0894 
     13 C13        15.7188  -29.8880  -42.6054 C.ar      10 UNK        -0.0745 
     14 C14        15.2068  -29.4948  -43.8463 C.ar      10 UNK        -0.0972 
     15 C15        15.0922  -29.3606  -41.3187 C.3       10 UNK         0.0209 
     16 S16        16.2989  -28.5666  -40.2018 S.3       10 UNK        -0.2568 
     17 C17        17.0607  -27.3122  -41.2857 C.3       10 UNK        -0.0983 
     18 CA         18.5110  -27.6998  -41.6740 C.3       3 UNK         0.0876 
     19 N          18.8936  -27.1132  -42.9555 N.am      3 UNK        -0.4424 
     20 C          19.9419  -27.4959  -43.6916 C.2       2 UNK         0.4918 
     21 O          20.7039  -28.4017  -43.3557 O.2       2 UNK        -0.4875 
     22 CA         20.1753  -26.7462  -45.0225 C.3       2 UNK         0.0481 
     23 CB         21.2367  -27.4389  -45.8986 C.3       2 UNK        -0.1831 
     24 N          18.9544  -26.5617  -45.8189 N.am      2 UNK        -0.4498 
     25 C          17.9756  -25.6811  -45.5700 C.2       1 UNK         0.5027 
     26 O          17.9636  -24.9451  -44.5785 O.2       1 UNK        -0.4969 
     27 C          19.5204  -27.3125  -40.5755 C.2       3 UNK         0.5005 
     28 O          19.8568  -26.1308  -40.4579 O.2       3 UNK        -0.5279 
     29 N          19.9554  -28.3075  -39.7865 N.am      4 UNK        -0.4463 
     30 CA         20.8976  -28.1999  -38.6652 C.3       4 UNK         0.0283 
     31 CB         20.2603  -27.4283  -37.4896 C.3       4 UNK        -0.1875 
     32 C          22.2667  -27.6327  -39.0890 C.2       4 UNK         0.4949 
     33 O          22.7866  -26.7146  -38.4510 O.2       4 UNK        -0.5039 
     34 N          22.8206  -28.1915  -40.1720 N.am      5 UNK        -0.4663 
     35 CA         24.1541  -27.8689  -40.6820 C.3       5 UNK         0.0242 
     36 CB         24.2577  -28.3610  -42.1369 C.3       5 UNK        -0.1982 
     37 C          25.2593  -28.4967  -39.8129 C.2       5 UNK         0.5017 
     38 O          24.9804  -29.3604  -38.9766 O.2       5 UNK        -0.5012 
     39 N          26.5127  -28.0939  -40.0677 N.am      6 UNK        -0.4439 
     40 CA         27.7162  -28.6203  -39.4068 C.3       6 UNK         0.0297 
     41 CB         28.9434  -27.8194  -39.8713 C.3       6 UNK        -0.2006 
     42 C          27.9460  -30.1298  -39.6255 C.2       6 UNK         0.4892 
     43 O          28.5540  -30.7761  -38.7720 O.2       6 UNK        -0.5089 
     44 N          27.4309  -30.6594  -40.7423 N.am      7 UNK        -0.4243 
     45 CA         27.3904  -32.0829  -41.0757 C.3       7 UNK         0.0196 
     46 CB         28.1540  -32.3106  -42.3943 C.3       7 UNK        -0.2007 
     47 C          25.9291  -32.5633  -41.1451 C.2       7 UNK         0.5020 
     48 O          25.5687  -33.2908  -42.0727 O.2       7 UNK        -0.5147 
     49 N          25.0993  -32.1083  -40.1926 N.am      8 UNK        -0.4734 
     50 CA         23.6589  -32.3566  -40.0081 C.3       8 UNK         0.0238 
     51 CB         23.3599  -33.8522  -39.7841 C.3       8 UNK        -0.1912 
     52 C          22.7761  -31.7622  -41.1186 C.2       8 UNK         0.5038 
     53 O          21.9063  -30.9401  -40.8256 O.2       8 UNK        -0.5046 
     54 N          23.0462  -32.1657  -42.3617 N.am      9 UNK        -0.4200 
     55 CA         22.4582  -31.6383  -43.5976 C.3       9 UNK         0.0839 
     56 C          23.5280  -31.2762  -44.6691 C.2       9 UNK         0.5513 
     57 N          24.8054  -31.5928  -44.4771 N.am      9 UNK        -0.7519 
     58 O          23.2012  -30.6815  -45.6919 O.2       9 UNK        -0.4960 
     59 C59        21.3604  -32.5889  -44.1537 C.3       10 UNK        -0.0876 
     60 S60        19.9392  -31.6666  -44.8262 S.3       10 UNK        -0.2414 
     61 C61        18.6213  -32.1415  -43.6585 C.3       10 UNK         0.0169 
     62 H62        15.5128  -21.5224  -47.8281 H         1 UNK         0.0903 
     63 H63        14.8941  -22.1218  -46.2881 H         1 UNK         0.0903 
     64 H64        16.4017  -21.2062  -46.3355 H         1 UNK         0.0903 
     65 H65        15.2778  -24.3044  -45.9755 H         1 UNK         0.3096 
     66 H66        17.2138  -25.7563  -47.5735 H         1 UNK         0.1121 
     67 H67        15.6766  -27.0045  -45.2485 H         1 UNK         0.0849 
     68 H68        14.8033  -26.5323  -46.6790 H         1 UNK         0.0849 
     69 H69        14.1986  -29.1713  -46.2867 H         1 UNK         0.0865 
     70 H70        15.1413  -30.4385  -47.0251 H         1 UNK         0.0865 
     71 H71        17.3096  -31.2035  -45.8867 H         1 UNK         0.1346 
     72 H72        17.2015  -31.0719  -41.6003 H         1 UNK         0.1412 
     73 H73        14.3635  -28.8191  -43.8907 H         1 UNK         0.1426 
     74 H74        14.6170  -30.1891  -40.7920 H         1 UNK         0.0716 
     75 H75        14.3008  -28.6423  -41.5389 H         1 UNK         0.0716 
     76 H76        16.4423  -27.2075  -42.1787 H         1 UNK         0.0695 
     77 H77        17.0215  -26.3389  -40.7921 H         1 UNK         0.0695 
     78 H78        18.5588  -28.7811  -41.8156 H         1 UNK         0.0983 
     79 H79        18.3633  -26.3096  -43.2757 H         1 UNK         0.3095 
     80 H80        20.5605  -25.7586  -44.7608 H         1 UNK         0.0454 
     81 H81        20.9333  -28.4503  -46.1736 H         1 UNK         0.0851 
     82 H82        21.4257  -26.8810  -46.8155 H         1 UNK         0.0851 
     83 H83        22.1886  -27.5213  -45.3718 H         1 UNK         0.0851 
     84 H84        18.8455  -27.1812  -46.6101 H         1 UNK         0.2976 
     85 H85        19.6443  -29.2471  -39.9936 H         1 UNK         0.3116 
     86 H86        21.0857  -29.2195  -38.3250 H         1 UNK         0.0646 
     87 H87        20.9127  -27.4410  -36.6157 H         1 UNK         0.0847 
     88 H88        19.3110  -27.8726  -37.1910 H         1 UNK         0.0847 
     89 H89        20.0770  -26.3834  -37.7419 H         1 UNK         0.0847 
     90 H90        22.3491  -28.9858  -40.5944 H         1 UNK         0.3040 
     91 H91        24.2772  -26.7836  -40.6654 H         1 UNK         0.1015 
     92 H92        23.4346  -27.9833  -42.7443 H         1 UNK         0.0786 
     93 H93        24.2427  -29.4485  -42.1980 H         1 UNK         0.0786 
     94 H94        25.1818  -28.0229  -42.6067 H         1 UNK         0.0786 
     95 H95        26.6598  -27.3808  -40.7684 H         1 UNK         0.3172 
     96 H96        27.5942  -28.4642  -38.3329 H         1 UNK         0.0595 
     97 H97        28.8402  -26.7598  -39.6364 H         1 UNK         0.0839 
     98 H98        29.1054  -27.9130  -40.9459 H         1 UNK         0.0839 
     99 H99        29.8491  -28.1710  -39.3746 H         1 UNK         0.0839 
    100 H100       26.9434  -30.0406  -41.3742 H         1 UNK         0.2998 
    101 H101       27.8754  -32.6748  -40.2967 H         1 UNK         0.0822 
    102 H102       29.1888  -31.9777  -42.3128 H         1 UNK         0.0787 
    103 H103       28.1767  -33.3689  -42.6580 H         1 UNK         0.0787 
    104 H104       27.6950  -31.7746  -43.2258 H         1 UNK         0.0787 
    105 H105       25.4820  -31.4372  -39.5355 H         1 UNK         0.3055 
    106 H106       23.3872  -31.8307  -39.0906 H         1 UNK         0.1106 
    107 H107       23.6144  -34.4608  -40.6520 H         1 UNK         0.0828 
    108 H108       23.9147  -34.2413  -38.9304 H         1 UNK         0.0828 
    109 H109       22.3001  -34.0094  -39.5792 H         1 UNK         0.0828 
    110 H110       23.8227  -32.8114  -42.4738 H         1 UNK         0.2931 
    111 H111       21.9980  -30.6826  -43.3445 H         1 UNK         0.0412 
    112 H112       25.4741  -31.3414  -45.1878 H         1 UNK         0.3472 
    113 H113       25.1079  -32.1229  -43.6709 H         1 UNK         0.3472 
    114 H114       20.9995  -33.2571  -43.3704 H         1 UNK         0.0970 
    115 H115       21.7543  -33.2497  -44.9283 H         1 UNK         0.0970 
    116 H116       18.3143  -33.1686  -43.8593 H         1 UNK         0.0612 
    117 H117       19.0330  -32.1242  -42.6478 H         1 UNK         0.0612 
@<TRIPOS>BOND
     1    1    2 1    
     2    1   62 1    
     3    1   63 1    
     4    1   64 1    
     5    2    3 2    
     6    2    4 am   BACKBONE|DICT|INTERRES
     7    4    5 1    
     8    4   65 1    
     9    5    6 1    
    10    5   25 1    
    11    5   66 1    
    12    6    7 1    
    13    6   67 1    
    14    6   68 1    
    15    7    8 1    
    16    8    9 1    
    17    8   69 1    
    18    8   70 1    
    19    9   10 ar   
    20    9   14 ar   
    21   10   11 ar   
    22   10   71 1    
    23   11   12 ar   
    24   11   61 1    
    25   12   13 ar   
    26   12   72 1    
    27   13   14 ar   
    28   13   15 1    
    29   14   73 1    
    30   15   16 1    
    31   15   74 1    
    32   15   75 1    
    33   16   17 1    
    34   17   18 1    
    35   17   76 1    
    36   17   77 1    
    37   18   19 1    
    38   18   27 1    
    39   18   78 1    
    40   19   20 am   BACKBONE|DICT|INTERRES
    41   19   79 1    
    42   20   21 2    
    43   20   22 1    
    44   22   23 1    
    45   22   24 1    
    46   22   80 1    
    47   23   81 1    
    48   23   82 1    
    49   23   83 1    
    50   24   25 am   BACKBONE|DICT|INTERRES
    51   24   84 1    
    52   25   26 2    
    53   27   28 2    
    54   27   29 am   BACKBONE|DICT|INTERRES
    55   29   30 1    
    56   29   85 1    
    57   30   31 1    
    58   30   32 1    
    59   30   86 1    
    60   31   87 1    
    61   31   88 1    
    62   31   89 1    
    63   32   33 2    
    64   32   34 am   BACKBONE|DICT|INTERRES
    65   34   35 1    
    66   34   90 1    
    67   35   36 1    
    68   35   37 1    
    69   35   91 1    
    70   36   92 1    
    71   36   93 1    
    72   36   94 1    
    73   37   38 2    
    74   37   39 am   BACKBONE|DICT|INTERRES
    75   39   40 1    
    76   39   95 1    
    77   40   41 1    
    78   40   42 1    
    79   40   96 1    
    80   41   97 1    
    81   41   98 1    
    82   41   99 1    
    83   42   43 2    
    84   42   44 am   BACKBONE|DICT|INTERRES
    85   44   45 1    
    86   44  100 1    
    87   45   46 1    
    88   45   47 1    
    89   45  101 1    
    90   46  102 1    
    91   46  103 1    
    92   46  104 1    
    93   47   48 2    
    94   47   49 am   BACKBONE|DICT|INTERRES
    95   49   50 1    
    96   49  105 1    
    97   50   51 1    
    98   50   52 1    
    99   50  106 1    
   100   51  107 1    
   101   51  108 1    
   102   51  109 1    
   103   52   53 2    
   104   52   54 am   BACKBONE|DICT|INTERRES
   105   54   55 1    
   106   54  110 1    
   107   55   56 1    
   108   55   59 1    
   109   55  111 1    
   110   56   57 am   BACKBONE|DICT|INTERRES
   111   56   58 2    
   112   57  112 1    
   113   57  113 1    
   114   59   60 1    
   115   59  114 1    
   116   59  115 1    
   117   60   61 1    
   118   61  116 1    
   119   61  117 1    
@<TRIPOS>SUBSTRUCTURE
     1 UNK         1 GROUP             0       ****    0 ROOT    
