@<TRIPOS>MOLECULE
3R8
117   119    1
SMALL
USER_CHARGES


@<TRIPOS>ATOM
      1 CA         21.6197  -23.1357  -48.6185 C.3       0 UNK        -0.2013 
      2 C          21.4845  -24.2688  -47.6121 C.2       0 UNK         0.4866 
      3 O          22.3001  -24.3735  -46.6955 O.2       0 UNK        -0.5176 
      4 N          20.4664  -25.1223  -47.7799 N.am      1 UNK        -0.4884 
      5 CA         20.1450  -26.2238  -46.8671 C.3       1 UNK         0.0853 
      6 C6         19.2340  -27.2681  -47.5607 C.3       10 UNK        -0.0849 
      7 S7         19.2719  -28.8881  -46.7230 S.3       10 UNK        -0.2776 
      8 C8         17.5864  -28.9635  -46.0258 C.3       10 UNK         0.0316 
      9 C9         17.4054  -30.0740  -44.9939 C.ar      10 UNK        -0.0863 
     10 C10        17.9641  -31.3417  -45.1846 C.ar      10 UNK        -0.1009 
     11 C11        17.7908  -32.3486  -44.2321 C.ar      10 UNK        -0.0712 
     12 C12        17.0295  -32.0903  -43.0887 C.ar      10 UNK        -0.0894 
     13 C13        16.4348  -30.8396  -42.8932 C.ar      10 UNK        -0.0745 
     14 C14        16.6314  -29.8375  -43.8533 C.ar      10 UNK        -0.0972 
     15 C15        15.5247  -30.6311  -41.6817 C.3       10 UNK         0.0209 
     16 S16        15.4608  -28.9167  -41.0583 S.3       10 UNK        -0.2568 
     17 C17        16.8156  -28.8936  -39.8387 C.3       10 UNK        -0.0983 
     18 CA         18.2282  -28.7010  -40.4472 C.3       3 UNK         0.0876 
     19 N          18.2981  -27.5654  -41.3676 N.am      3 UNK        -0.4424 
     20 C          19.1915  -27.4689  -42.3557 C.2       2 UNK         0.4918 
     21 O          19.9874  -28.3600  -42.6563 O.2       2 UNK        -0.4875 
     22 CA         19.2145  -26.1473  -43.1293 C.3       2 UNK         0.0481 
     23 CB         20.0889  -25.1069  -42.4067 C.3       2 UNK        -0.1831 
     24 N          19.7511  -26.4099  -44.4593 N.am      2 UNK        -0.4498 
     25 C          19.5181  -25.6901  -45.5599 C.2       1 UNK         0.5027 
     26 O          18.8209  -24.6715  -45.5798 O.2       1 UNK        -0.4969 
     27 C          19.2501  -28.4746  -39.3178 C.2       3 UNK         0.5005 
     28 O          19.3309  -27.3549  -38.8024 O.2       3 UNK        -0.5279 
     29 N          19.9846  -29.5274  -38.9320 N.am      4 UNK        -0.4463 
     30 CA         21.0093  -29.5847  -37.8756 C.3       4 UNK         0.0283 
     31 CB         20.4562  -29.1681  -36.4976 C.3       4 UNK        -0.1875 
     32 C          22.2919  -28.8114  -38.2311 C.2       4 UNK         0.4949 
     33 O          23.3784  -29.3933  -38.2132 O.2       4 UNK        -0.5039 
     34 N          22.1395  -27.5281  -38.5744 N.am      5 UNK        -0.4663 
     35 CA         23.1821  -26.6638  -39.1247 C.3       5 UNK         0.0242 
     36 CB         22.6552  -25.2200  -39.1614 C.3       5 UNK        -0.1982 
     37 C          23.6110  -27.1200  -40.5303 C.2       5 UNK         0.5017 
     38 O          22.8349  -27.7773  -41.2252 O.2       5 UNK        -0.5012 
     39 N          24.8381  -26.7449  -40.9195 N.am      6 UNK        -0.4439 
     40 CA         25.5003  -27.1043  -42.1820 C.3       6 UNK         0.0297 
     41 CB         24.7773  -26.4671  -43.3898 C.3       6 UNK        -0.2006 
     42 C          25.7145  -28.6263  -42.3322 C.2       6 UNK         0.4892 
     43 O          25.5541  -29.1645  -43.4278 O.2       6 UNK        -0.5089 
     44 N          26.0981  -29.2715  -41.2183 N.am      7 UNK        -0.4243 
     45 CA         26.3601  -30.7057  -41.0535 C.3       7 UNK         0.0196 
     46 CB         27.5521  -31.1615  -41.9236 C.3       7 UNK        -0.2007 
     47 C          25.0949  -31.5551  -41.2698 C.2       7 UNK         0.5020 
     48 O          25.0154  -32.3208  -42.2323 O.2       7 UNK        -0.5147 
     49 N          24.1262  -31.3979  -40.3565 N.am      8 UNK        -0.4734 
     50 CA         22.8458  -32.1132  -40.2417 C.3       8 UNK         0.0238 
     51 CB         23.0375  -33.6403  -40.1426 C.3       8 UNK        -0.1912 
     52 C          21.8066  -31.7492  -41.3138 C.2       8 UNK         0.5038 
     53 O          20.6575  -31.4797  -40.9582 O.2       8 UNK        -0.5046 
     54 N          22.2284  -31.7669  -42.5792 N.am      9 UNK        -0.4200 
     55 CA         21.4284  -31.4846  -43.7710 C.3       9 UNK         0.0839 
     56 C          22.2180  -30.4774  -44.6409 C.2       9 UNK         0.5513 
     57 N          22.1228  -29.1906  -44.3442 N.am      9 UNK        -0.7519 
     58 O          22.9263  -30.8546  -45.5720 O.2       9 UNK        -0.4960 
     59 C59        21.0743  -32.7867  -44.5428 C.3       10 UNK        -0.0876 
     60 S60        19.9938  -33.9146  -43.5952 S.3       10 UNK        -0.2414 
     61 C61        18.4008  -33.7250  -44.4538 C.3       10 UNK         0.0169 
     62 H62        21.5516  -22.1738  -48.1110 H         1 UNK         0.0903 
     63 H63        22.5871  -23.1902  -49.1173 H         1 UNK         0.0903 
     64 H64        20.8425  -23.1721  -49.3817 H         1 UNK         0.0903 
     65 H65        19.8077  -24.9657  -48.5297 H         1 UNK         0.3096 
     66 H66        21.0896  -26.7111  -46.6116 H         1 UNK         0.1121 
     67 H67        19.5822  -27.4415  -48.5803 H         1 UNK         0.0849 
     68 H68        18.2091  -26.9036  -47.6574 H         1 UNK         0.0849 
     69 H69        17.3534  -27.9982  -45.5734 H         1 UNK         0.0865 
     70 H70        16.8699  -29.1110  -46.8349 H         1 UNK         0.0865 
     71 H71        18.5377  -31.5454  -46.0777 H         1 UNK         0.1346 
     72 H72        16.8824  -32.8766  -42.3608 H         1 UNK         0.1412 
     73 H73        16.1664  -28.8703  -43.7238 H         1 UNK         0.1426 
     74 H74        15.8100  -31.2995  -40.8680 H         1 UNK         0.0716 
     75 H75        14.5142  -30.9208  -41.9724 H         1 UNK         0.0716 
     76 H76        16.7775  -29.8123  -39.2504 H         1 UNK         0.0695 
     77 H77        16.5886  -28.0848  -39.1406 H         1 UNK         0.0695 
     78 H78        18.4917  -29.6124  -40.9906 H         1 UNK         0.0983 
     79 H79        17.6995  -26.7823  -41.1522 H         1 UNK         0.3095 
     80 H80        18.1911  -25.7764  -43.2171 H         1 UNK         0.0454 
     81 H81        21.1184  -25.4539  -42.3047 H         1 UNK         0.0851 
     82 H82        19.7111  -24.9056  -41.4036 H         1 UNK         0.0851 
     83 H83        20.1065  -24.1583  -42.9432 H         1 UNK         0.0851 
     84 H84        20.2622  -27.2825  -44.5284 H         1 UNK         0.2976 
     85 H85        19.9329  -30.3617  -39.5128 H         1 UNK         0.3116 
     86 H86        21.2815  -30.6358  -37.7878 H         1 UNK         0.0646 
     87 H87        19.5726  -29.7487  -36.2331 H         1 UNK         0.0847 
     88 H88        21.1996  -29.3371  -35.7176 H         1 UNK         0.0847 
     89 H89        20.1873  -28.1125  -36.4582 H         1 UNK         0.0847 
     90 H90        21.1834  -27.1834  -38.6192 H         1 UNK         0.3040 
     91 H91        24.0481  -26.7133  -38.4609 H         1 UNK         0.1015 
     92 H92        21.7702  -25.1322  -39.7927 H         1 UNK         0.0786 
     93 H93        23.4065  -24.5338  -39.5545 H         1 UNK         0.0786 
     94 H94        22.3891  -24.8701  -38.1637 H         1 UNK         0.0786 
     95 H95        25.3915  -26.1878  -40.2821 H         1 UNK         0.3172 
     96 H96        26.4986  -26.6666  -42.1364 H         1 UNK         0.0595 
     97 H97        23.7814  -26.8858  -43.5348 H         1 UNK         0.0839 
     98 H98        24.6715  -25.3895  -43.2667 H         1 UNK         0.0839 
     99 H99        25.3351  -26.6336  -44.3121 H         1 UNK         0.0839 
    100 H100       26.1819  -28.7194  -40.3763 H         1 UNK         0.2998 
    101 H101       26.6532  -30.8474  -40.0118 H         1 UNK         0.0822 
    102 H102       27.7976  -32.2058  -41.7266 H         1 UNK         0.0787 
    103 H103       27.3391  -31.0774  -42.9897 H         1 UNK         0.0787 
    104 H104       28.4450  -30.5730  -41.7130 H         1 UNK         0.0787 
    105 H105       24.2556  -30.6819  -39.6481 H         1 UNK         0.3055 
    106 H106       22.4280  -31.7964  -39.2889 H         1 UNK         0.1106 
    107 H107       23.7196  -33.9038  -39.3345 H         1 UNK         0.0828 
    108 H108       22.0870  -34.1354  -39.9391 H         1 UNK         0.0828 
    109 H109       23.4280  -34.0684  -41.0661 H         1 UNK         0.0828 
    110 H110       23.2130  -31.9608  -42.7413 H         1 UNK         0.2931 
    111 H111       20.4932  -30.9984  -43.4847 H         1 UNK         0.0412 
    112 H112       22.6735  -28.5278  -44.8624 H         1 UNK         0.3472 
    113 H113       21.5448  -28.8933  -43.5612 H         1 UNK         0.3472 
    114 H114       20.6017  -32.5478  -45.4960 H         1 UNK         0.0970 
    115 H115       21.9850  -33.3320  -44.7972 H         1 UNK         0.0970 
    116 H116       18.5343  -33.9216  -45.5188 H         1 UNK         0.0612 
    117 H117       17.7147  -34.4908  -44.0889 H         1 UNK         0.0612 
@<TRIPOS>BOND
     1    1    2 1    
     2    1   62 1    
     3    1   63 1    
     4    1   64 1    
     5    2    3 2    
     6    2    4 am   BACKBONE|DICT|INTERRES
     7    4    5 1    
     8    4   65 1    
     9    5    6 1    
    10    5   25 1    
    11    5   66 1    
    12    6    7 1    
    13    6   67 1    
    14    6   68 1    
    15    7    8 1    
    16    8    9 1    
    17    8   69 1    
    18    8   70 1    
    19    9   10 ar   
    20    9   14 ar   
    21   10   11 ar   
    22   10   71 1    
    23   11   12 ar   
    24   11   61 1    
    25   12   13 ar   
    26   12   72 1    
    27   13   14 ar   
    28   13   15 1    
    29   14   73 1    
    30   15   16 1    
    31   15   74 1    
    32   15   75 1    
    33   16   17 1    
    34   17   18 1    
    35   17   76 1    
    36   17   77 1    
    37   18   19 1    
    38   18   27 1    
    39   18   78 1    
    40   19   20 am   BACKBONE|DICT|INTERRES
    41   19   79 1    
    42   20   21 2    
    43   20   22 1    
    44   22   23 1    
    45   22   24 1    
    46   22   80 1    
    47   23   81 1    
    48   23   82 1    
    49   23   83 1    
    50   24   25 am   BACKBONE|DICT|INTERRES
    51   24   84 1    
    52   25   26 2    
    53   27   28 2    
    54   27   29 am   BACKBONE|DICT|INTERRES
    55   29   30 1    
    56   29   85 1    
    57   30   31 1    
    58   30   32 1    
    59   30   86 1    
    60   31   87 1    
    61   31   88 1    
    62   31   89 1    
    63   32   33 2    
    64   32   34 am   BACKBONE|DICT|INTERRES
    65   34   35 1    
    66   34   90 1    
    67   35   36 1    
    68   35   37 1    
    69   35   91 1    
    70   36   92 1    
    71   36   93 1    
    72   36   94 1    
    73   37   38 2    
    74   37   39 am   BACKBONE|DICT|INTERRES
    75   39   40 1    
    76   39   95 1    
    77   40   41 1    
    78   40   42 1    
    79   40   96 1    
    80   41   97 1    
    81   41   98 1    
    82   41   99 1    
    83   42   43 2    
    84   42   44 am   BACKBONE|DICT|INTERRES
    85   44   45 1    
    86   44  100 1    
    87   45   46 1    
    88   45   47 1    
    89   45  101 1    
    90   46  102 1    
    91   46  103 1    
    92   46  104 1    
    93   47   48 2    
    94   47   49 am   BACKBONE|DICT|INTERRES
    95   49   50 1    
    96   49  105 1    
    97   50   51 1    
    98   50   52 1    
    99   50  106 1    
   100   51  107 1    
   101   51  108 1    
   102   51  109 1    
   103   52   53 2    
   104   52   54 am   BACKBONE|DICT|INTERRES
   105   54   55 1    
   106   54  110 1    
   107   55   56 1    
   108   55   59 1    
   109   55  111 1    
   110   56   57 am   BACKBONE|DICT|INTERRES
   111   56   58 2    
   112   57  112 1    
   113   57  113 1    
   114   59   60 1    
   115   59  114 1    
   116   59  115 1    
   117   60   61 1    
   118   61  116 1    
   119   61  117 1    
@<TRIPOS>SUBSTRUCTURE
     1 UNK         1 GROUP             0       ****    0 ROOT    
