@<TRIPOS>MOLECULE
3R8
117   119    1
SMALL
USER_CHARGES


@<TRIPOS>ATOM
      1 CA         16.1319  -22.8493  -46.1644 C.3       0 UNK        -0.2013 
      2 C          16.4981  -24.1170  -45.4072 C.2       0 UNK         0.4866 
      3 O          17.5322  -24.1543  -44.7403 O.2       0 UNK        -0.5176 
      4 N          15.6627  -25.1576  -45.5117 N.am      1 UNK        -0.4884 
      5 CA         15.8392  -26.4413  -44.8236 C.3       1 UNK         0.0853 
      6 C6         14.9233  -27.5399  -45.4175 C.3       10 UNK        -0.0849 
      7 S7         15.2392  -27.8374  -47.1877 S.3       10 UNK        -0.2776 
      8 C8         15.8658  -29.5491  -47.1698 C.3       10 UNK         0.0316 
      9 C9         17.2490  -29.6783  -46.5410 C.ar      10 UNK        -0.0863 
     10 C10        17.4811  -30.6190  -45.5329 C.ar      10 UNK        -0.1009 
     11 C11        18.7646  -30.8168  -45.0106 C.ar      10 UNK        -0.0712 
     12 C12        19.8217  -30.0345  -45.5001 C.ar      10 UNK        -0.0894 
     13 C13        19.5999  -29.0794  -46.4982 C.ar      10 UNK        -0.0745 
     14 C14        18.3141  -28.9092  -47.0146 C.ar      10 UNK        -0.0972 
     15 C15        20.7494  -28.2575  -47.0628 C.3       10 UNK         0.0209 
     16 S16        20.8946  -26.6378  -46.2448 S.3       10 UNK        -0.2568 
     17 C17        21.7627  -27.0891  -44.7075 C.3       10 UNK        -0.0983 
     18 CA         20.9604  -26.7392  -43.4298 C.3       3 UNK         0.0876 
     19 N          19.6556  -27.4057  -43.3909 N.am      3 UNK        -0.4424 
     20 C          18.6494  -27.0514  -42.5839 C.2       2 UNK         0.4918 
     21 O          18.7024  -26.1044  -41.7955 O.2       2 UNK        -0.4875 
     22 CA         17.3719  -27.9037  -42.6547 C.3       2 UNK         0.0481 
     23 CB         17.4019  -29.0009  -41.5806 C.3       2 UNK        -0.1831 
     24 N          16.2005  -27.0577  -42.4209 N.am      2 UNK        -0.4498 
     25 C          15.5476  -26.2958  -43.3096 C.2       1 UNK         0.5027 
     26 O          14.6606  -25.5201  -42.9478 O.2       1 UNK        -0.4969 
     27 C          21.7661  -27.0944  -42.1642 C.2       3 UNK         0.5005 
     28 O          22.4414  -28.1235  -42.1509 O.2       3 UNK        -0.5279 
     29 N          21.6777  -26.2501  -41.1266 N.am      4 UNK        -0.4463 
     30 CA         22.2272  -26.4729  -39.7812 C.3       4 UNK         0.0283 
     31 CB         21.9140  -25.2506  -38.9032 C.3       4 UNK        -0.1875 
     32 C          23.7304  -26.8052  -39.7113 C.2       4 UNK         0.4949 
     33 O          24.1537  -27.4735  -38.7683 O.2       4 UNK        -0.5039 
     34 N          24.5061  -26.3350  -40.6957 N.am      5 UNK        -0.4663 
     35 CA         25.9395  -26.6018  -40.8180 C.3       5 UNK         0.0242 
     36 CB         26.5877  -25.4576  -41.6151 C.3       5 UNK        -0.1982 
     37 C          26.2627  -27.9562  -41.4762 C.2       5 UNK         0.5017 
     38 O          27.3937  -28.4245  -41.3342 O.2       5 UNK        -0.5012 
     39 N          25.3073  -28.5625  -42.1973 N.am      6 UNK        -0.4439 
     40 CA         25.5150  -29.7774  -42.9907 C.3       6 UNK         0.0297 
     41 CB         24.5967  -29.7509  -44.2266 C.3       6 UNK        -0.2006 
     42 C          25.3502  -31.0501  -42.1414 C.2       6 UNK         0.4892 
     43 O          24.4610  -31.8622  -42.4059 O.2       6 UNK        -0.5089 
     44 N          26.2329  -31.1977  -41.1426 N.am      7 UNK        -0.4243 
     45 CA         26.3902  -32.3493  -40.2471 C.3       7 UNK         0.0196 
     46 CB         27.0592  -33.5186  -41.0059 C.3       7 UNK        -0.2007 
     47 C          25.0731  -32.7329  -39.5459 C.2       7 UNK         0.5020 
     48 O          24.6153  -31.9877  -38.6793 O.2       7 UNK        -0.5147 
     49 N          24.4788  -33.8680  -39.9405 N.am      8 UNK        -0.4734 
     50 CA         23.2186  -34.4045  -39.4151 C.3       8 UNK         0.0238 
     51 CB         22.9675  -35.7906  -40.0310 C.3       8 UNK        -0.1912 
     52 C          21.9957  -33.4927  -39.6287 C.2       8 UNK         0.5038 
     53 O          21.0319  -33.6082  -38.8701 O.2       8 UNK        -0.5046 
     54 N          22.0542  -32.6038  -40.6292 N.am      9 UNK        -0.4200 
     55 CA         21.0549  -31.5490  -40.8553 C.3       9 UNK         0.0839 
     56 C          21.1515  -30.3643  -39.8495 C.2       9 UNK         0.5513 
     57 N          22.1933  -30.2546  -39.0319 N.am      9 UNK        -0.7519 
     58 O          20.2437  -29.5402  -39.7948 O.2       9 UNK        -0.4960 
     59 C59        21.0803  -31.0437  -42.3190 C.3       10 UNK        -0.0876 
     60 S60        20.6640  -32.3504  -43.5208 S.3       10 UNK        -0.2414 
     61 C61        18.9441  -31.9123  -43.9534 C.3       10 UNK         0.0169 
     62 H62        16.0128  -22.0186  -45.4692 H         1 UNK         0.0903 
     63 H63        16.9215  -22.5929  -46.8702 H         1 UNK         0.0903 
     64 H64        15.2021  -22.9610  -46.7220 H         1 UNK         0.0903 
     65 H65        14.8223  -25.0727  -46.0654 H         1 UNK         0.3096 
     66 H66        16.8794  -26.7294  -44.9803 H         1 UNK         0.1121 
     67 H67        13.8722  -27.2662  -45.3048 H         1 UNK         0.0849 
     68 H68        15.0473  -28.4769  -44.8707 H         1 UNK         0.0849 
     69 H69        15.1413  -30.1896  -46.6642 H         1 UNK         0.0865 
     70 H70        15.9206  -29.9088  -48.1981 H         1 UNK         0.0865 
     71 H71        16.6628  -31.2283  -45.1731 H         1 UNK         0.1346 
     72 H72        20.8263  -30.1756  -45.1292 H         1 UNK         0.1412 
     73 H73        18.1444  -28.1867  -47.8018 H         1 UNK         0.1426 
     74 H74        20.5885  -28.0925  -48.1293 H         1 UNK         0.0716 
     75 H75        21.6914  -28.8029  -46.9859 H         1 UNK         0.0716 
     76 H76        22.7197  -26.5639  -44.7071 H         1 UNK         0.0695 
     77 H77        22.0067  -28.1509  -44.7303 H         1 UNK         0.0695 
     78 H78        20.7906  -25.6598  -43.4358 H         1 UNK         0.0983 
     79 H79        19.5389  -28.1828  -44.0256 H         1 UNK         0.3095 
     80 H80        17.3048  -28.3951  -43.6255 H         1 UNK         0.0454 
     81 H81        17.4855  -28.5839  -40.5759 H         1 UNK         0.0851 
     82 H82        18.2536  -29.6641  -41.7214 H         1 UNK         0.0851 
     83 H83        16.5039  -29.6179  -41.6159 H         1 UNK         0.0851 
     84 H84        15.9722  -26.9185  -41.4475 H         1 UNK         0.2976 
     85 H85        21.0552  -25.4590  -41.2222 H         1 UNK         0.3116 
     86 H86        21.6955  -27.3279  -39.3626 H         1 UNK         0.0646 
     87 H87        22.3796  -24.3443  -39.2924 H         1 UNK         0.0847 
     88 H88        22.2819  -25.3946  -37.8861 H         1 UNK         0.0847 
     89 H89        20.8402  -25.0755  -38.8331 H         1 UNK         0.0847 
     90 H90        24.0734  -25.7915  -41.4282 H         1 UNK         0.3040 
     91 H91        26.3845  -26.6140  -39.8202 H         1 UNK         0.1015 
     92 H92        26.1875  -25.3924  -42.6278 H         1 UNK         0.0786 
     93 H93        27.6659  -25.6019  -41.6999 H         1 UNK         0.0786 
     94 H94        26.4299  -24.4952  -41.1278 H         1 UNK         0.0786 
     95 H95        24.3562  -28.2009  -42.1715 H         1 UNK         0.3172 
     96 H96        26.5402  -29.7831  -43.3673 H         1 UNK         0.0595 
     97 H97        24.7665  -30.6248  -44.8567 H         1 UNK         0.0839 
     98 H98        24.7808  -28.8687  -44.8395 H         1 UNK         0.0839 
     99 H99        23.5444  -29.7518  -43.9526 H         1 UNK         0.0839 
    100 H100       26.8783  -30.4292  -40.9932 H         1 UNK         0.2998 
    101 H101       27.0732  -32.0364  -39.4558 H         1 UNK         0.0822 
    102 H102       27.2067  -34.3811  -40.3542 H         1 UNK         0.0787 
    103 H103       26.4736  -33.8442  -41.8666 H         1 UNK         0.0787 
    104 H104       28.0436  -33.2289  -41.3741 H         1 UNK         0.0787 
    105 H105       24.9162  -34.3910  -40.6856 H         1 UNK         0.3055 
    106 H106       23.3389  -34.5238  -38.3361 H         1 UNK         0.1106 
    107 H107       22.0512  -36.2330  -39.6371 H         1 UNK         0.0828 
    108 H108       22.8624  -35.7368  -41.1155 H         1 UNK         0.0828 
    109 H109       23.7802  -36.4809  -39.8042 H         1 UNK         0.0828 
    110 H110       22.8889  -32.5580  -41.2042 H         1 UNK         0.2931 
    111 H111       20.0698  -31.9900  -40.6899 H         1 UNK         0.0412 
    112 H112       22.9504  -30.9288  -39.0473 H         1 UNK         0.3472 
    113 H113       22.2394  -29.4762  -38.3950 H         1 UNK         0.3472 
    114 H114       22.0742  -30.6700  -42.5564 H         1 UNK         0.0970 
    115 H115       20.4071  -30.1977  -42.4591 H         1 UNK         0.0970 
    116 H116       18.4683  -32.8219  -44.3230 H         1 UNK         0.0612 
    117 H117       18.4041  -31.6373  -43.0472 H         1 UNK         0.0612 
@<TRIPOS>BOND
     1    1    2 1    
     2    1   62 1    
     3    1   63 1    
     4    1   64 1    
     5    2    3 2    
     6    2    4 am   BACKBONE|DICT|INTERRES
     7    4    5 1    
     8    4   65 1    
     9    5    6 1    
    10    5   25 1    
    11    5   66 1    
    12    6    7 1    
    13    6   67 1    
    14    6   68 1    
    15    7    8 1    
    16    8    9 1    
    17    8   69 1    
    18    8   70 1    
    19    9   10 ar   
    20    9   14 ar   
    21   10   11 ar   
    22   10   71 1    
    23   11   12 ar   
    24   11   61 1    
    25   12   13 ar   
    26   12   72 1    
    27   13   14 ar   
    28   13   15 1    
    29   14   73 1    
    30   15   16 1    
    31   15   74 1    
    32   15   75 1    
    33   16   17 1    
    34   17   18 1    
    35   17   76 1    
    36   17   77 1    
    37   18   19 1    
    38   18   27 1    
    39   18   78 1    
    40   19   20 am   BACKBONE|DICT|INTERRES
    41   19   79 1    
    42   20   21 2    
    43   20   22 1    
    44   22   23 1    
    45   22   24 1    
    46   22   80 1    
    47   23   81 1    
    48   23   82 1    
    49   23   83 1    
    50   24   25 am   BACKBONE|DICT|INTERRES
    51   24   84 1    
    52   25   26 2    
    53   27   28 2    
    54   27   29 am   BACKBONE|DICT|INTERRES
    55   29   30 1    
    56   29   85 1    
    57   30   31 1    
    58   30   32 1    
    59   30   86 1    
    60   31   87 1    
    61   31   88 1    
    62   31   89 1    
    63   32   33 2    
    64   32   34 am   BACKBONE|DICT|INTERRES
    65   34   35 1    
    66   34   90 1    
    67   35   36 1    
    68   35   37 1    
    69   35   91 1    
    70   36   92 1    
    71   36   93 1    
    72   36   94 1    
    73   37   38 2    
    74   37   39 am   BACKBONE|DICT|INTERRES
    75   39   40 1    
    76   39   95 1    
    77   40   41 1    
    78   40   42 1    
    79   40   96 1    
    80   41   97 1    
    81   41   98 1    
    82   41   99 1    
    83   42   43 2    
    84   42   44 am   BACKBONE|DICT|INTERRES
    85   44   45 1    
    86   44  100 1    
    87   45   46 1    
    88   45   47 1    
    89   45  101 1    
    90   46  102 1    
    91   46  103 1    
    92   46  104 1    
    93   47   48 2    
    94   47   49 am   BACKBONE|DICT|INTERRES
    95   49   50 1    
    96   49  105 1    
    97   50   51 1    
    98   50   52 1    
    99   50  106 1    
   100   51  107 1    
   101   51  108 1    
   102   51  109 1    
   103   52   53 2    
   104   52   54 am   BACKBONE|DICT|INTERRES
   105   54   55 1    
   106   54  110 1    
   107   55   56 1    
   108   55   59 1    
   109   55  111 1    
   110   56   57 am   BACKBONE|DICT|INTERRES
   111   56   58 2    
   112   57  112 1    
   113   57  113 1    
   114   59   60 1    
   115   59  114 1    
   116   59  115 1    
   117   60   61 1    
   118   61  116 1    
   119   61  117 1    
@<TRIPOS>SUBSTRUCTURE
     1 UNK         1 GROUP             0       ****    0 ROOT    
