@<TRIPOS>MOLECULE
3R8
117   119    1
SMALL
USER_CHARGES


@<TRIPOS>ATOM
      1 CA         14.7390  -24.5716  -42.3904 C.3       0 UNK        -0.2013 
      2 C          15.8662  -25.4229  -42.9545 C.2       0 UNK         0.4866 
      3 O          15.6093  -26.3462  -43.7287 O.2       0 UNK        -0.5176 
      4 N          17.1155  -25.1203  -42.5791 N.am      1 UNK        -0.4884 
      5 CA         18.3253  -25.8237  -43.0191 C.3       1 UNK         0.0853 
      6 C6         19.4993  -25.6336  -42.0225 C.3       10 UNK        -0.0849 
      7 S7         19.2031  -26.4937  -40.4424 S.3       10 UNK        -0.2776 
      8 C8         20.2322  -27.9852  -40.6368 C.3       10 UNK         0.0316 
      9 C9         19.6071  -28.9967  -41.5873 C.ar      10 UNK        -0.0863 
     10 C10        18.7870  -30.0162  -41.0973 C.ar      10 UNK        -0.1009 
     11 C11        18.2043  -30.9397  -41.9708 C.ar      10 UNK        -0.0712 
     12 C12        18.4395  -30.8345  -43.3465 C.ar      10 UNK        -0.0894 
     13 C13        19.2591  -29.8200  -43.8486 C.ar      10 UNK        -0.0745 
     14 C14        19.8457  -28.9147  -42.9610 C.ar      10 UNK        -0.0972 
     15 C15        19.4872  -29.6666  -45.3468 C.3       10 UNK         0.0209 
     16 S16        21.2572  -29.7480  -45.7556 S.3       10 UNK        -0.2568 
     17 C17        21.3579  -28.8447  -47.3403 C.3       10 UNK        -0.0983 
     18 CA         21.5331  -27.2920  -47.2685 C.3       3 UNK         0.0876 
     19 N          20.3362  -26.5734  -46.8415 N.am      3 UNK        -0.4424 
     20 C          19.1935  -26.4469  -47.5209 C.2       2 UNK         0.4918 
     21 O          18.9905  -26.9856  -48.6102 O.2       2 UNK        -0.4875 
     22 CA         18.0920  -25.5754  -46.8737 C.3       2 UNK         0.0481 
     23 CB         16.7297  -25.7330  -47.5741 C.3       2 UNK        -0.1831 
     24 N          17.9124  -25.8302  -45.4394 N.am      2 UNK        -0.4498 
     25 C          18.7144  -25.4093  -44.4534 C.2       1 UNK         0.5027 
     26 O          19.7230  -24.7300  -44.6512 O.2       1 UNK        -0.4969 
     27 C          22.7084  -26.7415  -46.4306 C.2       3 UNK         0.5005 
     28 O          22.8106  -25.5208  -46.2812 O.2       3 UNK        -0.5279 
     29 N          23.5666  -27.6153  -45.8924 N.am      4 UNK        -0.4463 
     30 CA         24.5903  -27.2718  -44.9026 C.3       4 UNK         0.0283 
     31 CB         25.6409  -28.3937  -44.8614 C.3       4 UNK        -0.1875 
     32 C          23.9700  -27.0457  -43.5097 C.2       4 UNK         0.4949 
     33 O          22.8773  -27.5385  -43.2288 O.2       4 UNK        -0.5039 
     34 N          24.6857  -26.3109  -42.6531 N.am      5 UNK        -0.4663 
     35 CA         24.2832  -26.0254  -41.2731 C.3       5 UNK         0.0242 
     36 CB         24.9942  -24.7357  -40.8235 C.3       5 UNK        -0.1982 
     37 C          24.6051  -27.1884  -40.3127 C.2       5 UNK         0.5017 
     38 O          25.3234  -28.1191  -40.6845 O.2       5 UNK        -0.5012 
     39 N          24.1067  -27.0645  -39.0725 N.am      6 UNK        -0.4439 
     40 CA         24.3925  -27.9084  -37.9035 C.3       6 UNK         0.0297 
     41 CB         25.8795  -27.7972  -37.4998 C.3       6 UNK        -0.2006 
     42 C          23.9205  -29.3665  -38.0624 C.2       6 UNK         0.4892 
     43 O          24.7313  -30.2906  -37.9766 O.2       6 UNK        -0.5089 
     44 N          22.6019  -29.5287  -38.2598 N.am      7 UNK        -0.4243 
     45 CA         21.8618  -30.8000  -38.3333 C.3       7 UNK         0.0196 
     46 CB         21.8019  -31.4670  -36.9425 C.3       7 UNK        -0.2007 
     47 C          22.3919  -31.7489  -39.4255 C.2       7 UNK         0.5020 
     48 O          22.6345  -32.9286  -39.1647 O.2       7 UNK        -0.5147 
     49 N          22.5715  -31.2050  -40.6358 N.am      8 UNK        -0.4734 
     50 CA         23.1886  -31.8743  -41.7857 C.3       8 UNK         0.0238 
     51 CB         23.3483  -30.8536  -42.9178 C.3       8 UNK        -0.1912 
     52 C          22.4683  -33.1410  -42.2850 C.2       8 UNK         0.5038 
     53 O          23.1140  -33.9786  -42.9169 O.2       8 UNK        -0.5046 
     54 N          21.1718  -33.2790  -41.9791 N.am      9 UNK        -0.4200 
     55 CA         20.3983  -34.5138  -42.1790 C.3       9 UNK         0.0839 
     56 C          20.7669  -35.6838  -41.2169 C.2       9 UNK         0.5513 
     57 N          21.5423  -35.4715  -40.1594 N.am      9 UNK        -0.7519 
     58 O          20.3483  -36.8158  -41.4466 O.2       9 UNK        -0.4960 
     59 C59        18.8709  -34.2465  -42.2066 C.3       10 UNK        -0.0876 
     60 S60        18.2376  -33.4109  -40.7080 S.3       10 UNK        -0.2414 
     61 C61        17.2944  -32.0288  -41.4232 C.3       10 UNK         0.0169 
     62 H62        15.1089  -23.7982  -41.7174 H         1 UNK         0.0903 
     63 H63        14.1951  -24.0857  -43.1999 H         1 UNK         0.0903 
     64 H64        14.0392  -25.1966  -41.8364 H         1 UNK         0.0903 
     65 H65        17.2691  -24.3465  -41.9478 H         1 UNK         0.3096 
     66 H66        18.0917  -26.8891  -43.0598 H         1 UNK         0.1121 
     67 H67        20.4410  -25.9923  -42.4429 H         1 UNK         0.0849 
     68 H68        19.6585  -24.5735  -41.8171 H         1 UNK         0.0849 
     69 H69        21.2338  -27.7125  -40.9732 H         1 UNK         0.0865 
     70 H70        20.3531  -28.4352  -39.6528 H         1 UNK         0.0865 
     71 H71        18.5916  -30.0884  -40.0360 H         1 UNK         0.1346 
     72 H72        17.9740  -31.5335  -44.0274 H         1 UNK         0.1412 
     73 H73        20.4787  -28.1326  -43.3527 H         1 UNK         0.1426 
     74 H74        19.0726  -28.7098  -45.6596 H         1 UNK         0.0716 
     75 H75        18.9569  -30.4357  -45.9101 H         1 UNK         0.0716 
     76 H76        20.4809  -29.0997  -47.9365 H         1 UNK         0.0695 
     77 H77        22.1990  -29.2676  -47.8920 H         1 UNK         0.0695 
     78 H78        21.7423  -26.9563  -48.2866 H         1 UNK         0.0983 
     79 H79        20.4507  -26.0172  -45.9988 H         1 UNK         0.3095 
     80 H80        18.4041  -24.5364  -46.9969 H         1 UNK         0.0454 
     81 H81        16.7979  -25.4732  -48.6314 H         1 UNK         0.0851 
     82 H82        15.9775  -25.0794  -47.1322 H         1 UNK         0.0851 
     83 H83        16.3619  -26.7579  -47.5121 H         1 UNK         0.0851 
     84 H84        17.0770  -26.3391  -45.1672 H         1 UNK         0.2976 
     85 H85        23.3383  -28.5968  -45.9813 H         1 UNK         0.3116 
     86 H86        25.0833  -26.3478  -45.2126 H         1 UNK         0.0646 
     87 H87        25.1953  -29.3582  -44.6205 H         1 UNK         0.0847 
     88 H88        26.1494  -28.4930  -45.8205 H         1 UNK         0.0847 
     89 H89        26.4058  -28.1924  -44.1103 H         1 UNK         0.0847 
     90 H90        25.5978  -25.9816  -42.9347 H         1 UNK         0.3040 
     91 H91        23.2039  -25.8554  -41.2501 H         1 UNK         0.1015 
     92 H92        24.6777  -24.4305  -39.8254 H         1 UNK         0.0786 
     93 H93        24.7705  -23.9058  -41.4944 H         1 UNK         0.0786 
     94 H94        26.0776  -24.8613  -40.7962 H         1 UNK         0.0786 
     95 H95        23.5220  -26.2615  -38.8836 H         1 UNK         0.3172 
     96 H96        23.8100  -27.4916  -37.0801 H         1 UNK         0.0595 
     97 H97        26.5412  -28.2127  -38.2606 H         1 UNK         0.0839 
     98 H98        26.0730  -28.3394  -36.5733 H         1 UNK         0.0839 
     99 H99        26.1700  -26.7600  -37.3335 H         1 UNK         0.0839 
    100 H100       22.0394  -28.6914  -38.3031 H         1 UNK         0.2998 
    101 H101       20.8375  -30.5563  -38.6175 H         1 UNK         0.0822 
    102 H102       21.1738  -32.3586  -36.9632 H         1 UNK         0.0787 
    103 H103       21.3810  -30.7931  -36.1964 H         1 UNK         0.0787 
    104 H104       22.7903  -31.7738  -36.5982 H         1 UNK         0.0787 
    105 H105       22.3517  -30.2277  -40.7584 H         1 UNK         0.3055 
    106 H106       24.1862  -32.1914  -41.4741 H         1 UNK         0.1106 
    107 H107       24.0172  -30.0457  -42.6215 H         1 UNK         0.0828 
    108 H108       23.7658  -31.3128  -43.8148 H         1 UNK         0.0828 
    109 H109       22.3908  -30.4104  -43.1889 H         1 UNK         0.0828 
    110 H110       20.7129  -32.5470  -41.4571 H         1 UNK         0.2931 
    111 H111       20.6561  -34.8801  -43.1748 H         1 UNK         0.0412 
    112 H112       21.7708  -36.2453  -39.5561 H         1 UNK         0.3472 
    113 H113       21.8926  -34.5439  -39.9389 H         1 UNK         0.3472 
    114 H114       18.6342  -33.6494  -43.0865 H         1 UNK         0.0970 
    115 H115       18.3175  -35.1777  -42.3421 H         1 UNK         0.0970 
    116 H116       16.6528  -31.6066  -40.6484 H         1 UNK         0.0612 
    117 H117       16.6252  -32.4049  -42.1987 H         1 UNK         0.0612 
@<TRIPOS>BOND
     1    1    2 1    
     2    1   62 1    
     3    1   63 1    
     4    1   64 1    
     5    2    3 2    
     6    2    4 am   BACKBONE|DICT|INTERRES
     7    4    5 1    
     8    4   65 1    
     9    5    6 1    
    10    5   25 1    
    11    5   66 1    
    12    6    7 1    
    13    6   67 1    
    14    6   68 1    
    15    7    8 1    
    16    8    9 1    
    17    8   69 1    
    18    8   70 1    
    19    9   10 ar   
    20    9   14 ar   
    21   10   11 ar   
    22   10   71 1    
    23   11   12 ar   
    24   11   61 1    
    25   12   13 ar   
    26   12   72 1    
    27   13   14 ar   
    28   13   15 1    
    29   14   73 1    
    30   15   16 1    
    31   15   74 1    
    32   15   75 1    
    33   16   17 1    
    34   17   18 1    
    35   17   76 1    
    36   17   77 1    
    37   18   19 1    
    38   18   27 1    
    39   18   78 1    
    40   19   20 am   BACKBONE|DICT|INTERRES
    41   19   79 1    
    42   20   21 2    
    43   20   22 1    
    44   22   23 1    
    45   22   24 1    
    46   22   80 1    
    47   23   81 1    
    48   23   82 1    
    49   23   83 1    
    50   24   25 am   BACKBONE|DICT|INTERRES
    51   24   84 1    
    52   25   26 2    
    53   27   28 2    
    54   27   29 am   BACKBONE|DICT|INTERRES
    55   29   30 1    
    56   29   85 1    
    57   30   31 1    
    58   30   32 1    
    59   30   86 1    
    60   31   87 1    
    61   31   88 1    
    62   31   89 1    
    63   32   33 2    
    64   32   34 am   BACKBONE|DICT|INTERRES
    65   34   35 1    
    66   34   90 1    
    67   35   36 1    
    68   35   37 1    
    69   35   91 1    
    70   36   92 1    
    71   36   93 1    
    72   36   94 1    
    73   37   38 2    
    74   37   39 am   BACKBONE|DICT|INTERRES
    75   39   40 1    
    76   39   95 1    
    77   40   41 1    
    78   40   42 1    
    79   40   96 1    
    80   41   97 1    
    81   41   98 1    
    82   41   99 1    
    83   42   43 2    
    84   42   44 am   BACKBONE|DICT|INTERRES
    85   44   45 1    
    86   44  100 1    
    87   45   46 1    
    88   45   47 1    
    89   45  101 1    
    90   46  102 1    
    91   46  103 1    
    92   46  104 1    
    93   47   48 2    
    94   47   49 am   BACKBONE|DICT|INTERRES
    95   49   50 1    
    96   49  105 1    
    97   50   51 1    
    98   50   52 1    
    99   50  106 1    
   100   51  107 1    
   101   51  108 1    
   102   51  109 1    
   103   52   53 2    
   104   52   54 am   BACKBONE|DICT|INTERRES
   105   54   55 1    
   106   54  110 1    
   107   55   56 1    
   108   55   59 1    
   109   55  111 1    
   110   56   57 am   BACKBONE|DICT|INTERRES
   111   56   58 2    
   112   57  112 1    
   113   57  113 1    
   114   59   60 1    
   115   59  114 1    
   116   59  115 1    
   117   60   61 1    
   118   61  116 1    
   119   61  117 1    
@<TRIPOS>SUBSTRUCTURE
     1 UNK         1 GROUP             0       ****    0 ROOT    
