@<TRIPOS>MOLECULE
3R8
117   119    1
SMALL
USER_CHARGES


@<TRIPOS>ATOM
      1 CA         16.7363  -25.0866  -44.9636 C.3       0 UNK        -0.2013 
      2 C          17.9331  -25.4986  -45.8069 C.2       0 UNK         0.4866 
      3 O          18.6618  -24.6370  -46.2980 O.2       0 UNK        -0.5176 
      4 N          18.1384  -26.8112  -45.9816 N.am      1 UNK        -0.4884 
      5 CA         19.2104  -27.4052  -46.8000 C.3       1 UNK         0.0853 
      6 C6         18.9818  -28.9177  -47.0624 C.3       10 UNK        -0.0849 
      7 S7         17.2418  -29.3215  -47.4509 S.3       10 UNK        -0.2776 
      8 C8         16.8595  -30.6491  -46.2585 C.3       10 UNK         0.0316 
      9 C9         17.1386  -30.2914  -44.7995 C.ar      10 UNK        -0.0863 
     10 C10        18.1242  -30.9903  -44.0952 C.ar      10 UNK        -0.1009 
     11 C11        18.3134  -30.7736  -42.7281 C.ar      10 UNK        -0.0712 
     12 C12        17.5118  -29.8411  -42.0676 C.ar      10 UNK        -0.0894 
     13 C13        16.5799  -29.0670  -42.7690 C.ar      10 UNK        -0.0745 
     14 C14        16.3839  -29.3168  -44.1345 C.ar      10 UNK        -0.0972 
     15 C15        15.7432  -27.9918  -42.0687 C.3       10 UNK         0.0209 
     16 S16        16.5445  -27.1707  -40.6355 S.3       10 UNK        -0.2568 
     17 C17        18.0131  -26.3762  -41.3744 C.3       10 UNK        -0.0983 
     18 CA         19.3300  -27.0986  -40.9648 C.3       3 UNK         0.0876 
     19 N          20.2609  -27.2537  -42.0861 N.am      3 UNK        -0.4424 
     20 C          21.0790  -26.3417  -42.6346 C.2       2 UNK         0.4918 
     21 O          21.2860  -25.2168  -42.1844 O.2       2 UNK        -0.4875 
     22 CA         21.7132  -26.7502  -43.9650 C.3       2 UNK         0.0481 
     23 CB         22.7307  -27.8918  -43.7963 C.3       2 UNK        -0.1831 
     24 N          20.6137  -27.1350  -44.8393 N.am      2 UNK        -0.4498 
     25 C          20.6031  -27.1817  -46.1739 C.2       1 UNK         0.5027 
     26 O          21.5975  -27.0481  -46.8873 O.2       1 UNK        -0.4969 
     27 C          20.0013  -26.5827  -39.6768 C.2       3 UNK         0.5005 
     28 O          20.4342  -27.4037  -38.8681 O.2       3 UNK        -0.5279 
     29 N          20.1609  -25.2594  -39.5353 N.am      4 UNK        -0.4463 
     30 CA         20.9617  -24.6301  -38.4786 C.3       4 UNK         0.0283 
     31 CB         20.7734  -23.1059  -38.5322 C.3       4 UNK        -0.1875 
     32 C          22.4582  -24.9928  -38.5627 C.2       4 UNK         0.4949 
     33 O          23.1134  -25.0977  -37.5263 O.2       4 UNK        -0.5039 
     34 N          22.9600  -25.2084  -39.7879 N.am      5 UNK        -0.4663 
     35 CA         24.3163  -25.6933  -40.0623 C.3       5 UNK         0.0242 
     36 CB         24.7747  -25.1509  -41.4266 C.3       5 UNK        -0.1982 
     37 C          24.4321  -27.2300  -40.0160 C.2       5 UNK         0.5017 
     38 O          25.5519  -27.7388  -40.0411 O.2       5 UNK        -0.5012 
     39 N          23.2926  -27.9396  -39.9697 N.am      6 UNK        -0.4439 
     40 CA         23.0842  -29.3899  -39.8073 C.3       6 UNK         0.0297 
     41 CB         23.5603  -29.8424  -38.4146 C.3       6 UNK        -0.2006 
     42 C          23.6547  -30.3284  -40.8917 C.2       6 UNK         0.4892 
     43 O          23.1110  -31.4201  -41.0567 O.2       6 UNK        -0.5089 
     44 N          24.7145  -29.9101  -41.5966 N.am      7 UNK        -0.4243 
     45 CA         25.5642  -30.6920  -42.5076 C.3       7 UNK         0.0196 
     46 CB         26.5224  -29.7346  -43.2342 C.3       7 UNK        -0.2007 
     47 C          24.8466  -31.5953  -43.5268 C.2       7 UNK         0.5020 
     48 O          25.3185  -32.7031  -43.7836 O.2       7 UNK        -0.5147 
     49 N          23.7096  -31.1328  -44.0635 N.am      8 UNK        -0.4734 
     50 CA         22.8579  -31.8760  -45.0023 C.3       8 UNK         0.0238 
     51 CB         21.7569  -30.9441  -45.5364 C.3       8 UNK        -0.1912 
     52 C          22.2367  -33.1606  -44.4172 C.2       8 UNK         0.5038 
     53 O          21.8756  -34.0517  -45.1868 O.2       8 UNK        -0.5046 
     54 N          22.1322  -33.2315  -43.0854 N.am      9 UNK        -0.4200 
     55 CA         21.6574  -34.3902  -42.3182 C.3       9 UNK         0.0839 
     56 C          22.8240  -35.2281  -41.7167 C.2       9 UNK         0.5513 
     57 N          24.0870  -34.9368  -42.0106 N.am      9 UNK        -0.7519 
     58 O          22.5798  -36.1817  -40.9817 O.2       9 UNK        -0.4960 
     59 C59        20.6317  -33.9570  -41.2348 C.3       10 UNK        -0.0876 
     60 S60        19.0810  -33.3264  -41.9632 S.3       10 UNK        -0.2414 
     61 C61        19.3923  -31.5341  -41.9694 C.3       10 UNK         0.0169 
     62 H62        16.1144  -25.9397  -44.6963 H         1 UNK         0.0903 
     63 H63        17.0696  -24.6023  -44.0462 H         1 UNK         0.0903 
     64 H64        16.1161  -24.3799  -45.5145 H         1 UNK         0.0903 
     65 H65        17.4817  -27.4780  -45.6000 H         1 UNK         0.3096 
     66 H66        19.2049  -26.8904  -47.7636 H         1 UNK         0.1121 
     67 H67        19.3006  -29.5109  -46.2056 H         1 UNK         0.0849 
     68 H68        19.6043  -29.2498  -47.8954 H         1 UNK         0.0849 
     69 H69        15.8058  -30.9130  -46.3590 H         1 UNK         0.0865 
     70 H70        17.4172  -31.5415  -46.5476 H         1 UNK         0.0865 
     71 H71        18.7246  -31.7354  -44.5997 H         1 UNK         0.1346 
     72 H72        17.6232  -29.7131  -41.0011 H         1 UNK         0.1412 
     73 H73        15.6244  -28.7710  -44.6782 H         1 UNK         0.1426 
     74 H74        14.8178  -28.4539  -41.7230 H         1 UNK         0.0716 
     75 H75        15.4500  -27.2207  -42.7817 H         1 UNK         0.0716 
     76 H76        18.0164  -25.3174  -41.1135 H         1 UNK         0.0695 
     77 H77        17.8898  -26.4019  -42.4577 H         1 UNK         0.0695 
     78 H78        19.0814  -28.1277  -40.7175 H         1 UNK         0.0983 
     79 H79        20.2236  -28.1625  -42.5238 H         1 UNK         0.3095 
     80 H80        22.2162  -25.8789  -44.3898 H         1 UNK         0.0454 
     81 H81        23.1848  -28.1562  -44.7514 H         1 UNK         0.0851 
     82 H82        22.2679  -28.7848  -43.3788 H         1 UNK         0.0851 
     83 H83        23.5408  -27.5992  -43.1287 H         1 UNK         0.0851 
     84 H84        19.7096  -27.1947  -44.3917 H         1 UNK         0.2976 
     85 H85        19.8448  -24.6583  -40.2841 H         1 UNK         0.3116 
     86 H86        20.5882  -24.9880  -37.5168 H         1 UNK         0.0646 
     87 H87        21.1121  -22.6892  -39.4818 H         1 UNK         0.0847 
     88 H88        19.7278  -22.8293  -38.3967 H         1 UNK         0.0847 
     89 H89        21.3416  -22.6153  -37.7406 H         1 UNK         0.0847 
     90 H90        22.3505  -25.0757  -40.5913 H         1 UNK         0.3040 
     91 H91        24.9962  -25.3033  -39.3013 H         1 UNK         0.1015 
     92 H92        25.7818  -25.4935  -41.6691 H         1 UNK         0.0786 
     93 H93        24.7980  -24.0610  -41.4276 H         1 UNK         0.0786 
     94 H94        24.1178  -25.4680  -42.2356 H         1 UNK         0.0786 
     95 H95        22.4399  -27.3991  -39.9088 H         1 UNK         0.3172 
     96 H96        22.0022  -29.5275  -39.8398 H         1 UNK         0.0595 
     97 H97        24.6376  -29.7220  -38.2949 H         1 UNK         0.0839 
     98 H98        23.3302  -30.8952  -38.2442 H         1 UNK         0.0839 
     99 H99        23.0687  -29.2732  -37.6254 H         1 UNK         0.0839 
    100 H100       25.1046  -29.0217  -41.2933 H         1 UNK         0.2998 
    101 H101       26.1626  -31.3508  -41.8753 H         1 UNK         0.0822 
    102 H102       27.1941  -30.2799  -43.8990 H         1 UNK         0.0787 
    103 H103       27.1453  -29.1847  -42.5280 H         1 UNK         0.0787 
    104 H104       25.9814  -29.0069  -43.8405 H         1 UNK         0.0787 
    105 H105       23.3981  -30.2160  -43.7844 H         1 UNK         0.3055 
    106 H106       23.4839  -32.1837  -45.8430 H         1 UNK         0.1106 
    107 H107       21.1196  -30.5693  -44.7356 H         1 UNK         0.0828 
    108 H108       22.1798  -30.0882  -46.0625 H         1 UNK         0.0828 
    109 H109       21.1132  -31.4674  -46.2451 H         1 UNK         0.0828 
    110 H110       22.5013  -32.4711  -42.5207 H         1 UNK         0.2931 
    111 H111       21.1416  -35.0759  -42.9927 H         1 UNK         0.0412 
    112 H112       24.3174  -34.1719  -42.6326 H         1 UNK         0.3472 
    113 H113       24.8240  -35.4990  -41.6153 H         1 UNK         0.3472 
    114 H114       20.3590  -34.8043  -40.6031 H         1 UNK         0.0970 
    115 H115       21.0633  -33.2110  -40.5649 H         1 UNK         0.0970 
    116 H116       19.4654  -31.1854  -40.9380 H         1 UNK         0.0612 
    117 H117       20.3558  -31.3247  -42.4326 H         1 UNK         0.0612 
@<TRIPOS>BOND
     1    1    2 1    
     2    1   62 1    
     3    1   63 1    
     4    1   64 1    
     5    2    3 2    
     6    2    4 am   BACKBONE|DICT|INTERRES
     7    4    5 1    
     8    4   65 1    
     9    5    6 1    
    10    5   25 1    
    11    5   66 1    
    12    6    7 1    
    13    6   67 1    
    14    6   68 1    
    15    7    8 1    
    16    8    9 1    
    17    8   69 1    
    18    8   70 1    
    19    9   10 ar   
    20    9   14 ar   
    21   10   11 ar   
    22   10   71 1    
    23   11   12 ar   
    24   11   61 1    
    25   12   13 ar   
    26   12   72 1    
    27   13   14 ar   
    28   13   15 1    
    29   14   73 1    
    30   15   16 1    
    31   15   74 1    
    32   15   75 1    
    33   16   17 1    
    34   17   18 1    
    35   17   76 1    
    36   17   77 1    
    37   18   19 1    
    38   18   27 1    
    39   18   78 1    
    40   19   20 am   BACKBONE|DICT|INTERRES
    41   19   79 1    
    42   20   21 2    
    43   20   22 1    
    44   22   23 1    
    45   22   24 1    
    46   22   80 1    
    47   23   81 1    
    48   23   82 1    
    49   23   83 1    
    50   24   25 am   BACKBONE|DICT|INTERRES
    51   24   84 1    
    52   25   26 2    
    53   27   28 2    
    54   27   29 am   BACKBONE|DICT|INTERRES
    55   29   30 1    
    56   29   85 1    
    57   30   31 1    
    58   30   32 1    
    59   30   86 1    
    60   31   87 1    
    61   31   88 1    
    62   31   89 1    
    63   32   33 2    
    64   32   34 am   BACKBONE|DICT|INTERRES
    65   34   35 1    
    66   34   90 1    
    67   35   36 1    
    68   35   37 1    
    69   35   91 1    
    70   36   92 1    
    71   36   93 1    
    72   36   94 1    
    73   37   38 2    
    74   37   39 am   BACKBONE|DICT|INTERRES
    75   39   40 1    
    76   39   95 1    
    77   40   41 1    
    78   40   42 1    
    79   40   96 1    
    80   41   97 1    
    81   41   98 1    
    82   41   99 1    
    83   42   43 2    
    84   42   44 am   BACKBONE|DICT|INTERRES
    85   44   45 1    
    86   44  100 1    
    87   45   46 1    
    88   45   47 1    
    89   45  101 1    
    90   46  102 1    
    91   46  103 1    
    92   46  104 1    
    93   47   48 2    
    94   47   49 am   BACKBONE|DICT|INTERRES
    95   49   50 1    
    96   49  105 1    
    97   50   51 1    
    98   50   52 1    
    99   50  106 1    
   100   51  107 1    
   101   51  108 1    
   102   51  109 1    
   103   52   53 2    
   104   52   54 am   BACKBONE|DICT|INTERRES
   105   54   55 1    
   106   54  110 1    
   107   55   56 1    
   108   55   59 1    
   109   55  111 1    
   110   56   57 am   BACKBONE|DICT|INTERRES
   111   56   58 2    
   112   57  112 1    
   113   57  113 1    
   114   59   60 1    
   115   59  114 1    
   116   59  115 1    
   117   60   61 1    
   118   61  116 1    
   119   61  117 1    
@<TRIPOS>SUBSTRUCTURE
     1 UNK         1 GROUP             0       ****    0 ROOT    
