@<TRIPOS>MOLECULE
3R8
117   119    1
SMALL
USER_CHARGES


@<TRIPOS>ATOM
      1 CA         18.0692  -27.0320  -38.9645 C.3       0 UNK        -0.2013 
      2 C          17.9245  -26.3903  -40.3360 C.2       0 UNK         0.4866 
      3 O          17.6984  -25.1827  -40.4253 O.2       0 UNK        -0.5176 
      4 N          18.0400  -27.1873  -41.4038 N.am      1 UNK        -0.4884 
      5 CA         18.0029  -26.7253  -42.7953 C.3       1 UNK         0.0853 
      6 C6         17.7202  -27.8985  -43.7615 C.3       10 UNK        -0.0849 
      7 S7         15.9522  -28.3634  -43.8116 S.3       10 UNK        -0.2776 
      8 C8         15.9473  -30.1957  -43.9092 C.3       10 UNK         0.0316 
      9 C9         17.1499  -30.7984  -44.6298 C.ar      10 UNK        -0.0863 
     10 C10        17.8614  -31.8451  -44.0391 C.ar      10 UNK        -0.1009 
     11 C11        19.0231  -32.3438  -44.6327 C.ar      10 UNK        -0.0712 
     12 C12        19.4761  -31.7786  -45.8314 C.ar      10 UNK        -0.0894 
     13 C13        18.7593  -30.7481  -46.4520 C.ar      10 UNK        -0.0745 
     14 C14        17.5750  -30.2944  -45.8613 C.ar      10 UNK        -0.0972 
     15 C15        19.2619  -30.1401  -47.7605 C.3       10 UNK         0.0209 
     16 S16        19.0616  -28.3220  -47.8249 S.3       10 UNK        -0.2568 
     17 C17        20.7384  -27.7335  -48.2500 C.3       10 UNK        -0.0983 
     18 CA         21.5754  -27.2589  -47.0321 C.3       3 UNK         0.0876 
     19 N          20.8363  -26.2915  -46.2115 N.am      3 UNK        -0.4424 
     20 C          21.3845  -25.2929  -45.5077 C.2       2 UNK         0.4918 
     21 O          22.5925  -25.0602  -45.4743 O.2       2 UNK        -0.4875 
     22 CA         20.4191  -24.3998  -44.7049 C.3       2 UNK         0.0481 
     23 CB         19.9374  -23.2230  -45.5683 C.3       2 UNK        -0.1831 
     24 N          19.2575  -25.1236  -44.1731 N.am      2 UNK        -0.4498 
     25 C          19.3229  -26.0231  -43.1806 C.2       1 UNK         0.5027 
     26 O          20.3761  -26.3313  -42.6214 O.2       1 UNK        -0.4969 
     27 C          22.1217  -28.4542  -46.2208 C.2       3 UNK         0.5005 
     28 O          22.8898  -29.2464  -46.7707 O.2       3 UNK        -0.5279 
     29 N          21.7145  -28.5875  -44.9514 N.am      4 UNK        -0.4463 
     30 CA         22.1360  -29.6620  -44.0562 C.3       4 UNK         0.0283 
     31 CB         21.2013  -29.6968  -42.8427 C.3       4 UNK        -0.1875 
     32 C          23.5929  -29.5012  -43.6035 C.2       4 UNK         0.4949 
     33 O          24.0477  -28.3759  -43.3825 O.2       4 UNK        -0.5039 
     34 N          24.2798  -30.6374  -43.4231 N.am      5 UNK        -0.4663 
     35 CA         25.6494  -30.7257  -42.9100 C.3       5 UNK         0.0242 
     36 CB         26.1023  -32.1950  -42.9218 C.3       5 UNK        -0.1982 
     37 C          25.7406  -30.1328  -41.4957 C.2       5 UNK         0.5017 
     38 O          25.0927  -30.6514  -40.5848 O.2       5 UNK        -0.5012 
     39 N          26.4698  -29.0143  -41.3644 N.am      6 UNK        -0.4439 
     40 CA         26.6034  -28.1822  -40.1581 C.3       6 UNK         0.0297 
     41 CB         27.4154  -28.9300  -39.0787 C.3       6 UNK        -0.2006 
     42 C          25.2601  -27.6460  -39.6100 C.2       6 UNK         0.4892 
     43 O          25.1781  -27.3254  -38.4233 O.2       6 UNK        -0.5089 
     44 N          24.2327  -27.5818  -40.4742 N.am      7 UNK        -0.4243 
     45 CA         22.8288  -27.2812  -40.1707 C.3       7 UNK         0.0196 
     46 CB         22.6587  -25.8060  -39.7504 C.3       7 UNK        -0.2007 
     47 C          22.1837  -28.2689  -39.1714 C.2       7 UNK         0.5020 
     48 O          21.2748  -27.8767  -38.4393 O.2       7 UNK        -0.5147 
     49 N          22.6742  -29.5189  -39.1244 N.am      8 UNK        -0.4734 
     50 CA         22.2424  -30.5321  -38.1577 C.3       8 UNK         0.0238 
     51 CB         23.2747  -31.6710  -38.0943 C.3       8 UNK        -0.1912 
     52 C          20.8320  -31.0706  -38.4422 C.2       8 UNK         0.5038 
     53 O          19.9589  -30.9604  -37.5798 O.2       8 UNK        -0.5046 
     54 N          20.6437  -31.6606  -39.6294 N.am      9 UNK        -0.4200 
     55 CA         19.3562  -32.1950  -40.0940 C.3       9 UNK         0.0839 
     56 C          18.3538  -31.0874  -40.5220 C.2       9 UNK         0.5513 
     57 N          17.0614  -31.3802  -40.4733 N.am      9 UNK        -0.7519 
     58 O          18.7212  -29.9761  -40.8957 O.2       9 UNK        -0.4960 
     59 C59        19.5246  -33.3341  -41.1424 C.3       10 UNK        -0.0876 
     60 S60        20.7053  -33.0104  -42.5034 S.3       10 UNK        -0.2414 
     61 C61        19.7734  -33.5048  -43.9906 C.3       10 UNK         0.0169 
     62 H62        18.8048  -26.4878  -38.3726 H         1 UNK         0.0903 
     63 H63        17.1177  -27.0094  -38.4344 H         1 UNK         0.0903 
     64 H64        18.3993  -28.0685  -39.0318 H         1 UNK         0.0903 
     65 H65        18.2652  -28.1714  -41.2692 H         1 UNK         0.3096 
     66 H66        17.2026  -25.9876  -42.8898 H         1 UNK         0.1121 
     67 H67        18.3334  -28.7562  -43.4844 H         1 UNK         0.0849 
     68 H68        17.9992  -27.6476  -44.7868 H         1 UNK         0.0849 
     69 H69        15.8832  -30.5838  -42.8929 H         1 UNK         0.0865 
     70 H70        15.0357  -30.5186  -44.4134 H         1 UNK         0.0865 
     71 H71        17.5176  -32.2644  -43.1057 H         1 UNK         0.1346 
     72 H72        20.3839  -32.1492  -46.2875 H         1 UNK         0.1412 
     73 H73        17.0073  -29.5030  -46.3305 H         1 UNK         0.1426 
     74 H74        18.7088  -30.5834  -48.5893 H         1 UNK         0.0716 
     75 H75        20.3096  -30.4020  -47.9141 H         1 UNK         0.0716 
     76 H76        20.6123  -26.8932  -48.9344 H         1 UNK         0.0695 
     77 H77        21.2687  -28.4910  -48.8302 H         1 UNK         0.0695 
     78 H78        22.4580  -26.7550  -47.4329 H         1 UNK         0.0983 
     79 H79        19.8330  -26.4029  -46.2071 H         1 UNK         0.3095 
     80 H80        20.9764  -23.9896  -43.8598 H         1 UNK         0.0454 
     81 H81        20.7827  -22.6526  -45.9560 H         1 UNK         0.0851 
     82 H82        19.3225  -22.5323  -44.9911 H         1 UNK         0.0851 
     83 H83        19.3524  -23.5595  -46.4251 H         1 UNK         0.0851 
     84 H84        18.3614  -24.9134  -44.5904 H         1 UNK         0.2976 
     85 H85        21.1488  -27.8560  -44.5471 H         1 UNK         0.3116 
     86 H86        22.0410  -30.6115  -44.5876 H         1 UNK         0.0646 
     87 H87        21.0461  -28.7161  -42.4053 H         1 UNK         0.0847 
     88 H88        20.2249  -30.0917  -43.1197 H         1 UNK         0.0847 
     89 H89        21.5972  -30.3312  -42.0510 H         1 UNK         0.0847 
     90 H90        23.8107  -31.5156  -43.5929 H         1 UNK         0.3040 
     91 H91        26.2984  -30.1603  -43.5822 H         1 UNK         0.1015 
     92 H92        27.1227  -32.2908  -42.5483 H         1 UNK         0.0786 
     93 H93        26.0874  -32.6079  -43.9307 H         1 UNK         0.0786 
     94 H94        25.4660  -32.8201  -42.2934 H         1 UNK         0.0786 
     95 H95        26.9232  -28.6473  -42.1906 H         1 UNK         0.3172 
     96 H96        27.1779  -27.3040  -40.4561 H         1 UNK         0.0595 
     97 H97        26.8674  -29.7855  -38.6820 H         1 UNK         0.0839 
     98 H98        27.6480  -28.2758  -38.2376 H         1 UNK         0.0839 
     99 H99        28.3638  -29.2931  -39.4744 H         1 UNK         0.0839 
    100 H100       24.4073  -27.8567  -41.4366 H         1 UNK         0.2998 
    101 H101       22.2935  -27.4071  -41.1095 H         1 UNK         0.0822 
    102 H102       21.6025  -25.5411  -39.6836 H         1 UNK         0.0787 
    103 H103       23.1118  -25.1326  -40.4778 H         1 UNK         0.0787 
    104 H104       23.1084  -25.6064  -38.7774 H         1 UNK         0.0787 
    105 H105       23.4515  -29.7697  -39.7279 H         1 UNK         0.3055 
    106 H106       22.2144  -30.0600  -37.1727 H         1 UNK         0.1106 
    107 H107       24.2557  -31.2976  -37.7995 H         1 UNK         0.0828 
    108 H108       22.9813  -32.4240  -37.3616 H         1 UNK         0.0828 
    109 H109       23.3884  -32.1761  -39.0541 H         1 UNK         0.0828 
    110 H110       21.4013  -31.6909  -40.2941 H         1 UNK         0.2931 
    111 H111       18.8980  -32.6708  -39.2239 H         1 UNK         0.0412 
    112 H112       16.7391  -32.2775  -40.1460 H         1 UNK         0.3472 
    113 H113       16.3933  -30.6692  -40.7217 H         1 UNK         0.3472 
    114 H114       19.8924  -34.2224  -40.6267 H         1 UNK         0.0970 
    115 H115       18.5558  -33.6324  -41.5445 H         1 UNK         0.0970 
    116 H116       19.0780  -34.3098  -43.7492 H         1 UNK         0.0612 
    117 H117       20.4809  -33.9285  -44.7047 H         1 UNK         0.0612 
@<TRIPOS>BOND
     1    1    2 1    
     2    1   62 1    
     3    1   63 1    
     4    1   64 1    
     5    2    3 2    
     6    2    4 am   BACKBONE|DICT|INTERRES
     7    4    5 1    
     8    4   65 1    
     9    5    6 1    
    10    5   25 1    
    11    5   66 1    
    12    6    7 1    
    13    6   67 1    
    14    6   68 1    
    15    7    8 1    
    16    8    9 1    
    17    8   69 1    
    18    8   70 1    
    19    9   10 ar   
    20    9   14 ar   
    21   10   11 ar   
    22   10   71 1    
    23   11   12 ar   
    24   11   61 1    
    25   12   13 ar   
    26   12   72 1    
    27   13   14 ar   
    28   13   15 1    
    29   14   73 1    
    30   15   16 1    
    31   15   74 1    
    32   15   75 1    
    33   16   17 1    
    34   17   18 1    
    35   17   76 1    
    36   17   77 1    
    37   18   19 1    
    38   18   27 1    
    39   18   78 1    
    40   19   20 am   BACKBONE|DICT|INTERRES
    41   19   79 1    
    42   20   21 2    
    43   20   22 1    
    44   22   23 1    
    45   22   24 1    
    46   22   80 1    
    47   23   81 1    
    48   23   82 1    
    49   23   83 1    
    50   24   25 am   BACKBONE|DICT|INTERRES
    51   24   84 1    
    52   25   26 2    
    53   27   28 2    
    54   27   29 am   BACKBONE|DICT|INTERRES
    55   29   30 1    
    56   29   85 1    
    57   30   31 1    
    58   30   32 1    
    59   30   86 1    
    60   31   87 1    
    61   31   88 1    
    62   31   89 1    
    63   32   33 2    
    64   32   34 am   BACKBONE|DICT|INTERRES
    65   34   35 1    
    66   34   90 1    
    67   35   36 1    
    68   35   37 1    
    69   35   91 1    
    70   36   92 1    
    71   36   93 1    
    72   36   94 1    
    73   37   38 2    
    74   37   39 am   BACKBONE|DICT|INTERRES
    75   39   40 1    
    76   39   95 1    
    77   40   41 1    
    78   40   42 1    
    79   40   96 1    
    80   41   97 1    
    81   41   98 1    
    82   41   99 1    
    83   42   43 2    
    84   42   44 am   BACKBONE|DICT|INTERRES
    85   44   45 1    
    86   44  100 1    
    87   45   46 1    
    88   45   47 1    
    89   45  101 1    
    90   46  102 1    
    91   46  103 1    
    92   46  104 1    
    93   47   48 2    
    94   47   49 am   BACKBONE|DICT|INTERRES
    95   49   50 1    
    96   49  105 1    
    97   50   51 1    
    98   50   52 1    
    99   50  106 1    
   100   51  107 1    
   101   51  108 1    
   102   51  109 1    
   103   52   53 2    
   104   52   54 am   BACKBONE|DICT|INTERRES
   105   54   55 1    
   106   54  110 1    
   107   55   56 1    
   108   55   59 1    
   109   55  111 1    
   110   56   57 am   BACKBONE|DICT|INTERRES
   111   56   58 2    
   112   57  112 1    
   113   57  113 1    
   114   59   60 1    
   115   59  114 1    
   116   59  115 1    
   117   60   61 1    
   118   61  116 1    
   119   61  117 1    
@<TRIPOS>SUBSTRUCTURE
     1 UNK         1 GROUP             0       ****    0 ROOT    
