@<TRIPOS>MOLECULE
3R8
117   119    1
SMALL
USER_CHARGES


@<TRIPOS>ATOM
      1 CA         13.4668  -25.2239  -43.9226 C.3       0 UNK        -0.2013 
      2 C          14.4996  -26.2029  -43.3824 C.2       0 UNK         0.4866 
      3 O          14.3684  -26.6607  -42.2468 O.2       0 UNK        -0.5176 
      4 N          15.5271  -26.5141  -44.1872 N.am      1 UNK        -0.4884 
      5 CA         16.6214  -27.4572  -43.8917 C.3       1 UNK         0.0853 
      6 C6         16.1455  -28.9276  -43.7286 C.3       10 UNK        -0.0849 
      7 S7         15.4621  -29.5751  -45.2927 S.3       10 UNK        -0.2776 
      8 C8         16.4656  -31.0808  -45.5549 C.3       10 UNK         0.0316 
      9 C9         17.9776  -30.8554  -45.6111 C.ar      10 UNK        -0.0863 
     10 C10        18.8276  -31.8390  -45.0965 C.ar      10 UNK        -0.1009 
     11 C11        20.2157  -31.6844  -45.1402 C.ar      10 UNK        -0.0712 
     12 C12        20.7586  -30.5185  -45.6924 C.ar      10 UNK        -0.0894 
     13 C13        19.9239  -29.5348  -46.2347 C.ar      10 UNK        -0.0745 
     14 C14        18.5371  -29.7145  -46.1985 C.ar      10 UNK        -0.0972 
     15 C15        20.5100  -28.3100  -46.9262 C.3       10 UNK         0.0209 
     16 S16        20.2184  -26.7725  -45.9949 S.3       10 UNK        -0.2568 
     17 C17        21.6663  -26.7390  -44.8880 C.3       10 UNK        -0.0983 
     18 CA         21.5897  -25.5747  -43.8681 C.3       3 UNK         0.0876 
     19 N          20.4078  -25.6850  -43.0146 N.am      3 UNK        -0.4424 
     20 C          19.8506  -24.6812  -42.3285 C.2       2 UNK         0.4918 
     21 O          20.3015  -23.5343  -42.3120 O.2       2 UNK        -0.4875 
     22 CA         18.5372  -25.0115  -41.5903 C.3       2 UNK         0.0481 
     23 CB         17.8636  -23.7654  -40.9864 C.3       2 UNK        -0.1831 
     24 N          17.5929  -25.6709  -42.4973 N.am      2 UNK        -0.4498 
     25 C          17.5482  -26.9872  -42.7472 C.2       1 UNK         0.5027 
     26 O          18.2596  -27.7998  -42.1559 O.2       1 UNK        -0.4969 
     27 C          22.8611  -25.5127  -43.0030 C.2       3 UNK         0.5005 
     28 O          22.9761  -26.2668  -42.0352 O.2       3 UNK        -0.5279 
     29 N          23.8164  -24.6520  -43.3815 N.am      4 UNK        -0.4463 
     30 CA         25.0916  -24.4687  -42.6741 C.3       4 UNK         0.0283 
     31 CB         25.8227  -23.2458  -43.2515 C.3       4 UNK        -0.1875 
     32 C          26.0082  -25.7064  -42.7103 C.2       4 UNK         0.4949 
     33 O          26.8192  -25.8865  -41.8023 O.2       4 UNK        -0.5039 
     34 N          25.8556  -26.5342  -43.7511 N.am      5 UNK        -0.4663 
     35 CA         26.6004  -27.7769  -43.9589 C.3       5 UNK         0.0242 
     36 CB         26.8610  -27.9352  -45.4679 C.3       5 UNK        -0.1982 
     37 C          25.8825  -29.0194  -43.3954 C.2       5 UNK         0.5017 
     38 O          26.3885  -30.1260  -43.5893 O.2       5 UNK        -0.5012 
     39 N          24.7180  -28.8476  -42.7494 N.am      6 UNK        -0.4439 
     40 CA         23.9090  -29.9448  -42.2141 C.3       6 UNK         0.0297 
     41 CB         22.5438  -29.4122  -41.7507 C.3       6 UNK        -0.2006 
     42 C          24.5901  -30.6739  -41.0463 C.2       6 UNK         0.4892 
     43 O          25.1303  -30.0250  -40.1482 O.2       6 UNK        -0.5089 
     44 N          24.4651  -32.0057  -41.0365 N.am      7 UNK        -0.4243 
     45 CA         24.8440  -32.8807  -39.9256 C.3       7 UNK         0.0196 
     46 CB         25.4346  -34.1839  -40.4965 C.3       7 UNK        -0.2007 
     47 C          23.6113  -33.1240  -39.0368 C.2       7 UNK         0.5020 
     48 O          23.1637  -34.2624  -38.8976 O.2       7 UNK        -0.5147 
     49 N          23.0398  -32.0257  -38.5179 N.am      8 UNK        -0.4734 
     50 CA         21.7802  -31.9280  -37.7573 C.3       8 UNK         0.0238 
     51 CB         21.8536  -32.7411  -36.4473 C.3       8 UNK        -0.1912 
     52 C          20.5072  -32.2555  -38.5712 C.2       8 UNK         0.5038 
     53 O          19.4199  -32.3073  -37.9947 O.2       8 UNK        -0.5046 
     54 N          20.6546  -32.4485  -39.8869 N.am      9 UNK        -0.4200 
     55 CA         19.5833  -32.7254  -40.8546 C.3       9 UNK         0.0839 
     56 C          18.7392  -31.4890  -41.2784 C.2       9 UNK         0.5513 
     57 N          19.1330  -30.2690  -40.9344 N.am      9 UNK        -0.7519 
     58 O          17.7021  -31.6509  -41.9150 O.2       9 UNK        -0.4960 
     59 C59        20.1325  -33.5077  -42.0789 C.3       10 UNK        -0.0876 
     60 S60        21.5512  -32.6941  -42.9011 S.3       10 UNK        -0.2414 
     61 C61        21.1269  -32.8102  -44.6660 C.3       10 UNK         0.0169 
     62 H62        13.7031  -24.8963  -44.9352 H         1 UNK         0.0903 
     63 H63        12.4815  -25.6901  -43.9390 H         1 UNK         0.0903 
     64 H64        13.4153  -24.3421  -43.2844 H         1 UNK         0.0903 
     65 H65        15.5629  -26.1002  -45.1097 H         1 UNK         0.3096 
     66 H66        17.2716  -27.4300  -44.7678 H         1 UNK         0.1121 
     67 H67        15.3935  -29.0166  -42.9436 H         1 UNK         0.0849 
     68 H68        16.9699  -29.5716  -43.4201 H         1 UNK         0.0849 
     69 H69        16.2233  -31.7851  -44.7572 H         1 UNK         0.0865 
     70 H70        16.1507  -31.5520  -46.4865 H         1 UNK         0.0865 
     71 H71        18.4043  -32.7394  -44.6746 H         1 UNK         0.1346 
     72 H72        21.8323  -30.3973  -45.7357 H         1 UNK         0.1412 
     73 H73        17.8950  -28.9627  -46.6360 H         1 UNK         0.1426 
     74 H74        20.0487  -28.2099  -47.9097 H         1 UNK         0.0716 
     75 H75        21.5788  -28.4344  -47.1073 H         1 UNK         0.0716 
     76 H76        21.7369  -27.7018  -44.3825 H         1 UNK         0.0695 
     77 H77        22.5607  -26.6481  -45.5074 H         1 UNK         0.0695 
     78 H78        21.5115  -24.6389  -44.4267 H         1 UNK         0.0983 
     79 H79        19.9925  -26.6040  -42.9390 H         1 UNK         0.3095 
     80 H80        18.7865  -25.6846  -40.7675 H         1 UNK         0.0454 
     81 H81        18.5226  -23.2735  -40.2698 H         1 UNK         0.0851 
     82 H82        17.6076  -23.0318  -41.7516 H         1 UNK         0.0851 
     83 H83        16.9493  -24.0285  -40.4544 H         1 UNK         0.0851 
     84 H84        16.9978  -25.0685  -43.0475 H         1 UNK         0.2976 
     85 H85        23.6583  -24.0649  -44.1889 H         1 UNK         0.3116 
     86 H86        24.8638  -24.2646  -41.6256 H         1 UNK         0.0646 
     87 H87        26.7627  -23.0698  -42.7264 H         1 UNK         0.0847 
     88 H88        25.2248  -22.3399  -43.1504 H         1 UNK         0.0847 
     89 H89        26.0609  -23.3773  -44.3077 H         1 UNK         0.0847 
     90 H90        25.1651  -26.2983  -44.4487 H         1 UNK         0.3040 
     91 H91        27.5669  -27.7135  -43.4537 H         1 UNK         0.1015 
     92 H92        25.9322  -28.0444  -46.0292 H         1 UNK         0.0786 
     93 H93        27.4706  -28.8166  -45.6724 H         1 UNK         0.0786 
     94 H94        27.3979  -27.0757  -45.8700 H         1 UNK         0.0786 
     95 H95        24.3839  -27.9078  -42.5729 H         1 UNK         0.3172 
     96 H96        23.7428  -30.6549  -43.0267 H         1 UNK         0.0595 
     97 H97        21.9390  -30.2109  -41.3251 H         1 UNK         0.0839 
     98 H98        22.6476  -28.6470  -40.9809 H         1 UNK         0.0839 
     99 H99        21.9720  -28.9915  -42.5748 H         1 UNK         0.0839 
    100 H100       23.9746  -32.4478  -41.8026 H         1 UNK         0.2998 
    101 H101       25.6102  -32.4050  -39.3092 H         1 UNK         0.0822 
    102 H102       25.7394  -34.8584  -39.6951 H         1 UNK         0.0787 
    103 H103       24.7145  -34.7182  -41.1180 H         1 UNK         0.0787 
    104 H104       26.3175  -33.9842  -41.1039 H         1 UNK         0.0787 
    105 H105       23.4991  -31.1423  -38.7048 H         1 UNK         0.3055 
    106 H106       21.6823  -30.8771  -37.4798 H         1 UNK         0.1106 
    107 H107       21.8679  -33.8151  -36.6339 H         1 UNK         0.0828 
    108 H108       22.7434  -32.4878  -35.8712 H         1 UNK         0.0828 
    109 H109       20.9908  -32.5376  -35.8118 H         1 UNK         0.0828 
    110 H110       21.5842  -32.3999  -40.2734 H         1 UNK         0.2931 
    111 H111       18.8763  -33.3918  -40.3564 H         1 UNK         0.0412 
    112 H112       18.6185  -29.4609  -41.2698 H         1 UNK         0.3472 
    113 H113       19.9662  -30.1368  -40.3889 H         1 UNK         0.3472 
    114 H114       20.4694  -34.4922  -41.7509 H         1 UNK         0.0970 
    115 H115       19.3368  -33.7052  -42.7976 H         1 UNK         0.0970 
    116 H116       22.0547  -32.7900  -45.2395 H         1 UNK         0.0612 
    117 H117       20.6727  -33.7806  -44.8717 H         1 UNK         0.0612 
@<TRIPOS>BOND
     1    1    2 1    
     2    1   62 1    
     3    1   63 1    
     4    1   64 1    
     5    2    3 2    
     6    2    4 am   BACKBONE|DICT|INTERRES
     7    4    5 1    
     8    4   65 1    
     9    5    6 1    
    10    5   25 1    
    11    5   66 1    
    12    6    7 1    
    13    6   67 1    
    14    6   68 1    
    15    7    8 1    
    16    8    9 1    
    17    8   69 1    
    18    8   70 1    
    19    9   10 ar   
    20    9   14 ar   
    21   10   11 ar   
    22   10   71 1    
    23   11   12 ar   
    24   11   61 1    
    25   12   13 ar   
    26   12   72 1    
    27   13   14 ar   
    28   13   15 1    
    29   14   73 1    
    30   15   16 1    
    31   15   74 1    
    32   15   75 1    
    33   16   17 1    
    34   17   18 1    
    35   17   76 1    
    36   17   77 1    
    37   18   19 1    
    38   18   27 1    
    39   18   78 1    
    40   19   20 am   BACKBONE|DICT|INTERRES
    41   19   79 1    
    42   20   21 2    
    43   20   22 1    
    44   22   23 1    
    45   22   24 1    
    46   22   80 1    
    47   23   81 1    
    48   23   82 1    
    49   23   83 1    
    50   24   25 am   BACKBONE|DICT|INTERRES
    51   24   84 1    
    52   25   26 2    
    53   27   28 2    
    54   27   29 am   BACKBONE|DICT|INTERRES
    55   29   30 1    
    56   29   85 1    
    57   30   31 1    
    58   30   32 1    
    59   30   86 1    
    60   31   87 1    
    61   31   88 1    
    62   31   89 1    
    63   32   33 2    
    64   32   34 am   BACKBONE|DICT|INTERRES
    65   34   35 1    
    66   34   90 1    
    67   35   36 1    
    68   35   37 1    
    69   35   91 1    
    70   36   92 1    
    71   36   93 1    
    72   36   94 1    
    73   37   38 2    
    74   37   39 am   BACKBONE|DICT|INTERRES
    75   39   40 1    
    76   39   95 1    
    77   40   41 1    
    78   40   42 1    
    79   40   96 1    
    80   41   97 1    
    81   41   98 1    
    82   41   99 1    
    83   42   43 2    
    84   42   44 am   BACKBONE|DICT|INTERRES
    85   44   45 1    
    86   44  100 1    
    87   45   46 1    
    88   45   47 1    
    89   45  101 1    
    90   46  102 1    
    91   46  103 1    
    92   46  104 1    
    93   47   48 2    
    94   47   49 am   BACKBONE|DICT|INTERRES
    95   49   50 1    
    96   49  105 1    
    97   50   51 1    
    98   50   52 1    
    99   50  106 1    
   100   51  107 1    
   101   51  108 1    
   102   51  109 1    
   103   52   53 2    
   104   52   54 am   BACKBONE|DICT|INTERRES
   105   54   55 1    
   106   54  110 1    
   107   55   56 1    
   108   55   59 1    
   109   55  111 1    
   110   56   57 am   BACKBONE|DICT|INTERRES
   111   56   58 2    
   112   57  112 1    
   113   57  113 1    
   114   59   60 1    
   115   59  114 1    
   116   59  115 1    
   117   60   61 1    
   118   61  116 1    
   119   61  117 1    
@<TRIPOS>SUBSTRUCTURE
     1 UNK         1 GROUP             0       ****    0 ROOT    
