@<TRIPOS>MOLECULE
3R8
117   119    1
SMALL
USER_CHARGES


@<TRIPOS>ATOM
      1 CA         15.2205  -28.7453  -38.6612 C.3       0 UNK        -0.2013 
      2 C          15.5392  -27.8077  -39.8162 C.2       0 UNK         0.4866 
      3 O          14.9808  -26.7123  -39.8907 O.2       0 UNK        -0.5176 
      4 N          16.4263  -28.2366  -40.7200 N.am      1 UNK        -0.4884 
      5 CA         16.9116  -27.4620  -41.8685 C.3       1 UNK         0.0853 
      6 C6         17.4869  -28.4048  -42.9590 C.3       10 UNK        -0.0849 
      7 S7         16.1893  -29.4766  -43.6648 S.3       10 UNK        -0.2776 
      8 C8         16.6522  -29.5101  -45.4282 C.3       10 UNK         0.0316 
      9 C9         17.9873  -30.2087  -45.6450 C.ar      10 UNK        -0.0863 
     10 C10        18.1306  -31.5539  -45.2991 C.ar      10 UNK        -0.1009 
     11 C11        19.3590  -32.2002  -45.4498 C.ar      10 UNK        -0.0712 
     12 C12        20.4448  -31.5020  -45.9868 C.ar      10 UNK        -0.0894 
     13 C13        20.3137  -30.1554  -46.3416 C.ar      10 UNK        -0.0745 
     14 C14        19.0808  -29.5148  -46.1718 C.ar      10 UNK        -0.0972 
     15 C15        21.5095  -29.3799  -46.8805 C.3       10 UNK         0.0209 
     16 S16        22.8396  -29.1766  -45.6466 S.3       10 UNK        -0.2568 
     17 C17        21.9667  -28.3841  -44.2528 C.3       10 UNK        -0.0983 
     18 CA         22.0193  -26.8389  -44.2768 C.3       3 UNK         0.0876 
     19 N          21.0295  -26.2865  -43.3551 N.am      3 UNK        -0.4424 
     20 C          20.5676  -25.0312  -43.3845 C.2       2 UNK         0.4918 
     21 O          20.8883  -24.2037  -44.2392 O.2       2 UNK        -0.4875 
     22 CA         19.5294  -24.6762  -42.3093 C.3       2 UNK         0.0481 
     23 CB         19.0044  -23.2329  -42.4254 C.3       2 UNK        -0.1831 
     24 N          18.4138  -25.6134  -42.4308 N.am      2 UNK        -0.4498 
     25 C          17.9398  -26.3849  -41.4457 C.2       1 UNK         0.5027 
     26 O          18.2953  -26.2744  -40.2696 O.2       1 UNK        -0.4969 
     27 C          23.4210  -26.3144  -43.9144 C.2       3 UNK         0.5005 
     28 O          23.7570  -26.2438  -42.7302 O.2       3 UNK        -0.5279 
     29 N          24.2304  -25.9957  -44.9330 N.am      4 UNK        -0.4463 
     30 CA         25.6160  -25.5469  -44.7654 C.3       4 UNK         0.0283 
     31 CB         26.1449  -25.0041  -46.1027 C.3       4 UNK        -0.1875 
     32 C          26.5460  -26.6487  -44.2267 C.2       4 UNK         0.4949 
     33 O          27.4832  -26.3383  -43.4912 O.2       4 UNK        -0.5039 
     34 N          26.2728  -27.9046  -44.6051 N.am      5 UNK        -0.4663 
     35 CA         27.0477  -29.0753  -44.1960 C.3       5 UNK         0.0242 
     36 CB         27.1796  -30.0397  -45.3878 C.3       5 UNK        -0.1982 
     37 C          26.4171  -29.7862  -42.9906 C.2       5 UNK         0.5017 
     38 O          27.1149  -30.0480  -42.0107 O.2       5 UNK        -0.5012 
     39 N          25.1225  -30.1155  -43.0969 N.am      6 UNK        -0.4439 
     40 CA         24.4255  -31.0140  -42.1706 C.3       6 UNK         0.0297 
     41 CB         23.4321  -31.8668  -42.9748 C.3       6 UNK        -0.2006 
     42 C          23.7043  -30.3083  -41.0090 C.2       6 UNK         0.4892 
     43 O          23.1275  -31.0044  -40.1703 O.2       6 UNK        -0.5089 
     44 N          23.7133  -28.9658  -40.9808 N.am      7 UNK        -0.4243 
     45 CA         22.9762  -28.1086  -40.0443 C.3       7 UNK         0.0196 
     46 CB         23.5707  -28.2099  -38.6200 C.3       7 UNK        -0.2007 
     47 C          21.4622  -28.3841  -40.1263 C.2       7 UNK         0.5020 
     48 O          20.8554  -28.0949  -41.1586 O.2       7 UNK        -0.5147 
     49 N          20.8873  -28.9587  -39.0624 N.am      8 UNK        -0.4734 
     50 CA         19.4834  -29.3682  -38.9998 C.3       8 UNK         0.0238 
     51 CB         19.0959  -29.6309  -37.5358 C.3       8 UNK        -0.1912 
     52 C          19.1503  -30.5920  -39.8716 C.2       8 UNK         0.5038 
     53 O          17.9860  -30.7484  -40.2418 O.2       8 UNK        -0.5046 
     54 N          20.1559  -31.4318  -40.1605 N.am      9 UNK        -0.4200 
     55 CA         20.0389  -32.7210  -40.8629 C.3       9 UNK         0.0839 
     56 C          19.2139  -33.8036  -40.0982 C.2       9 UNK         0.5513 
     57 N          19.0743  -33.7079  -38.7808 N.am      9 UNK        -0.7519 
     58 O          18.7109  -34.7550  -40.6902 O.2       9 UNK        -0.4960 
     59 C59        19.6295  -32.5551  -42.3557 C.3       10 UNK        -0.0876 
     60 S60        20.4731  -33.7596  -43.4440 S.3       10 UNK        -0.2414 
     61 C61        19.5137  -33.6402  -44.9871 C.3       10 UNK         0.0169 
     62 H62        15.7157  -29.7102  -38.7727 H         1 UNK         0.0903 
     63 H63        15.5447  -28.3034  -37.7195 H         1 UNK         0.0903 
     64 H64        14.1466  -28.9217  -38.6048 H         1 UNK         0.0903 
     65 H65        16.8486  -29.1541  -40.6091 H         1 UNK         0.3096 
     66 H66        16.0622  -26.9230  -42.2950 H         1 UNK         0.1121 
     67 H67        17.9400  -27.8410  -43.7754 H         1 UNK         0.0849 
     68 H68        18.2825  -29.0332  -42.5530 H         1 UNK         0.0849 
     69 H69        15.8796  -30.0402  -45.9868 H         1 UNK         0.0865 
     70 H70        16.6690  -28.4920  -45.8204 H         1 UNK         0.0865 
     71 H71        17.2895  -32.0871  -44.8769 H         1 UNK         0.1346 
     72 H72        21.4012  -31.9955  -46.0938 H         1 UNK         0.1412 
     73 H73        18.9780  -28.4707  -46.4345 H         1 UNK         0.1426 
     74 H74        21.2045  -28.3936  -47.2333 H         1 UNK         0.0716 
     75 H75        21.9122  -29.9033  -47.7487 H         1 UNK         0.0716 
     76 H76        22.3886  -28.7689  -43.3261 H         1 UNK         0.0695 
     77 H77        20.9303  -28.7191  -44.2374 H         1 UNK         0.0695 
     78 H78        21.7603  -26.4978  -45.2817 H         1 UNK         0.0983 
     79 H79        20.7808  -26.8874  -42.5709 H         1 UNK         0.3095 
     80 H80        20.0275  -24.7843  -41.3435 H         1 UNK         0.0454 
     81 H81        18.2887  -23.0092  -41.6344 H         1 UNK         0.0851 
     82 H82        18.5118  -23.0563  -43.3823 H         1 UNK         0.0851 
     83 H83        19.8189  -22.5129  -42.3381 H         1 UNK         0.0851 
     84 H84        18.0726  -25.7575  -43.3712 H         1 UNK         0.2976 
     85 H85        23.8899  -26.0853  -45.8801 H         1 UNK         0.3116 
     86 H86        25.6202  -24.7289  -44.0415 H         1 UNK         0.0646 
     87 H87        26.1506  -25.7705  -46.8787 H         1 UNK         0.0847 
     88 H88        27.1683  -24.6410  -45.9976 H         1 UNK         0.0847 
     89 H89        25.5428  -24.1680  -46.4589 H         1 UNK         0.0847 
     90 H90        25.4816  -28.0595  -45.2133 H         1 UNK         0.3040 
     91 H91        28.0566  -28.7710  -43.9066 H         1 UNK         0.1015 
     92 H92        26.2090  -30.3713  -45.7590 H         1 UNK         0.0786 
     93 H93        27.7438  -30.9307  -45.1083 H         1 UNK         0.0786 
     94 H94        27.7098  -29.5702  -46.2166 H         1 UNK         0.0786 
     95 H95        24.6188  -29.8523  -43.9326 H         1 UNK         0.3172 
     96 H96        25.1507  -31.6966  -41.7223 H         1 UNK         0.0595 
     97 H97        22.6054  -31.2743  -43.3685 H         1 UNK         0.0839 
     98 H98        23.0010  -32.6454  -42.3454 H         1 UNK         0.0839 
     99 H99        23.9164  -32.3679  -43.8129 H         1 UNK         0.0839 
    100 H100       24.1926  -28.4768  -41.7247 H         1 UNK         0.2998 
    101 H101       23.1124  -27.0800  -40.3784 H         1 UNK         0.0822 
    102 H102       24.6200  -27.9146  -38.6183 H         1 UNK         0.0787 
    103 H103       23.0528  -27.5431  -37.9292 H         1 UNK         0.0787 
    104 H104       23.5174  -29.2198  -38.2123 H         1 UNK         0.0787 
    105 H105       21.4681  -29.1791  -38.2662 H         1 UNK         0.3055 
    106 H106       18.8756  -28.5414  -39.3638 H         1 UNK         0.1106 
    107 H107       18.0483  -29.9248  -37.4548 H         1 UNK         0.0828 
    108 H108       19.6933  -30.4294  -37.0944 H         1 UNK         0.0828 
    109 H109       19.2255  -28.7367  -36.9258 H         1 UNK         0.0828 
    110 H110       21.0932  -31.1931  -39.8537 H         1 UNK         0.2931 
    111 H111       21.0600  -33.1032  -40.8447 H         1 UNK         0.0412 
    112 H112       18.5469  -34.4121  -38.2886 H         1 UNK         0.3472 
    113 H113       19.4940  -32.9452  -38.2748 H         1 UNK         0.3472 
    114 H114       19.9049  -31.5608  -42.7122 H         1 UNK         0.0970 
    115 H115       18.5471  -32.6246  -42.4791 H         1 UNK         0.0970 
    116 H116       18.5386  -34.1051  -44.8332 H         1 UNK         0.0612 
    117 H117       20.0136  -34.2217  -45.7628 H         1 UNK         0.0612 
@<TRIPOS>BOND
     1    1    2 1    
     2    1   62 1    
     3    1   63 1    
     4    1   64 1    
     5    2    3 2    
     6    2    4 am   BACKBONE|DICT|INTERRES
     7    4    5 1    
     8    4   65 1    
     9    5    6 1    
    10    5   25 1    
    11    5   66 1    
    12    6    7 1    
    13    6   67 1    
    14    6   68 1    
    15    7    8 1    
    16    8    9 1    
    17    8   69 1    
    18    8   70 1    
    19    9   10 ar   
    20    9   14 ar   
    21   10   11 ar   
    22   10   71 1    
    23   11   12 ar   
    24   11   61 1    
    25   12   13 ar   
    26   12   72 1    
    27   13   14 ar   
    28   13   15 1    
    29   14   73 1    
    30   15   16 1    
    31   15   74 1    
    32   15   75 1    
    33   16   17 1    
    34   17   18 1    
    35   17   76 1    
    36   17   77 1    
    37   18   19 1    
    38   18   27 1    
    39   18   78 1    
    40   19   20 am   BACKBONE|DICT|INTERRES
    41   19   79 1    
    42   20   21 2    
    43   20   22 1    
    44   22   23 1    
    45   22   24 1    
    46   22   80 1    
    47   23   81 1    
    48   23   82 1    
    49   23   83 1    
    50   24   25 am   BACKBONE|DICT|INTERRES
    51   24   84 1    
    52   25   26 2    
    53   27   28 2    
    54   27   29 am   BACKBONE|DICT|INTERRES
    55   29   30 1    
    56   29   85 1    
    57   30   31 1    
    58   30   32 1    
    59   30   86 1    
    60   31   87 1    
    61   31   88 1    
    62   31   89 1    
    63   32   33 2    
    64   32   34 am   BACKBONE|DICT|INTERRES
    65   34   35 1    
    66   34   90 1    
    67   35   36 1    
    68   35   37 1    
    69   35   91 1    
    70   36   92 1    
    71   36   93 1    
    72   36   94 1    
    73   37   38 2    
    74   37   39 am   BACKBONE|DICT|INTERRES
    75   39   40 1    
    76   39   95 1    
    77   40   41 1    
    78   40   42 1    
    79   40   96 1    
    80   41   97 1    
    81   41   98 1    
    82   41   99 1    
    83   42   43 2    
    84   42   44 am   BACKBONE|DICT|INTERRES
    85   44   45 1    
    86   44  100 1    
    87   45   46 1    
    88   45   47 1    
    89   45  101 1    
    90   46  102 1    
    91   46  103 1    
    92   46  104 1    
    93   47   48 2    
    94   47   49 am   BACKBONE|DICT|INTERRES
    95   49   50 1    
    96   49  105 1    
    97   50   51 1    
    98   50   52 1    
    99   50  106 1    
   100   51  107 1    
   101   51  108 1    
   102   51  109 1    
   103   52   53 2    
   104   52   54 am   BACKBONE|DICT|INTERRES
   105   54   55 1    
   106   54  110 1    
   107   55   56 1    
   108   55   59 1    
   109   55  111 1    
   110   56   57 am   BACKBONE|DICT|INTERRES
   111   56   58 2    
   112   57  112 1    
   113   57  113 1    
   114   59   60 1    
   115   59  114 1    
   116   59  115 1    
   117   60   61 1    
   118   61  116 1    
   119   61  117 1    
@<TRIPOS>SUBSTRUCTURE
     1 UNK         1 GROUP             0       ****    0 ROOT    
