@<TRIPOS>MOLECULE
3R8
117   119    1
SMALL
USER_CHARGES


@<TRIPOS>ATOM
      1 CA         13.7222  -23.1388  -44.3265 C.3       0 UNK        -0.2013 
      2 C          14.5919  -24.0715  -45.1560 C.2       0 UNK         0.4866 
      3 O          15.3370  -23.6069  -46.0187 O.2       0 UNK        -0.5176 
      4 N          14.5006  -25.3846  -44.9039 N.am      1 UNK        -0.4884 
      5 CA         15.2802  -26.4248  -45.5900 C.3       1 UNK         0.0853 
      6 C6         14.6724  -27.8302  -45.3373 C.3       10 UNK        -0.0849 
      7 S7         15.0937  -29.0376  -46.6396 S.3       10 UNK        -0.2776 
      8 C8         15.8637  -30.3921  -45.6888 C.3       10 UNK         0.0316 
      9 C9         17.2996  -30.0916  -45.2735 C.ar      10 UNK        -0.0863 
     10 C10        17.6419  -29.9792  -43.9214 C.ar      10 UNK        -0.1009 
     11 C11        18.9698  -29.7546  -43.5425 C.ar      10 UNK        -0.0712 
     12 C12        19.9579  -29.6415  -44.5239 C.ar      10 UNK        -0.0894 
     13 C13        19.6270  -29.7321  -45.8782 C.ar      10 UNK        -0.0745 
     14 C14        18.2980  -29.9659  -46.2453 C.ar      10 UNK        -0.0972 
     15 C15        20.7012  -29.5931  -46.9475 C.3       10 UNK         0.0209 
     16 S16        20.9579  -27.8553  -47.4376 S.3       10 UNK        -0.2568 
     17 C17        22.1230  -27.2589  -46.1657 C.3       10 UNK        -0.0983 
     18 CA         21.5751  -26.0755  -45.3255 C.3       3 UNK         0.0876 
     19 N          20.3130  -26.3931  -44.6521 N.am      3 UNK        -0.4424 
     20 C          19.5308  -25.5101  -44.0172 C.2       2 UNK         0.4918 
     21 O          19.7267  -24.2937  -43.9991 O.2       2 UNK        -0.4875 
     22 CA         18.3369  -26.1017  -43.2476 C.3       2 UNK         0.0481 
     23 CB         18.1949  -25.4571  -41.8581 C.3       2 UNK        -0.1831 
     24 N          17.0493  -26.0329  -43.9413 N.am      2 UNK        -0.4498 
     25 C          16.7749  -26.3891  -45.2069 C.2       1 UNK         0.5027 
     26 O          17.6177  -26.6928  -46.0493 O.2       1 UNK        -0.4969 
     27 C          22.6363  -25.6154  -44.3060 C.2       3 UNK         0.5005 
     28 O          23.2310  -24.5498  -44.4750 O.2       3 UNK        -0.5279 
     29 N          22.8287  -26.4315  -43.2618 N.am      4 UNK        -0.4463 
     30 CA         23.7547  -26.2621  -42.1470 C.3       4 UNK         0.0283 
     31 CB         25.2188  -26.2602  -42.6374 C.3       4 UNK        -0.1875 
     32 C          23.5335  -27.4377  -41.1885 C.2       4 UNK         0.4949 
     33 O          22.9999  -28.4709  -41.6021 O.2       4 UNK        -0.5039 
     34 N          24.0072  -27.2951  -39.9435 N.am      5 UNK        -0.4663 
     35 CA         24.0356  -28.3728  -38.9437 C.3       5 UNK         0.0242 
     36 CB         24.4389  -27.7961  -37.5781 C.3       5 UNK        -0.1982 
     37 C          24.9690  -29.5345  -39.3353 C.2       5 UNK         0.5017 
     38 O          24.7142  -30.6760  -38.9480 O.2       5 UNK        -0.5012 
     39 N          25.9972  -29.2209  -40.1391 N.am      6 UNK        -0.4439 
     40 CA         26.9740  -30.1438  -40.7254 C.3       6 UNK         0.0297 
     41 CB         28.0640  -29.3258  -41.4375 C.3       6 UNK        -0.2006 
     42 C          26.3773  -31.1912  -41.6865 C.2       6 UNK         0.4892 
     43 O          27.0478  -32.1821  -41.9750 O.2       6 UNK        -0.5089 
     44 N          25.1269  -30.9927  -42.1302 N.am      7 UNK        -0.4243 
     45 CA         24.3352  -31.9551  -42.9052 C.3       7 UNK         0.0196 
     46 CB         23.2396  -31.1823  -43.6606 C.3       7 UNK        -0.2007 
     47 C          23.7260  -33.0848  -42.0413 C.2       7 UNK         0.5020 
     48 O          22.8292  -33.7821  -42.5147 O.2       7 UNK        -0.5147 
     49 N          24.1961  -33.2256  -40.7915 N.am      8 UNK        -0.4734 
     50 CA         23.7126  -34.1038  -39.7163 C.3       8 UNK         0.0238 
     51 CB         23.6772  -35.5875  -40.1422 C.3       8 UNK        -0.1912 
     52 C          22.3882  -33.6242  -39.0924 C.2       8 UNK         0.5038 
     53 O          21.7437  -34.3890  -38.3724 O.2       8 UNK        -0.5046 
     54 N          22.0249  -32.3626  -39.3516 N.am      9 UNK        -0.4200 
     55 CA         20.8731  -31.6736  -38.7564 C.3       9 UNK         0.0839 
     56 C          21.1564  -31.1213  -37.3307 C.2       9 UNK         0.5513 
     57 N          22.4079  -30.9907  -36.9037 N.am      9 UNK        -0.7519 
     58 O          20.2209  -30.8112  -36.5981 O.2       9 UNK        -0.4960 
     59 C59        20.3358  -30.5529  -39.6813 C.3       10 UNK        -0.0876 
     60 S60        19.8435  -31.1629  -41.3271 S.3       10 UNK        -0.2414 
     61 C61        19.3368  -29.5908  -42.0762 C.3       10 UNK         0.0169 
     62 H62        13.0573  -22.5698  -44.9758 H         1 UNK         0.0903 
     63 H63        13.1095  -23.6822  -43.6073 H         1 UNK         0.0903 
     64 H64        14.3460  -22.4346  -43.7766 H         1 UNK         0.0903 
     65 H65        13.8572  -25.7077  -44.1944 H         1 UNK         0.3096 
     66 H66        15.2207  -26.2125  -46.6604 H         1 UNK         0.1121 
     67 H67        13.5830  -27.7660  -45.3274 H         1 UNK         0.0849 
     68 H68        14.9515  -28.2133  -44.3535 H         1 UNK         0.0849 
     69 H69        15.2439  -30.6276  -44.8222 H         1 UNK         0.0865 
     70 H70        15.8644  -31.2907  -46.3074 H         1 UNK         0.0865 
     71 H71        16.8781  -30.0721  -43.1614 H         1 UNK         0.1346 
     72 H72        20.9838  -29.4736  -44.2307 H         1 UNK         0.1412 
     73 H73        18.0358  -30.0440  -47.2917 H         1 UNK         0.1426 
     74 H74        21.6400  -30.0339  -46.6085 H         1 UNK         0.0716 
     75 H75        20.4103  -30.1601  -47.8332 H         1 UNK         0.0716 
     76 H76        22.4171  -28.0902  -45.5235 H         1 UNK         0.0695 
     77 H77        23.0335  -26.9534  -46.6851 H         1 UNK         0.0695 
     78 H78        21.3834  -25.2391  -46.0014 H         1 UNK         0.0983 
     79 H79        19.9979  -27.3508  -44.7237 H         1 UNK         0.3095 
     80 H80        18.5402  -27.1566  -43.0855 H         1 UNK         0.0454 
     81 H81        19.1388  -25.4932  -41.3123 H         1 UNK         0.0851 
     82 H82        17.8995  -24.4094  -41.9277 H         1 UNK         0.0851 
     83 H83        17.4534  -25.9763  -41.2509 H         1 UNK         0.0851 
     84 H84        16.2630  -25.7550  -43.3732 H         1 UNK         0.2976 
     85 H85        22.2930  -27.2884  -43.1933 H         1 UNK         0.3116 
     86 H86        23.5242  -25.3275  -41.6322 H         1 UNK         0.0646 
     87 H87        25.4620  -27.1748  -43.1800 H         1 UNK         0.0847 
     88 H88        25.4249  -25.4181  -43.2972 H         1 UNK         0.0847 
     89 H89        25.9166  -26.1789  -41.8035 H         1 UNK         0.0847 
     90 H90        24.4181  -26.4120  -39.6734 H         1 UNK         0.3040 
     91 H91        23.0272  -28.7804  -38.8566 H         1 UNK         0.1015 
     92 H92        25.4357  -27.3538  -37.6022 H         1 UNK         0.0786 
     93 H93        24.4461  -28.5744  -36.8134 H         1 UNK         0.0786 
     94 H94        23.7376  -27.0293  -37.2488 H         1 UNK         0.0786 
     95 H95        26.1044  -28.2477  -40.3829 H         1 UNK         0.3172 
     96 H96        27.4385  -30.6921  -39.9033 H         1 UNK         0.0595 
     97 H97        28.8325  -29.9780  -41.8553 H         1 UNK         0.0839 
     98 H98        28.5639  -28.6432  -40.7499 H         1 UNK         0.0839 
     99 H99        27.6556  -28.7374  -42.2603 H         1 UNK         0.0839 
    100 H100       24.6414  -30.1536  -41.8392 H         1 UNK         0.2998 
    101 H101       24.9866  -32.4299  -43.6419 H         1 UNK         0.0822 
    102 H102       22.6910  -31.8355  -44.3405 H         1 UNK         0.0787 
    103 H103       22.5147  -30.7521  -42.9690 H         1 UNK         0.0787 
    104 H104       23.6585  -30.3725  -44.2581 H         1 UNK         0.0787 
    105 H105       24.9224  -32.5808  -40.5081 H         1 UNK         0.3055 
    106 H106       24.4513  -34.0177  -38.9176 H         1 UNK         0.1106 
    107 H107       24.6188  -35.8940  -40.5974 H         1 UNK         0.0828 
    108 H108       23.5094  -36.2351  -39.2808 H         1 UNK         0.0828 
    109 H109       22.8762  -35.7891  -40.8537 H         1 UNK         0.0828 
    110 H110       22.6291  -31.8053  -39.9362 H         1 UNK         0.2931 
    111 H111       20.0708  -32.4055  -38.6426 H         1 UNK         0.0412 
    112 H112       22.5755  -30.6439  -35.9727 H         1 UNK         0.3472 
    113 H113       23.1871  -31.2053  -37.5120 H         1 UNK         0.3472 
    114 H114       19.4675  -30.0701  -39.2282 H         1 UNK         0.0970 
    115 H115       21.0875  -29.7730  -39.8136 H         1 UNK         0.0970 
    116 H116       18.4913  -29.1837  -41.5193 H         1 UNK         0.0612 
    117 H117       20.1487  -28.8681  -41.9774 H         1 UNK         0.0612 
@<TRIPOS>BOND
     1    1    2 1    
     2    1   62 1    
     3    1   63 1    
     4    1   64 1    
     5    2    3 2    
     6    2    4 am   BACKBONE|DICT|INTERRES
     7    4    5 1    
     8    4   65 1    
     9    5    6 1    
    10    5   25 1    
    11    5   66 1    
    12    6    7 1    
    13    6   67 1    
    14    6   68 1    
    15    7    8 1    
    16    8    9 1    
    17    8   69 1    
    18    8   70 1    
    19    9   10 ar   
    20    9   14 ar   
    21   10   11 ar   
    22   10   71 1    
    23   11   12 ar   
    24   11   61 1    
    25   12   13 ar   
    26   12   72 1    
    27   13   14 ar   
    28   13   15 1    
    29   14   73 1    
    30   15   16 1    
    31   15   74 1    
    32   15   75 1    
    33   16   17 1    
    34   17   18 1    
    35   17   76 1    
    36   17   77 1    
    37   18   19 1    
    38   18   27 1    
    39   18   78 1    
    40   19   20 am   BACKBONE|DICT|INTERRES
    41   19   79 1    
    42   20   21 2    
    43   20   22 1    
    44   22   23 1    
    45   22   24 1    
    46   22   80 1    
    47   23   81 1    
    48   23   82 1    
    49   23   83 1    
    50   24   25 am   BACKBONE|DICT|INTERRES
    51   24   84 1    
    52   25   26 2    
    53   27   28 2    
    54   27   29 am   BACKBONE|DICT|INTERRES
    55   29   30 1    
    56   29   85 1    
    57   30   31 1    
    58   30   32 1    
    59   30   86 1    
    60   31   87 1    
    61   31   88 1    
    62   31   89 1    
    63   32   33 2    
    64   32   34 am   BACKBONE|DICT|INTERRES
    65   34   35 1    
    66   34   90 1    
    67   35   36 1    
    68   35   37 1    
    69   35   91 1    
    70   36   92 1    
    71   36   93 1    
    72   36   94 1    
    73   37   38 2    
    74   37   39 am   BACKBONE|DICT|INTERRES
    75   39   40 1    
    76   39   95 1    
    77   40   41 1    
    78   40   42 1    
    79   40   96 1    
    80   41   97 1    
    81   41   98 1    
    82   41   99 1    
    83   42   43 2    
    84   42   44 am   BACKBONE|DICT|INTERRES
    85   44   45 1    
    86   44  100 1    
    87   45   46 1    
    88   45   47 1    
    89   45  101 1    
    90   46  102 1    
    91   46  103 1    
    92   46  104 1    
    93   47   48 2    
    94   47   49 am   BACKBONE|DICT|INTERRES
    95   49   50 1    
    96   49  105 1    
    97   50   51 1    
    98   50   52 1    
    99   50  106 1    
   100   51  107 1    
   101   51  108 1    
   102   51  109 1    
   103   52   53 2    
   104   52   54 am   BACKBONE|DICT|INTERRES
   105   54   55 1    
   106   54  110 1    
   107   55   56 1    
   108   55   59 1    
   109   55  111 1    
   110   56   57 am   BACKBONE|DICT|INTERRES
   111   56   58 2    
   112   57  112 1    
   113   57  113 1    
   114   59   60 1    
   115   59  114 1    
   116   59  115 1    
   117   60   61 1    
   118   61  116 1    
   119   61  117 1    
@<TRIPOS>SUBSTRUCTURE
     1 UNK         1 GROUP             0       ****    0 ROOT    
