@<TRIPOS>MOLECULE
3R8
117   119    1
SMALL
USER_CHARGES


@<TRIPOS>ATOM
      1 CA         18.7876  -28.5197  -47.7096 C.3       0 UNK        -0.2013 
      2 C          17.9052  -27.2959  -47.9338 C.2       0 UNK         0.4866 
      3 O          17.8115  -26.8202  -49.0636 O.2       0 UNK        -0.5176 
      4 N          17.2308  -26.7556  -46.9106 N.am      1 UNK        -0.4884 
      5 CA         17.2909  -27.1385  -45.4951 C.3       1 UNK         0.0853 
      6 C6         15.9715  -26.7849  -44.7635 C.3       10 UNK        -0.0849 
      7 S7         14.5688  -27.7369  -45.4509 S.3       10 UNK        -0.2776 
      8 C8         14.1161  -28.8678  -44.0915 C.3       10 UNK         0.0316 
      9 C9         15.3150  -29.5634  -43.4579 C.ar      10 UNK        -0.0863 
     10 C10        16.1881  -30.3370  -44.2308 C.ar      10 UNK        -0.1009 
     11 C11        17.3098  -30.9303  -43.6450 C.ar      10 UNK        -0.0712 
     12 C12        17.5235  -30.7977  -42.2722 C.ar      10 UNK        -0.0894 
     13 C13        16.6639  -30.0219  -41.4914 C.ar      10 UNK        -0.0745 
     14 C14        15.5610  -29.4083  -42.0901 C.ar      10 UNK        -0.0972 
     15 C15        16.9295  -29.8265  -40.0071 C.3       10 UNK         0.0209 
     16 S16        18.0349  -28.4092  -39.7120 S.3       10 UNK        -0.2568 
     17 C17        19.6738  -29.1954  -39.8818 C.3       10 UNK        -0.0983 
     18 CA         20.7701  -28.2776  -40.4722 C.3       3 UNK         0.0876 
     19 N          20.4239  -27.7516  -41.8067 N.am      3 UNK        -0.4424 
     20 C          21.2900  -27.1430  -42.6320 C.2       2 UNK         0.4918 
     21 O          22.4498  -26.8856  -42.3087 O.2       2 UNK        -0.4875 
     22 CA         20.8186  -26.7194  -44.0309 C.3       2 UNK         0.0481 
     23 CB         21.8191  -27.1781  -45.1089 C.3       2 UNK        -0.1831 
     24 N          19.4844  -27.2124  -44.3880 N.am      2 UNK        -0.4498 
     25 C          18.5001  -26.4322  -44.8572 C.2       1 UNK         0.5027 
     26 O          18.5348  -25.1994  -44.8529 O.2       1 UNK        -0.4969 
     27 C          21.2542  -27.2273  -39.4431 C.2       3 UNK         0.5005 
     28 O          21.8011  -27.6060  -38.4059 O.2       3 UNK        -0.5279 
     29 N          21.0811  -25.9339  -39.7482 N.am      4 UNK        -0.4463 
     30 CA         21.6539  -24.8142  -38.9997 C.3       4 UNK         0.0283 
     31 CB         20.9771  -23.5113  -39.4559 C.3       4 UNK        -0.1875 
     32 C          23.1867  -24.6977  -39.1372 C.2       4 UNK         0.4949 
     33 O          23.8026  -24.0426  -38.2956 O.2       4 UNK        -0.5039 
     34 N          23.7732  -25.3040  -40.1807 N.am      5 UNK        -0.4663 
     35 CA         25.2096  -25.2564  -40.4690 C.3       5 UNK         0.0242 
     36 CB         25.4677  -24.2642  -41.6160 C.3       5 UNK        -0.1982 
     37 C          25.7896  -26.6381  -40.8055 C.2       5 UNK         0.5017 
     38 O          26.8723  -26.9661  -40.3180 O.2       5 UNK        -0.5012 
     39 N          25.0853  -27.4159  -41.6368 N.am      6 UNK        -0.4439 
     40 CA         25.4845  -28.7561  -42.0649 C.3       6 UNK         0.0297 
     41 CB         24.8552  -29.0449  -43.4385 C.3       6 UNK        -0.2006 
     42 C          25.0383  -29.8162  -41.0493 C.2       6 UNK         0.4892 
     43 O          24.0570  -29.6129  -40.3315 O.2       6 UNK        -0.5089 
     44 N          25.7304  -30.9612  -41.0510 N.am      7 UNK        -0.4243 
     45 CA         25.3869  -32.1440  -40.2609 C.3       7 UNK         0.0196 
     46 CB         26.6299  -33.0450  -40.1415 C.3       7 UNK        -0.2007 
     47 C          24.1921  -32.8795  -40.8932 C.2       7 UNK         0.5020 
     48 O          24.3905  -33.8296  -41.6518 O.2       7 UNK        -0.5147 
     49 N          22.9774  -32.3827  -40.6154 N.am      8 UNK        -0.4734 
     50 CA         21.6797  -32.8796  -41.1027 C.3       8 UNK         0.0238 
     51 CB         21.3401  -34.2327  -40.4428 C.3       8 UNK        -0.1912 
     52 C          21.5884  -32.9265  -42.6426 C.2       8 UNK         0.5038 
     53 O          21.0645  -33.8907  -43.2028 O.2       8 UNK        -0.5046 
     54 N          22.1305  -31.8841  -43.2861 N.am      9 UNK        -0.4200 
     55 CA         22.2857  -31.7326  -44.7444 C.3       9 UNK         0.0839 
     56 C          23.3578  -32.6668  -45.3844 C.2       9 UNK         0.5513 
     57 N          24.1620  -33.3969  -44.6200 N.am      9 UNK        -0.7519 
     58 O          23.4907  -32.7047  -46.6048 O.2       9 UNK        -0.4960 
     59 C59        20.9430  -31.7527  -45.5342 C.3       10 UNK        -0.0876 
     60 S60        19.7181  -30.5660  -44.8880 S.3       10 UNK        -0.2414 
     61 C61        18.3298  -31.6720  -44.4883 C.3       10 UNK         0.0169 
     62 H62        19.2184  -28.8566  -48.6523 H         1 UNK         0.0903 
     63 H63        19.6120  -28.2916  -47.0365 H         1 UNK         0.0903 
     64 H64        18.2096  -29.3480  -47.3010 H         1 UNK         0.0903 
     65 H65        16.6640  -25.9407  -47.0967 H         1 UNK         0.3096 
     66 H66        17.4370  -28.2154  -45.4141 H         1 UNK         0.1121 
     67 H67        15.7458  -25.7215  -44.8648 H         1 UNK         0.0849 
     68 H68        16.0573  -26.9683  -43.6912 H         1 UNK         0.0849 
     69 H69        13.5588  -28.3005  -43.3443 H         1 UNK         0.0865 
     70 H70        13.4284  -29.6232  -44.4739 H         1 UNK         0.0865 
     71 H71        16.0151  -30.4413  -45.2934 H         1 UNK         0.1346 
     72 H72        18.3791  -31.2815  -41.8257 H         1 UNK         0.1412 
     73 H73        14.8989  -28.8007  -41.4878 H         1 UNK         0.1426 
     74 H74        15.9891  -29.6501  -39.4828 H         1 UNK         0.0716 
     75 H75        17.3532  -30.7318  -39.5694 H         1 UNK         0.0716 
     76 H76        19.9722  -29.5790  -38.9040 H         1 UNK         0.0695 
     77 H77        19.5900  -30.0757  -40.5130 H         1 UNK         0.0695 
     78 H78        21.6392  -28.9160  -40.6336 H         1 UNK         0.0983 
     79 H79        19.4688  -27.8875  -42.1044 H         1 UNK         0.3095 
     80 H80        20.8299  -25.6281  -44.0169 H         1 UNK         0.0454 
     81 H81        21.5342  -26.8102  -46.0944 H         1 UNK         0.0851 
     82 H82        22.8226  -26.8002  -44.9082 H         1 UNK         0.0851 
     83 H83        21.8847  -28.2650  -45.1634 H         1 UNK         0.0851 
     84 H84        19.3792  -28.2199  -44.4185 H         1 UNK         0.2976 
     85 H85        20.6052  -25.7122  -40.6103 H         1 UNK         0.3116 
     86 H86        21.4302  -24.9628  -37.9412 H         1 UNK         0.0646 
     87 H87        21.1598  -23.3086  -40.5120 H         1 UNK         0.0847 
     88 H88        19.8987  -23.5468  -39.3004 H         1 UNK         0.0847 
     89 H89        21.3549  -22.6574  -38.8915 H         1 UNK         0.0847 
     90 H90        23.1959  -25.8421  -40.8186 H         1 UNK         0.3040 
     91 H91        25.7540  -24.9035  -39.5900 H         1 UNK         0.1015 
     92 H92        24.9315  -24.5469  -42.5229 H         1 UNK         0.0786 
     93 H93        26.5293  -24.2182  -41.8630 H         1 UNK         0.0786 
     94 H94        25.1549  -23.2562  -41.3431 H         1 UNK         0.0786 
     95 H95        24.1638  -27.1130  -41.9452 H         1 UNK         0.3172 
     96 H96        26.5715  -28.7950  -42.1642 H         1 UNK         0.0595 
     97 H97        25.1618  -30.0211  -43.8169 H         1 UNK         0.0839 
     98 H98        25.1594  -28.3033  -44.1774 H         1 UNK         0.0839 
     99 H99        23.7662  -29.0398  -43.3912 H         1 UNK         0.0839 
    100 H100       26.5013  -31.0620  -41.6959 H         1 UNK         0.2998 
    101 H101       25.1023  -31.8327  -39.2531 H         1 UNK         0.0822 
    102 H102       26.4040  -33.9450  -39.5678 H         1 UNK         0.0787 
    103 H103       26.9976  -33.3647  -41.1175 H         1 UNK         0.0787 
    104 H104       27.4436  -32.5311  -39.6293 H         1 UNK         0.0787 
    105 H105       22.9486  -31.5404  -40.0515 H         1 UNK         0.3055 
    106 H106       20.9267  -32.1598  -40.7795 H         1 UNK         0.1106 
    107 H107       21.3804  -34.1658  -39.3557 H         1 UNK         0.0828 
    108 H108       20.3330  -34.5570  -40.7084 H         1 UNK         0.0828 
    109 H109       22.0278  -35.0190  -40.7564 H         1 UNK         0.0828 
    110 H110       22.5541  -31.1596  -42.7274 H         1 UNK         0.2931 
    111 H111       22.6996  -30.7319  -44.8693 H         1 UNK         0.0412 
    112 H112       24.8536  -33.9811  -45.0623 H         1 UNK         0.3472 
    113 H113       24.0681  -33.4147  -43.6108 H         1 UNK         0.3472 
    114 H114       21.1168  -31.4953  -46.5805 H         1 UNK         0.0970 
    115 H115       20.5209  -32.7587  -45.5454 H         1 UNK         0.0970 
    116 H116       18.6930  -32.5445  -43.9434 H         1 UNK         0.0612 
    117 H117       17.8787  -32.0405  -45.4108 H         1 UNK         0.0612 
@<TRIPOS>BOND
     1    1    2 1    
     2    1   62 1    
     3    1   63 1    
     4    1   64 1    
     5    2    3 2    
     6    2    4 am   BACKBONE|DICT|INTERRES
     7    4    5 1    
     8    4   65 1    
     9    5    6 1    
    10    5   25 1    
    11    5   66 1    
    12    6    7 1    
    13    6   67 1    
    14    6   68 1    
    15    7    8 1    
    16    8    9 1    
    17    8   69 1    
    18    8   70 1    
    19    9   10 ar   
    20    9   14 ar   
    21   10   11 ar   
    22   10   71 1    
    23   11   12 ar   
    24   11   61 1    
    25   12   13 ar   
    26   12   72 1    
    27   13   14 ar   
    28   13   15 1    
    29   14   73 1    
    30   15   16 1    
    31   15   74 1    
    32   15   75 1    
    33   16   17 1    
    34   17   18 1    
    35   17   76 1    
    36   17   77 1    
    37   18   19 1    
    38   18   27 1    
    39   18   78 1    
    40   19   20 am   BACKBONE|DICT|INTERRES
    41   19   79 1    
    42   20   21 2    
    43   20   22 1    
    44   22   23 1    
    45   22   24 1    
    46   22   80 1    
    47   23   81 1    
    48   23   82 1    
    49   23   83 1    
    50   24   25 am   BACKBONE|DICT|INTERRES
    51   24   84 1    
    52   25   26 2    
    53   27   28 2    
    54   27   29 am   BACKBONE|DICT|INTERRES
    55   29   30 1    
    56   29   85 1    
    57   30   31 1    
    58   30   32 1    
    59   30   86 1    
    60   31   87 1    
    61   31   88 1    
    62   31   89 1    
    63   32   33 2    
    64   32   34 am   BACKBONE|DICT|INTERRES
    65   34   35 1    
    66   34   90 1    
    67   35   36 1    
    68   35   37 1    
    69   35   91 1    
    70   36   92 1    
    71   36   93 1    
    72   36   94 1    
    73   37   38 2    
    74   37   39 am   BACKBONE|DICT|INTERRES
    75   39   40 1    
    76   39   95 1    
    77   40   41 1    
    78   40   42 1    
    79   40   96 1    
    80   41   97 1    
    81   41   98 1    
    82   41   99 1    
    83   42   43 2    
    84   42   44 am   BACKBONE|DICT|INTERRES
    85   44   45 1    
    86   44  100 1    
    87   45   46 1    
    88   45   47 1    
    89   45  101 1    
    90   46  102 1    
    91   46  103 1    
    92   46  104 1    
    93   47   48 2    
    94   47   49 am   BACKBONE|DICT|INTERRES
    95   49   50 1    
    96   49  105 1    
    97   50   51 1    
    98   50   52 1    
    99   50  106 1    
   100   51  107 1    
   101   51  108 1    
   102   51  109 1    
   103   52   53 2    
   104   52   54 am   BACKBONE|DICT|INTERRES
   105   54   55 1    
   106   54  110 1    
   107   55   56 1    
   108   55   59 1    
   109   55  111 1    
   110   56   57 am   BACKBONE|DICT|INTERRES
   111   56   58 2    
   112   57  112 1    
   113   57  113 1    
   114   59   60 1    
   115   59  114 1    
   116   59  115 1    
   117   60   61 1    
   118   61  116 1    
   119   61  117 1    
@<TRIPOS>SUBSTRUCTURE
     1 UNK         1 GROUP             0       ****    0 ROOT    
