@<TRIPOS>MOLECULE
3R8
117   119    1
SMALL
USER_CHARGES


@<TRIPOS>ATOM
      1 CA         17.9396  -26.7340  -49.9551 C.3       0 UNK        -0.2013 
      2 C          18.5365  -27.7620  -49.0059 C.2       0 UNK         0.4866 
      3 O          19.6451  -28.2423  -49.2416 O.2       0 UNK        -0.5176 
      4 N          17.8098  -28.1038  -47.9339 N.am      1 UNK        -0.4884 
      5 CA         18.2326  -29.0582  -46.8994 C.3       1 UNK         0.0853 
      6 C6         17.0304  -29.6025  -46.0898 C.3       10 UNK        -0.0849 
      7 S7         15.9631  -28.3043  -45.3699 S.3       10 UNK        -0.2776 
      8 C8         14.9088  -29.2925  -44.2626 C.3       10 UNK         0.0316 
      9 C9         15.6273  -29.6317  -42.9655 C.ar      10 UNK        -0.0863 
     10 C10        16.2949  -30.8511  -42.8200 C.ar      10 UNK        -0.1009 
     11 C11        16.9706  -31.1532  -41.6343 C.ar      10 UNK        -0.0712 
     12 C12        16.9562  -30.2347  -40.5800 C.ar      10 UNK        -0.0894 
     13 C13        16.2938  -29.0108  -40.7152 C.ar      10 UNK        -0.0745 
     14 C14        15.6266  -28.7180  -41.9083 C.ar      10 UNK        -0.0972 
     15 C15        16.2990  -28.0030  -39.5745 C.3       10 UNK         0.0209 
     16 S16        17.9382  -27.2486  -39.3182 S.3       10 UNK        -0.2568 
     17 C17        18.1995  -26.3141  -40.8667 C.3       10 UNK        -0.0983 
     18 CA         19.6388  -26.5040  -41.4185 C.3       3 UNK         0.0876 
     19 N          19.6833  -26.3063  -42.8737 N.am      3 UNK        -0.4424 
     20 C          20.6235  -26.7886  -43.6973 C.2       2 UNK         0.4918 
     21 O          21.5639  -27.4935  -43.3243 O.2       2 UNK        -0.4875 
     22 CA         20.4910  -26.4055  -45.1819 C.3       2 UNK         0.0481 
     23 CB         21.8362  -26.5111  -45.9294 C.3       2 UNK        -0.1831 
     24 N          19.4602  -27.1782  -45.8837 N.am      2 UNK        -0.4498 
     25 C          19.3481  -28.5146  -45.9792 C.2       1 UNK         0.5027 
     26 O          20.0854  -29.3171  -45.4073 O.2       1 UNK        -0.4969 
     27 C          20.6967  -25.6323  -40.6919 C.2       3 UNK         0.5005 
     28 O          20.3522  -24.7534  -39.8981 O.2       3 UNK        -0.5279 
     29 N          21.9738  -25.8673  -41.0117 N.am      4 UNK        -0.4463 
     30 CA         23.1445  -25.2416  -40.3965 C.3       4 UNK         0.0283 
     31 CB         24.2983  -25.2837  -41.4162 C.3       4 UNK        -0.1875 
     32 C          23.5339  -25.9474  -39.0835 C.2       4 UNK         0.4949 
     33 O          22.9098  -26.9378  -38.6981 O.2       4 UNK        -0.5039 
     34 N          24.5968  -25.4516  -38.4322 N.am      5 UNK        -0.4663 
     35 CA         25.2114  -26.0775  -37.2508 C.3       5 UNK         0.0242 
     36 CB         26.2831  -25.1388  -36.6735 C.3       5 UNK        -0.1982 
     37 C          25.8094  -27.4685  -37.5444 C.2       5 UNK         0.5017 
     38 O          25.8048  -28.3315  -36.6662 O.2       5 UNK        -0.5012 
     39 N          26.2710  -27.6598  -38.7853 N.am      6 UNK        -0.4439 
     40 CA         26.6271  -28.9408  -39.3841 C.3       6 UNK         0.0297 
     41 CB         28.1392  -28.9694  -39.6749 C.3       6 UNK        -0.2006 
     42 C          25.7707  -29.0683  -40.6505 C.2       6 UNK         0.4892 
     43 O          26.2455  -28.7713  -41.7482 O.2       6 UNK        -0.5089 
     44 N          24.4894  -29.4042  -40.4516 N.am      7 UNK        -0.4243 
     45 CA         23.4596  -29.4568  -41.4914 C.3       7 UNK         0.0196 
     46 CB         22.0888  -29.6737  -40.8300 C.3       7 UNK        -0.2007 
     47 C          23.7126  -30.5392  -42.5524 C.2       7 UNK         0.5020 
     48 O          24.3254  -31.5664  -42.2544 O.2       7 UNK        -0.5147 
     49 N          23.1799  -30.3168  -43.7602 N.am      8 UNK        -0.4734 
     50 CA         23.3043  -31.2222  -44.9105 C.3       8 UNK         0.0238 
     51 CB         23.3894  -30.3874  -46.2021 C.3       8 UNK        -0.1912 
     52 C          22.1822  -32.2814  -44.9684 C.2       8 UNK         0.5038 
     53 O          21.8043  -32.7098  -46.0608 O.2       8 UNK        -0.5046 
     54 N          21.6675  -32.6818  -43.7996 N.am      9 UNK        -0.4200 
     55 CA         20.6266  -33.7024  -43.6116 C.3       9 UNK         0.0839 
     56 C          21.0665  -35.1090  -44.1008 C.2       9 UNK         0.5513 
     57 N          20.1490  -35.8848  -44.6616 N.am      9 UNK        -0.7519 
     58 O          22.2138  -35.5182  -43.9332 O.2       9 UNK        -0.4960 
     59 C59        20.1665  -33.7646  -42.1315 C.3       10 UNK        -0.0876 
     60 S60        19.5276  -32.1594  -41.5482 S.3       10 UNK        -0.2414 
     61 C61        17.7354  -32.4608  -41.5047 C.3       10 UNK         0.0169 
     62 H62        17.8362  -27.1603  -50.9526 H         1 UNK         0.0903 
     63 H63        16.9563  -26.3974  -49.6268 H         1 UNK         0.0903 
     64 H64        18.5911  -25.8631  -50.0226 H         1 UNK         0.0903 
     65 H65        16.9011  -27.6855  -47.7852 H         1 UNK         0.3096 
     66 H66        18.6778  -29.9125  -47.4156 H         1 UNK         0.1121 
     67 H67        17.3840  -30.2679  -45.3013 H         1 UNK         0.0849 
     68 H68        16.4095  -30.2213  -46.7394 H         1 UNK         0.0849 
     69 H69        14.0026  -28.7264  -44.0414 H         1 UNK         0.0865 
     70 H70        14.5801  -30.1995  -44.7728 H         1 UNK         0.0865 
     71 H71        16.3009  -31.5605  -43.6360 H         1 UNK         0.1346 
     72 H72        17.4838  -30.4614  -39.6634 H         1 UNK         0.1412 
     73 H73        15.1154  -27.7714  -42.0216 H         1 UNK         0.1426 
     74 H74        15.9953  -28.5041  -38.6544 H         1 UNK         0.0716 
     75 H75        15.5664  -27.2130  -39.7474 H         1 UNK         0.0716 
     76 H76        17.9557  -25.2625  -40.7055 H         1 UNK         0.0695 
     77 H77        17.4786  -26.6654  -41.6045 H         1 UNK         0.0695 
     78 H78        19.9182  -27.5448  -41.2386 H         1 UNK         0.0983 
     79 H79        18.9564  -25.7238  -43.2629 H         1 UNK         0.3095 
     80 H80        20.1786  -25.3608  -45.2190 H         1 UNK         0.0454 
     81 H81        21.7448  -26.1714  -46.9609 H         1 UNK         0.0851 
     82 H82        22.2125  -27.5336  -45.9478 H         1 UNK         0.0851 
     83 H83        22.5980  -25.8952  -45.4498 H         1 UNK         0.0851 
     84 H84        18.7715  -26.6339  -46.3835 H         1 UNK         0.2976 
     85 H85        22.1484  -26.5931  -41.6997 H         1 UNK         0.3116 
     86 H86        22.9153  -24.1988  -40.1676 H         1 UNK         0.0646 
     87 H87        24.6100  -26.3053  -41.6357 H         1 UNK         0.0847 
     88 H88        24.0089  -24.8175  -42.3583 H         1 UNK         0.0847 
     89 H89        25.1745  -24.7448  -41.0549 H         1 UNK         0.0847 
     90 H90        25.0440  -24.6185  -38.7886 H         1 UNK         0.3040 
     91 H91        24.4304  -26.2128  -36.4989 H         1 UNK         0.1015 
     92 H92        26.7391  -25.5706  -35.7813 H         1 UNK         0.0786 
     93 H93        25.8558  -24.1787  -36.3835 H         1 UNK         0.0786 
     94 H94        27.0842  -24.9491  -37.3891 H         1 UNK         0.0786 
     95 H95        26.2077  -26.8836  -39.4286 H         1 UNK         0.3172 
     96 H96        26.3819  -29.7716  -38.7187 H         1 UNK         0.0595 
     97 H97        28.4461  -28.1491  -40.3252 H         1 UNK         0.0839 
     98 H98        28.4226  -29.9007  -40.1667 H         1 UNK         0.0839 
     99 H99        28.7182  -28.8984  -38.7541 H         1 UNK         0.0839 
    100 H100       24.1850  -29.6046  -39.5099 H         1 UNK         0.2998 
    101 H101       23.4665  -28.4874  -41.9898 H         1 UNK         0.0822 
    102 H102       21.8573  -28.8860  -40.1145 H         1 UNK         0.0787 
    103 H103       22.0417  -30.6282  -40.3043 H         1 UNK         0.0787 
    104 H104       21.2917  -29.6720  -41.5746 H         1 UNK         0.0787 
    105 H105       22.6124  -29.4867  -43.8968 H         1 UNK         0.3055 
    106 H106       24.2414  -31.7769  -44.8230 H         1 UNK         0.1106 
    107 H107       22.4486  -29.8824  -46.4185 H         1 UNK         0.0828 
    108 H108       24.1721  -29.6314  -46.1388 H         1 UNK         0.0828 
    109 H109       23.6212  -31.0185  -47.0610 H         1 UNK         0.0828 
    110 H110       22.0547  -32.2876  -42.9556 H         1 UNK         0.2931 
    111 H111       19.7725  -33.3908  -44.2168 H         1 UNK         0.0412 
    112 H112       19.2030  -35.5620  -44.7952 H         1 UNK         0.3472 
    113 H113       20.4103  -36.8086  -44.9705 H         1 UNK         0.3472 
    114 H114       19.4006  -34.5305  -41.9944 H         1 UNK         0.0970 
    115 H115       20.9977  -34.0549  -41.4859 H         1 UNK         0.0970 
    116 H116       17.4722  -32.9579  -40.5700 H         1 UNK         0.0612 
    117 H117       17.4580  -33.1411  -42.3115 H         1 UNK         0.0612 
@<TRIPOS>BOND
     1    1    2 1    
     2    1   62 1    
     3    1   63 1    
     4    1   64 1    
     5    2    3 2    
     6    2    4 am   BACKBONE|DICT|INTERRES
     7    4    5 1    
     8    4   65 1    
     9    5    6 1    
    10    5   25 1    
    11    5   66 1    
    12    6    7 1    
    13    6   67 1    
    14    6   68 1    
    15    7    8 1    
    16    8    9 1    
    17    8   69 1    
    18    8   70 1    
    19    9   10 ar   
    20    9   14 ar   
    21   10   11 ar   
    22   10   71 1    
    23   11   12 ar   
    24   11   61 1    
    25   12   13 ar   
    26   12   72 1    
    27   13   14 ar   
    28   13   15 1    
    29   14   73 1    
    30   15   16 1    
    31   15   74 1    
    32   15   75 1    
    33   16   17 1    
    34   17   18 1    
    35   17   76 1    
    36   17   77 1    
    37   18   19 1    
    38   18   27 1    
    39   18   78 1    
    40   19   20 am   BACKBONE|DICT|INTERRES
    41   19   79 1    
    42   20   21 2    
    43   20   22 1    
    44   22   23 1    
    45   22   24 1    
    46   22   80 1    
    47   23   81 1    
    48   23   82 1    
    49   23   83 1    
    50   24   25 am   BACKBONE|DICT|INTERRES
    51   24   84 1    
    52   25   26 2    
    53   27   28 2    
    54   27   29 am   BACKBONE|DICT|INTERRES
    55   29   30 1    
    56   29   85 1    
    57   30   31 1    
    58   30   32 1    
    59   30   86 1    
    60   31   87 1    
    61   31   88 1    
    62   31   89 1    
    63   32   33 2    
    64   32   34 am   BACKBONE|DICT|INTERRES
    65   34   35 1    
    66   34   90 1    
    67   35   36 1    
    68   35   37 1    
    69   35   91 1    
    70   36   92 1    
    71   36   93 1    
    72   36   94 1    
    73   37   38 2    
    74   37   39 am   BACKBONE|DICT|INTERRES
    75   39   40 1    
    76   39   95 1    
    77   40   41 1    
    78   40   42 1    
    79   40   96 1    
    80   41   97 1    
    81   41   98 1    
    82   41   99 1    
    83   42   43 2    
    84   42   44 am   BACKBONE|DICT|INTERRES
    85   44   45 1    
    86   44  100 1    
    87   45   46 1    
    88   45   47 1    
    89   45  101 1    
    90   46  102 1    
    91   46  103 1    
    92   46  104 1    
    93   47   48 2    
    94   47   49 am   BACKBONE|DICT|INTERRES
    95   49   50 1    
    96   49  105 1    
    97   50   51 1    
    98   50   52 1    
    99   50  106 1    
   100   51  107 1    
   101   51  108 1    
   102   51  109 1    
   103   52   53 2    
   104   52   54 am   BACKBONE|DICT|INTERRES
   105   54   55 1    
   106   54  110 1    
   107   55   56 1    
   108   55   59 1    
   109   55  111 1    
   110   56   57 am   BACKBONE|DICT|INTERRES
   111   56   58 2    
   112   57  112 1    
   113   57  113 1    
   114   59   60 1    
   115   59  114 1    
   116   59  115 1    
   117   60   61 1    
   118   61  116 1    
   119   61  117 1    
@<TRIPOS>SUBSTRUCTURE
     1 UNK         1 GROUP             0       ****    0 ROOT    
