@<TRIPOS>MOLECULE
3R8
117   119    1
SMALL
USER_CHARGES


@<TRIPOS>ATOM
      1 CA         21.4497  -24.9269  -41.9256 C.3       0 UNK        -0.2013 
      2 C          20.3642  -25.2520  -42.9384 C.2       0 UNK         0.4866 
      3 O          20.5546  -26.1334  -43.7784 O.2       0 UNK        -0.5176 
      4 N          19.2421  -24.5189  -42.8890 N.am      1 UNK        -0.4884 
      5 CA         18.0221  -24.6935  -43.7027 C.3       1 UNK         0.0853 
      6 C6         17.3542  -26.0820  -43.5054 C.3       10 UNK        -0.0849 
      7 S7         16.9956  -26.5394  -41.7751 S.3       10 UNK        -0.2776 
      8 C8         15.7967  -27.8971  -42.0173 C.3       10 UNK         0.0316 
      9 C9         16.3921  -29.0487  -42.8188 C.ar      10 UNK        -0.0863 
     10 C10        17.0549  -30.0979  -42.1750 C.ar      10 UNK        -0.1009 
     11 C11        17.6444  -31.1326  -42.9115 C.ar      10 UNK        -0.0712 
     12 C12        17.5712  -31.0977  -44.3109 C.ar      10 UNK        -0.0894 
     13 C13        16.9230  -30.0470  -44.9658 C.ar      10 UNK        -0.0745 
     14 C14        16.3023  -29.0494  -44.2131 C.ar      10 UNK        -0.0972 
     15 C15        16.9265  -29.9623  -46.4863 C.3       10 UNK         0.0209 
     16 S16        17.8307  -28.4931  -47.0861 S.3       10 UNK        -0.2568 
     17 C17        19.4832  -28.7597  -46.3597 C.3       10 UNK        -0.0983 
     18 CA         20.5611  -27.8063  -46.9404 C.3       3 UNK         0.0876 
     19 N          20.2485  -26.4017  -46.6496 N.am      3 UNK        -0.4424 
     20 C          20.2291  -25.3947  -47.5343 C.2       2 UNK         0.4918 
     21 O          20.4473  -25.5424  -48.7374 O.2       2 UNK        -0.4875 
     22 CA         19.9667  -23.9733  -46.9804 C.3       2 UNK         0.0481 
     23 CB         19.1274  -23.1062  -47.9425 C.3       2 UNK        -0.1831 
     24 N          19.4185  -23.9715  -45.6157 N.am      2 UNK        -0.4498 
     25 C          18.2192  -24.4250  -45.2171 C.2       1 UNK         0.5027 
     26 O          17.2992  -24.6795  -45.9952 O.2       1 UNK        -0.4969 
     27 C          21.9554  -28.1811  -46.3868 C.2       3 UNK         0.5005 
     28 O          22.3805  -29.3239  -46.5619 O.2       3 UNK        -0.5279 
     29 N          22.6292  -27.2309  -45.7151 N.am      4 UNK        -0.4463 
     30 CA         23.8674  -27.3771  -44.9395 C.3       4 UNK         0.0283 
     31 CB         25.0505  -27.8216  -45.8256 C.3       4 UNK        -0.1875 
     32 C          23.6819  -28.2603  -43.6894 C.2       4 UNK         0.4949 
     33 O          24.6245  -28.9257  -43.2562 O.2       4 UNK        -0.5039 
     34 N          22.4783  -28.2282  -43.1001 N.am      5 UNK        -0.4663 
     35 CA         22.0963  -28.9721  -41.8984 C.3       5 UNK         0.0242 
     36 CB         20.5675  -29.1573  -41.8987 C.3       5 UNK        -0.1982 
     37 C          22.6180  -28.2920  -40.6170 C.2       5 UNK         0.5017 
     38 O          21.8310  -27.9012  -39.7545 O.2       5 UNK        -0.5012 
     39 N          23.9455  -28.1363  -40.5330 N.am      6 UNK        -0.4439 
     40 CA         24.6576  -27.4754  -39.4335 C.3       6 UNK         0.0297 
     41 CB         26.0781  -27.1229  -39.9043 C.3       6 UNK        -0.2006 
     42 C          24.7110  -28.3002  -38.1326 C.2       6 UNK         0.4892 
     43 O          24.9621  -27.7285  -37.0707 O.2       6 UNK        -0.5089 
     44 N          24.4857  -29.6141  -38.2364 N.am      7 UNK        -0.4243 
     45 CA         24.4165  -30.5634  -37.1278 C.3       7 UNK         0.0196 
     46 CB         25.7736  -31.2830  -36.9777 C.3       7 UNK        -0.2007 
     47 C          23.2234  -31.4980  -37.3800 C.2       7 UNK         0.5020 
     48 O          22.1605  -31.0193  -37.7807 O.2       7 UNK        -0.5147 
     49 N          23.4024  -32.8127  -37.1920 N.am      8 UNK        -0.4734 
     50 CA         22.4030  -33.8594  -37.4526 C.3       8 UNK         0.0238 
     51 CB         22.7903  -35.1242  -36.6631 C.3       8 UNK        -0.1912 
     52 C          22.2231  -34.1337  -38.9621 C.2       8 UNK         0.5038 
     53 O          22.4092  -35.2636  -39.4170 O.2       8 UNK        -0.5046 
     54 N          21.8975  -33.0737  -39.7100 N.am      9 UNK        -0.4200 
     55 CA         21.7847  -33.0181  -41.1741 C.3       9 UNK         0.0839 
     56 C          23.1273  -33.2139  -41.9467 C.2       9 UNK         0.5513 
     57 N          24.2814  -33.0909  -41.3011 N.am      9 UNK        -0.7519 
     58 O          23.1320  -33.4530  -43.1508 O.2       9 UNK        -0.4960 
     59 C59        20.6087  -33.8805  -41.7180 C.3       10 UNK        -0.0876 
     60 S60        19.7330  -33.0304  -43.0734 S.3       10 UNK        -0.2414 
     61 C61        18.3479  -32.2651  -42.1625 C.3       10 UNK         0.0169 
     62 H62        21.3133  -25.5292  -41.0285 H         1 UNK         0.0903 
     63 H63        21.4276  -23.8757  -41.6395 H         1 UNK         0.0903 
     64 H64        22.4353  -25.1439  -42.3366 H         1 UNK         0.0903 
     65 H65        19.1706  -23.7997  -42.1817 H         1 UNK         0.3096 
     66 H66        17.3170  -23.9346  -43.3597 H         1 UNK         0.1121 
     67 H67        16.4083  -26.1128  -44.0486 H         1 UNK         0.0849 
     68 H68        17.9823  -26.8642  -43.9362 H         1 UNK         0.0849 
     69 H69        15.4655  -28.2551  -41.0414 H         1 UNK         0.0865 
     70 H70        14.9057  -27.5112  -42.5152 H         1 UNK         0.0865 
     71 H71        17.1220  -30.1011  -41.0955 H         1 UNK         0.1346 
     72 H72        18.0331  -31.8782  -44.8985 H         1 UNK         0.1412 
     73 H73        15.7957  -28.2424  -44.7238 H         1 UNK         0.1426 
     74 H74        17.3698  -30.8567  -46.9269 H         1 UNK         0.0716 
     75 H75        15.8977  -29.9179  -46.8462 H         1 UNK         0.0716 
     76 H76        19.7556  -29.8024  -46.5347 H         1 UNK         0.0695 
     77 H77        19.4108  -28.6386  -45.2765 H         1 UNK         0.0695 
     78 H78        20.6065  -27.9624  -48.0202 H         1 UNK         0.0983 
     79 H79        20.0772  -26.1948  -45.6700 H         1 UNK         0.3095 
     80 H80        20.9480  -23.5041  -46.8987 H         1 UNK         0.0454 
     81 H81        18.9327  -22.1196  -47.5226 H         1 UNK         0.0851 
     82 H82        18.1685  -23.5677  -48.1786 H         1 UNK         0.0851 
     83 H83        19.6507  -22.9568  -48.8876 H         1 UNK         0.0851 
     84 H84        20.0860  -23.7764  -44.8820 H         1 UNK         0.2976 
     85 H85        22.1688  -26.3368  -45.6188 H         1 UNK         0.3116 
     86 H86        24.1018  -26.3801  -44.5638 H         1 UNK         0.0646 
     87 H87        25.1503  -27.1858  -46.7051 H         1 UNK         0.0847 
     88 H88        25.9910  -27.7634  -45.2765 H         1 UNK         0.0847 
     89 H89        24.9409  -28.8517  -46.1653 H         1 UNK         0.0847 
     90 H90        21.7726  -27.6013  -43.4780 H         1 UNK         0.3040 
     91 H91        22.5538  -29.9618  -41.9459 H         1 UNK         0.1015 
     92 H92        20.0405  -28.2027  -41.8661 H         1 UNK         0.0786 
     93 H93        20.2412  -29.7383  -41.0355 H         1 UNK         0.0786 
     94 H94        20.2345  -29.6888  -42.7905 H         1 UNK         0.0786 
     95 H95        24.5007  -28.4608  -41.3203 H         1 UNK         0.3172 
     96 H96        24.1351  -26.5439  -39.2052 H         1 UNK         0.0595 
     97 H97        26.6503  -28.0146  -40.1638 H         1 UNK         0.0839 
     98 H98        26.6299  -26.5978  -39.1233 H         1 UNK         0.0839 
     99 H99        26.0573  -26.4706  -40.7776 H         1 UNK         0.0839 
    100 H100       24.2329  -29.9764  -39.1441 H         1 UNK         0.2998 
    101 H101       24.1983  -30.0326  -36.1987 H         1 UNK         0.0822 
    102 H102       26.5798  -30.5643  -36.8289 H         1 UNK         0.0787 
    103 H103       25.7812  -31.9458  -36.1114 H         1 UNK         0.0787 
    104 H104       26.0217  -31.8750  -37.8598 H         1 UNK         0.0787 
    105 H105       24.3127  -33.1293  -36.8889 H         1 UNK         0.3055 
    106 H106       21.4355  -33.5182  -37.0764 H         1 UNK         0.1106 
    107 H107       22.8533  -34.9216  -35.5938 H         1 UNK         0.0828 
    108 H108       22.0471  -35.9117  -36.7966 H         1 UNK         0.0828 
    109 H109       23.7516  -35.5252  -36.9868 H         1 UNK         0.0828 
    110 H110       21.7972  -32.1880  -39.2210 H         1 UNK         0.2931 
    111 H111       21.5300  -31.9738  -41.3489 H         1 UNK         0.0412 
    112 H112       24.3011  -32.9218  -40.3097 H         1 UNK         0.3472 
    113 H113       25.1427  -33.2102  -41.8111 H         1 UNK         0.3472 
    114 H114       20.9593  -34.8541  -42.0656 H         1 UNK         0.0970 
    115 H115       19.8872  -34.0992  -40.9293 H         1 UNK         0.0970 
    116 H116       17.6162  -33.0358  -41.9177 H         1 UNK         0.0612 
    117 H117       18.7329  -31.8848  -41.2148 H         1 UNK         0.0612 
@<TRIPOS>BOND
     1    1    2 1    
     2    1   62 1    
     3    1   63 1    
     4    1   64 1    
     5    2    3 2    
     6    2    4 am   BACKBONE|DICT|INTERRES
     7    4    5 1    
     8    4   65 1    
     9    5    6 1    
    10    5   25 1    
    11    5   66 1    
    12    6    7 1    
    13    6   67 1    
    14    6   68 1    
    15    7    8 1    
    16    8    9 1    
    17    8   69 1    
    18    8   70 1    
    19    9   10 ar   
    20    9   14 ar   
    21   10   11 ar   
    22   10   71 1    
    23   11   12 ar   
    24   11   61 1    
    25   12   13 ar   
    26   12   72 1    
    27   13   14 ar   
    28   13   15 1    
    29   14   73 1    
    30   15   16 1    
    31   15   74 1    
    32   15   75 1    
    33   16   17 1    
    34   17   18 1    
    35   17   76 1    
    36   17   77 1    
    37   18   19 1    
    38   18   27 1    
    39   18   78 1    
    40   19   20 am   BACKBONE|DICT|INTERRES
    41   19   79 1    
    42   20   21 2    
    43   20   22 1    
    44   22   23 1    
    45   22   24 1    
    46   22   80 1    
    47   23   81 1    
    48   23   82 1    
    49   23   83 1    
    50   24   25 am   BACKBONE|DICT|INTERRES
    51   24   84 1    
    52   25   26 2    
    53   27   28 2    
    54   27   29 am   BACKBONE|DICT|INTERRES
    55   29   30 1    
    56   29   85 1    
    57   30   31 1    
    58   30   32 1    
    59   30   86 1    
    60   31   87 1    
    61   31   88 1    
    62   31   89 1    
    63   32   33 2    
    64   32   34 am   BACKBONE|DICT|INTERRES
    65   34   35 1    
    66   34   90 1    
    67   35   36 1    
    68   35   37 1    
    69   35   91 1    
    70   36   92 1    
    71   36   93 1    
    72   36   94 1    
    73   37   38 2    
    74   37   39 am   BACKBONE|DICT|INTERRES
    75   39   40 1    
    76   39   95 1    
    77   40   41 1    
    78   40   42 1    
    79   40   96 1    
    80   41   97 1    
    81   41   98 1    
    82   41   99 1    
    83   42   43 2    
    84   42   44 am   BACKBONE|DICT|INTERRES
    85   44   45 1    
    86   44  100 1    
    87   45   46 1    
    88   45   47 1    
    89   45  101 1    
    90   46  102 1    
    91   46  103 1    
    92   46  104 1    
    93   47   48 2    
    94   47   49 am   BACKBONE|DICT|INTERRES
    95   49   50 1    
    96   49  105 1    
    97   50   51 1    
    98   50   52 1    
    99   50  106 1    
   100   51  107 1    
   101   51  108 1    
   102   51  109 1    
   103   52   53 2    
   104   52   54 am   BACKBONE|DICT|INTERRES
   105   54   55 1    
   106   54  110 1    
   107   55   56 1    
   108   55   59 1    
   109   55  111 1    
   110   56   57 am   BACKBONE|DICT|INTERRES
   111   56   58 2    
   112   57  112 1    
   113   57  113 1    
   114   59   60 1    
   115   59  114 1    
   116   59  115 1    
   117   60   61 1    
   118   61  116 1    
   119   61  117 1    
@<TRIPOS>SUBSTRUCTURE
     1 UNK         1 GROUP             0       ****    0 ROOT    
