@<TRIPOS>MOLECULE
3R8
117   119    1
SMALL
USER_CHARGES


@<TRIPOS>ATOM
      1 CA         20.6839  -25.1815  -39.0914 C.3       0 UNK        -0.2013 
      2 C          19.8458  -25.2507  -40.3584 C.2       0 UNK         0.4866 
      3 O          19.1183  -24.3067  -40.6702 O.2       0 UNK        -0.5176 
      4 N          19.9397  -26.3688  -41.0857 N.am      1 UNK        -0.4884 
      5 CA         19.2725  -26.5913  -42.3727 C.3       1 UNK         0.0853 
      6 C6         19.2369  -28.0987  -42.7300 C.3       10 UNK        -0.0849 
      7 S7         18.1868  -29.0508  -41.5794 S.3       10 UNK        -0.2776 
      8 C8         16.7806  -29.5244  -42.6424 C.3       10 UNK         0.0316 
      9 C9         17.1529  -30.6570  -43.5893 C.ar      10 UNK        -0.0863 
     10 C10        17.2489  -31.9634  -43.1030 C.ar      10 UNK        -0.1009 
     11 C11        17.6649  -33.0035  -43.9382 C.ar      10 UNK        -0.0712 
     12 C12        17.9391  -32.7349  -45.2822 C.ar      10 UNK        -0.0894 
     13 C13        17.8110  -31.4411  -45.7968 C.ar      10 UNK        -0.0745 
     14 C14        17.4117  -30.4054  -44.9410 C.ar      10 UNK        -0.0972 
     15 C15        18.0688  -31.2150  -47.2870 C.3       10 UNK         0.0209 
     16 S16        18.7232  -29.5692  -47.7206 S.3       10 UNK        -0.2568 
     17 C17        20.4342  -29.6682  -47.0949 C.3       10 UNK        -0.0983 
     18 CA         21.1583  -28.3069  -47.2376 C.3       3 UNK         0.0876 
     19 N          20.4582  -27.2464  -46.5021 N.am      3 UNK        -0.4424 
     20 C          20.6531  -25.9289  -46.6529 C.2       2 UNK         0.4918 
     21 O          21.4975  -25.4405  -47.4036 O.2       2 UNK        -0.4875 
     22 CA         19.7301  -24.9944  -45.8466 C.3       2 UNK         0.0481 
     23 CB         18.5467  -24.5392  -46.7156 C.3       2 UNK        -0.1831 
     24 N          19.2173  -25.6162  -44.6206 N.am      2 UNK        -0.4498 
     25 C          19.9411  -25.7777  -43.5036 C.2       1 UNK         0.5027 
     26 O          21.0860  -25.3383  -43.3734 O.2       1 UNK        -0.4969 
     27 C          22.6474  -28.4155  -46.8478 C.2       3 UNK         0.5005 
     28 O          23.4854  -28.6828  -47.7109 O.2       3 UNK        -0.5279 
     29 N          22.9486  -28.1654  -45.5706 N.am      4 UNK        -0.4463 
     30 CA         24.2772  -28.0265  -44.9867 C.3       4 UNK         0.0283 
     31 CB         24.9572  -29.3963  -44.8113 C.3       4 UNK        -0.1875 
     32 C          24.0700  -27.3284  -43.6419 C.2       4 UNK         0.4949 
     33 O          23.0485  -27.5780  -42.9995 O.2       4 UNK        -0.5039 
     34 N          25.0155  -26.4703  -43.2429 N.am      5 UNK        -0.4663 
     35 CA         24.9194  -25.5857  -42.0750 C.3       5 UNK         0.0242 
     36 CB         25.9523  -24.4530  -42.2299 C.3       5 UNK        -0.1982 
     37 C          25.0468  -26.3201  -40.7231 C.2       5 UNK         0.5017 
     38 O          25.9912  -26.0741  -39.9700 O.2       5 UNK        -0.5012 
     39 N          24.0878  -27.2030  -40.4386 N.am      6 UNK        -0.4439 
     40 CA         23.9332  -27.9542  -39.1992 C.3       6 UNK         0.0297 
     41 CB         24.8070  -29.2210  -39.2444 C.3       6 UNK        -0.2006 
     42 C          22.4556  -28.3228  -39.0425 C.2       6 UNK         0.4892 
     43 O          21.7362  -28.4030  -40.0409 O.2       6 UNK        -0.5089 
     44 N          22.0268  -28.5725  -37.7996 N.am      7 UNK        -0.4243 
     45 CA         20.6847  -29.0828  -37.4946 C.3       7 UNK         0.0196 
     46 CB         20.4008  -28.9138  -35.9938 C.3       7 UNK        -0.2007 
     47 C          20.5047  -30.5515  -37.9204 C.2       7 UNK         0.5020 
     48 O          19.3920  -30.9608  -38.2503 O.2       7 UNK        -0.5147 
     49 N          21.6067  -31.3134  -37.9359 N.am      8 UNK        -0.4734 
     50 CA         21.6781  -32.7003  -38.3961 C.3       8 UNK         0.0238 
     51 CB         22.8419  -33.4028  -37.6710 C.3       8 UNK        -0.1912 
     52 C          21.8036  -32.7717  -39.9304 C.2       8 UNK         0.5038 
     53 O          22.7948  -33.2959  -40.4422 O.2       8 UNK        -0.5046 
     54 N          20.7954  -32.2352  -40.6280 N.am      9 UNK        -0.4200 
     55 CA         20.6649  -32.2219  -42.0951 C.3       9 UNK         0.0839 
     56 C          21.7223  -31.3504  -42.8321 C.2       9 UNK         0.5513 
     57 N          22.2345  -30.2986  -42.2088 N.am      9 UNK        -0.7519 
     58 O          22.0539  -31.5985  -43.9883 O.2       9 UNK        -0.4960 
     59 C59        20.4941  -33.6464  -42.7038 C.3       10 UNK        -0.0876 
     60 S60        19.0361  -34.5119  -42.0188 S.3       10 UNK        -0.2414 
     61 C61        17.8367  -34.4162  -43.3916 C.3       10 UNK         0.0169 
     62 H62        21.7410  -25.3029  -39.3264 H         1 UNK         0.0903 
     63 H63        20.5567  -24.2201  -38.5942 H         1 UNK         0.0903 
     64 H64        20.3885  -25.9650  -38.3942 H         1 UNK         0.0903 
     65 H65        20.5617  -27.1162  -40.7840 H         1 UNK         0.3096 
     66 H66        18.2447  -26.2319  -42.2828 H         1 UNK         0.1121 
     67 H67        20.2446  -28.5152  -42.7050 H         1 UNK         0.0849 
     68 H68        18.8761  -28.2580  -43.7460 H         1 UNK         0.0849 
     69 H69        15.9530  -29.8443  -42.0075 H         1 UNK         0.0865 
     70 H70        16.4209  -28.6532  -43.1919 H         1 UNK         0.0865 
     71 H71        17.0483  -32.1635  -42.0591 H         1 UNK         0.1346 
     72 H72        18.2498  -33.5400  -45.9342 H         1 UNK         0.1412 
     73 H73        17.3036  -29.4008  -45.3242 H         1 UNK         0.1426 
     74 H74        17.1271  -31.3583  -47.8182 H         1 UNK         0.0716 
     75 H75        18.7568  -31.9691  -47.6729 H         1 UNK         0.0716 
     76 H76        20.9581  -30.4447  -47.6557 H         1 UNK         0.0695 
     77 H77        20.4179  -29.9935  -46.0523 H         1 UNK         0.0695 
     78 H78        21.1391  -28.0298  -48.2943 H         1 UNK         0.0983 
     79 H79        19.7140  -27.5519  -45.8961 H         1 UNK         0.3095 
     80 H80        20.3088  -24.1087  -45.5754 H         1 UNK         0.0454 
     81 H81        18.8973  -24.0446  -47.6226 H         1 UNK         0.0851 
     82 H82        17.9150  -23.8265  -46.1852 H         1 UNK         0.0851 
     83 H83        17.9224  -25.3786  -47.0246 H         1 UNK         0.0851 
     84 H84        18.2691  -25.9637  -44.6512 H         1 UNK         0.2976 
     85 H85        22.2054  -27.9361  -44.9210 H         1 UNK         0.3116 
     86 H86        24.8842  -27.3899  -45.6338 H         1 UNK         0.0646 
     87 H87        25.9334  -29.2896  -44.3370 H         1 UNK         0.0847 
     88 H88        24.3644  -30.0674  -44.1903 H         1 UNK         0.0847 
     89 H89        25.1168  -29.8879  -45.7707 H         1 UNK         0.0847 
     90 H90        25.8421  -26.3642  -43.8136 H         1 UNK         0.3040 
     91 H91        23.9275  -25.1262  -42.0856 H         1 UNK         0.1015 
     92 H92        25.8875  -23.7479  -41.3998 H         1 UNK         0.0786 
     93 H93        25.7850  -23.8853  -43.1454 H         1 UNK         0.0786 
     94 H94        26.9730  -24.8369  -42.2534 H         1 UNK         0.0786 
     95 H95        23.3666  -27.3745  -41.1400 H         1 UNK         0.3172 
     96 H96        24.2295  -27.3263  -38.3563 H         1 UNK         0.0595 
     97 H97        24.5197  -29.8775  -40.0675 H         1 UNK         0.0839 
     98 H98        24.7200  -29.7952  -38.3216 H         1 UNK         0.0839 
     99 H99        25.8609  -28.9724  -39.3695 H         1 UNK         0.0839 
    100 H100       22.6666  -28.4689  -37.0244 H         1 UNK         0.2998 
    101 H101       19.9541  -28.4906  -38.0507 H         1 UNK         0.0822 
    102 H102       19.3984  -29.2657  -35.7456 H         1 UNK         0.0787 
    103 H103       21.1053  -29.4785  -35.3817 H         1 UNK         0.0787 
    104 H104       20.4581  -27.8669  -35.6949 H         1 UNK         0.0787 
    105 H105       22.4809  -30.8836  -37.6733 H         1 UNK         0.3055 
    106 H106       20.7551  -33.2182  -38.1241 H         1 UNK         0.1106 
    107 H107       22.7070  -33.3806  -36.5895 H         1 UNK         0.0828 
    108 H108       22.9087  -34.4512  -37.9650 H         1 UNK         0.0828 
    109 H109       23.8020  -32.9383  -37.8997 H         1 UNK         0.0828 
    110 H110       20.0462  -31.7894  -40.1117 H         1 UNK         0.2931 
    111 H111       19.7386  -31.6832  -42.2775 H         1 UNK         0.0412 
    112 H112       22.8513  -29.6750  -42.7066 H         1 UNK         0.3472 
    113 H113       21.9056  -30.0198  -41.2936 H         1 UNK         0.3472 
    114 H114       20.3966  -33.5961  -43.7893 H         1 UNK         0.0970 
    115 H115       21.3816  -34.2523  -42.5173 H         1 UNK         0.0970 
    116 H116       16.8708  -34.7823  -43.0417 H         1 UNK         0.0612 
    117 H117       18.1583  -35.0998  -44.1789 H         1 UNK         0.0612 
@<TRIPOS>BOND
     1    1    2 1    
     2    1   62 1    
     3    1   63 1    
     4    1   64 1    
     5    2    3 2    
     6    2    4 am   BACKBONE|DICT|INTERRES
     7    4    5 1    
     8    4   65 1    
     9    5    6 1    
    10    5   25 1    
    11    5   66 1    
    12    6    7 1    
    13    6   67 1    
    14    6   68 1    
    15    7    8 1    
    16    8    9 1    
    17    8   69 1    
    18    8   70 1    
    19    9   10 ar   
    20    9   14 ar   
    21   10   11 ar   
    22   10   71 1    
    23   11   12 ar   
    24   11   61 1    
    25   12   13 ar   
    26   12   72 1    
    27   13   14 ar   
    28   13   15 1    
    29   14   73 1    
    30   15   16 1    
    31   15   74 1    
    32   15   75 1    
    33   16   17 1    
    34   17   18 1    
    35   17   76 1    
    36   17   77 1    
    37   18   19 1    
    38   18   27 1    
    39   18   78 1    
    40   19   20 am   BACKBONE|DICT|INTERRES
    41   19   79 1    
    42   20   21 2    
    43   20   22 1    
    44   22   23 1    
    45   22   24 1    
    46   22   80 1    
    47   23   81 1    
    48   23   82 1    
    49   23   83 1    
    50   24   25 am   BACKBONE|DICT|INTERRES
    51   24   84 1    
    52   25   26 2    
    53   27   28 2    
    54   27   29 am   BACKBONE|DICT|INTERRES
    55   29   30 1    
    56   29   85 1    
    57   30   31 1    
    58   30   32 1    
    59   30   86 1    
    60   31   87 1    
    61   31   88 1    
    62   31   89 1    
    63   32   33 2    
    64   32   34 am   BACKBONE|DICT|INTERRES
    65   34   35 1    
    66   34   90 1    
    67   35   36 1    
    68   35   37 1    
    69   35   91 1    
    70   36   92 1    
    71   36   93 1    
    72   36   94 1    
    73   37   38 2    
    74   37   39 am   BACKBONE|DICT|INTERRES
    75   39   40 1    
    76   39   95 1    
    77   40   41 1    
    78   40   42 1    
    79   40   96 1    
    80   41   97 1    
    81   41   98 1    
    82   41   99 1    
    83   42   43 2    
    84   42   44 am   BACKBONE|DICT|INTERRES
    85   44   45 1    
    86   44  100 1    
    87   45   46 1    
    88   45   47 1    
    89   45  101 1    
    90   46  102 1    
    91   46  103 1    
    92   46  104 1    
    93   47   48 2    
    94   47   49 am   BACKBONE|DICT|INTERRES
    95   49   50 1    
    96   49  105 1    
    97   50   51 1    
    98   50   52 1    
    99   50  106 1    
   100   51  107 1    
   101   51  108 1    
   102   51  109 1    
   103   52   53 2    
   104   52   54 am   BACKBONE|DICT|INTERRES
   105   54   55 1    
   106   54  110 1    
   107   55   56 1    
   108   55   59 1    
   109   55  111 1    
   110   56   57 am   BACKBONE|DICT|INTERRES
   111   56   58 2    
   112   57  112 1    
   113   57  113 1    
   114   59   60 1    
   115   59  114 1    
   116   59  115 1    
   117   60   61 1    
   118   61  116 1    
   119   61  117 1    
@<TRIPOS>SUBSTRUCTURE
     1 UNK         1 GROUP             0       ****    0 ROOT    
