@<TRIPOS>MOLECULE
3R8
117   119    1
SMALL
USER_CHARGES


@<TRIPOS>ATOM
      1 CA         16.1907  -22.0634  -46.8853 C.3       0 UNK        -0.2013 
      2 C          17.1378  -22.8594  -45.9997 C.2       0 UNK         0.4866 
      3 O          18.0427  -22.2819  -45.3959 O.2       0 UNK        -0.5176 
      4 N          16.9438  -24.1818  -45.9245 N.am      1 UNK        -0.4884 
      5 CA         17.7270  -25.0950  -45.0867 C.3       1 UNK         0.0853 
      6 C6         17.4413  -26.5757  -45.4321 C.3       10 UNK        -0.0849 
      7 S7         18.0353  -27.0788  -47.0787 S.3       10 UNK        -0.2776 
      8 C8         16.9805  -28.5327  -47.4054 C.3       10 UNK         0.0316 
      9 C9         17.1163  -29.6035  -46.3283 C.ar      10 UNK        -0.0863 
     10 C10        18.1177  -30.5756  -46.4101 C.ar      10 UNK        -0.1009 
     11 C11        18.2336  -31.5617  -45.4234 C.ar      10 UNK        -0.0712 
     12 C12        17.3561  -31.5544  -44.3336 C.ar      10 UNK        -0.0894 
     13 C13        16.3559  -30.5826  -44.2384 C.ar      10 UNK        -0.0745 
     14 C14        16.2280  -29.6275  -45.2497 C.ar      10 UNK        -0.0972 
     15 C15        15.3929  -30.5636  -43.0608 C.3       10 UNK         0.0209 
     16 S16        15.6173  -29.0764  -42.0316 S.3       10 UNK        -0.2568 
     17 C17        17.0543  -29.5263  -40.9998 C.3       10 UNK        -0.0983 
     18 CA         18.4059  -28.9366  -41.4982 C.3       3 UNK         0.0876 
     19 N          18.3603  -27.4858  -41.7137 N.am      3 UNK        -0.4424 
     20 C          18.2373  -26.5140  -40.7972 C.2       2 UNK         0.4918 
     21 O          18.0455  -26.7139  -39.5979 O.2       2 UNK        -0.4875 
     22 CA         18.3963  -25.0621  -41.3000 C.3       2 UNK         0.0481 
     23 CB         19.6567  -24.4227  -40.6918 C.3       2 UNK        -0.1831 
     24 N          18.4863  -24.9785  -42.7636 N.am      2 UNK        -0.4498 
     25 C          17.4352  -24.8746  -43.5881 C.2       1 UNK         0.5027 
     26 O          16.2742  -24.7035  -43.2083 O.2       1 UNK        -0.4969 
     27 C          19.5943  -29.3537  -40.5878 C.2       3 UNK         0.5005 
     28 O          19.3692  -30.0318  -39.5856 O.2       3 UNK        -0.5279 
     29 N          20.8513  -28.9713  -40.8637 N.am      4 UNK        -0.4463 
     30 CA         21.4205  -28.1900  -41.9627 C.3       4 UNK         0.0283 
     31 CB         21.5330  -29.0408  -43.2411 C.3       4 UNK        -0.1875 
     32 C          22.7976  -27.6865  -41.5068 C.2       4 UNK         0.4949 
     33 O          23.2570  -28.0581  -40.4219 O.2       4 UNK        -0.5039 
     34 N          23.4294  -26.8495  -42.3414 N.am      5 UNK        -0.4663 
     35 CA         24.7569  -26.2669  -42.1163 C.3       5 UNK         0.0242 
     36 CB         25.1372  -25.3926  -43.3218 C.3       5 UNK        -0.1982 
     37 C          25.8354  -27.3356  -41.8663 C.2       5 UNK         0.5017 
     38 O          25.8520  -28.3564  -42.5577 O.2       5 UNK        -0.5012 
     39 N          26.6810  -27.0943  -40.8537 N.am      6 UNK        -0.4439 
     40 CA         27.7312  -27.9904  -40.3443 C.3       6 UNK         0.0297 
     41 CB         28.8539  -28.1598  -41.3907 C.3       6 UNK        -0.2006 
     42 C          27.2097  -29.3501  -39.8242 C.2       6 UNK         0.4892 
     43 O          27.9946  -30.2937  -39.7184 O.2       6 UNK        -0.5089 
     44 N          25.9029  -29.4282  -39.5193 N.am      7 UNK        -0.4243 
     45 CA         25.1452  -30.6223  -39.1265 C.3       7 UNK         0.0196 
     46 CB         25.6141  -31.1525  -37.7546 C.3       7 UNK        -0.2007 
     47 C          25.1202  -31.7150  -40.2151 C.2       7 UNK         0.5020 
     48 O          24.9832  -32.8945  -39.8872 O.2       7 UNK        -0.5147 
     49 N          25.2287  -31.3154  -41.4931 N.am      8 UNK        -0.4734 
     50 CA         25.3164  -32.2107  -42.6558 C.3       8 UNK         0.0238 
     51 CB         25.5586  -31.3707  -43.9200 C.3       8 UNK        -0.1912 
     52 C          24.1024  -33.1367  -42.8564 C.2       8 UNK         0.5038 
     53 O          24.2618  -34.2187  -43.4232 O.2       8 UNK        -0.5046 
     54 N          22.9318  -32.6991  -42.3807 N.am      9 UNK        -0.4200 
     55 CA         21.6693  -33.4537  -42.3841 C.3       9 UNK         0.0839 
     56 C          21.3065  -34.0282  -40.9832 C.2       9 UNK         0.5513 
     57 N          22.1858  -33.9816  -39.9881 N.am      9 UNK        -0.7519 
     58 O          20.2086  -34.5458  -40.7954 O.2       9 UNK        -0.4960 
     59 C59        20.5141  -32.6151  -42.9936 C.3       10 UNK        -0.0876 
     60 S60        20.8445  -32.1752  -44.7367 S.3       10 UNK        -0.2414 
     61 C61        19.2921  -32.6470  -45.5553 C.3       10 UNK         0.0169 
     62 H62        15.6610  -21.3179  -46.2927 H         1 UNK         0.0903 
     63 H63        16.7508  -21.5454  -47.6634 H         1 UNK         0.0903 
     64 H64        15.4504  -22.7012  -47.3681 H         1 UNK         0.0903 
     65 H65        16.1817  -24.6035  -46.4356 H         1 UNK         0.3096 
     66 H66        18.7846  -24.8899  -45.2691 H         1 UNK         0.1121 
     67 H67        16.3689  -26.7662  -45.3637 H         1 UNK         0.0849 
     68 H68        17.9173  -27.2464  -44.7143 H         1 UNK         0.0849 
     69 H69        17.2467  -28.9510  -48.3773 H         1 UNK         0.0865 
     70 H70        15.9411  -28.2118  -47.4915 H         1 UNK         0.0865 
     71 H71        18.8030  -30.5697  -47.2468 H         1 UNK         0.1346 
     72 H72        17.4437  -32.3108  -43.5664 H         1 UNK         0.1412 
     73 H73        15.4408  -28.8893  -45.1813 H         1 UNK         0.1426 
     74 H74        15.4930  -31.4611  -42.4487 H         1 UNK         0.0716 
     75 H75        14.3712  -30.5705  -43.4433 H         1 UNK         0.0716 
     76 H76        17.1155  -30.6142  -40.9369 H         1 UNK         0.0695 
     77 H77        16.8423  -29.1811  -39.9863 H         1 UNK         0.0695 
     78 H78        18.5987  -29.3850  -42.4725 H         1 UNK         0.0983 
     79 H79        18.4952  -27.1956  -42.6677 H         1 UNK         0.3095 
     80 H80        17.5289  -24.4968  -40.9531 H         1 UNK         0.0454 
     81 H81        19.7652  -23.3843  -41.0055 H         1 UNK         0.0851 
     82 H82        20.5640  -24.9565  -40.9768 H         1 UNK         0.0851 
     83 H83        19.6088  -24.4242  -39.6019 H         1 UNK         0.0851 
     84 H84        19.4111  -25.0670  -43.1610 H         1 UNK         0.2976 
     85 H85        21.5619  -29.1858  -40.1736 H         1 UNK         0.3116 
     86 H86        20.8234  -27.3032  -42.1603 H         1 UNK         0.0646 
     87 H87        21.9705  -28.4724  -44.0624 H         1 UNK         0.0847 
     88 H88        20.5634  -29.3884  -43.5921 H         1 UNK         0.0847 
     89 H89        22.1675  -29.9133  -43.0859 H         1 UNK         0.0847 
     90 H90        22.9914  -26.6223  -43.2218 H         1 UNK         0.3040 
     91 H91        24.6826  -25.6276  -41.2339 H         1 UNK         0.1015 
     92 H92        24.4151  -24.5905  -43.4766 H         1 UNK         0.0786 
     93 H93        25.1939  -25.9775  -44.2409 H         1 UNK         0.0786 
     94 H94        26.1115  -24.9246  -43.1737 H         1 UNK         0.0786 
     95 H95        26.5728  -26.2286  -40.3418 H         1 UNK         0.3172 
     96 H96        28.1627  -27.4868  -39.4781 H         1 UNK         0.0595 
     97 H97        28.5161  -28.7270  -42.2588 H         1 UNK         0.0839 
     98 H98        29.7073  -28.6923  -40.9690 H         1 UNK         0.0839 
     99 H99        29.2197  -27.1950  -41.7417 H         1 UNK         0.0839 
    100 H100       25.3350  -28.6034  -39.6731 H         1 UNK         0.2998 
    101 H101       24.1105  -30.2962  -39.0121 H         1 UNK         0.0822 
    102 H102       26.6185  -31.5738  -37.8037 H         1 UNK         0.0787 
    103 H103       25.6170  -30.3626  -37.0036 H         1 UNK         0.0787 
    104 H104       24.9511  -31.9391  -37.3919 H         1 UNK         0.0787 
    105 H105       25.3517  -30.3259  -41.6802 H         1 UNK         0.3055 
    106 H106       26.1839  -32.8563  -42.5022 H         1 UNK         0.1106 
    107 H107       25.6432  -32.0050  -44.8036 H         1 UNK         0.0828 
    108 H108       24.7438  -30.6676  -44.0987 H         1 UNK         0.0828 
    109 H109       26.4832  -30.7979  -43.8445 H         1 UNK         0.0828 
    110 H110       22.9177  -31.8107  -41.9045 H         1 UNK         0.2931 
    111 H111       21.7839  -34.3356  -43.0168 H         1 UNK         0.0412 
    112 H112       23.1196  -33.6090  -40.1212 H         1 UNK         0.3472 
    113 H113       21.9284  -34.3671  -39.0933 H         1 UNK         0.3472 
    114 H114       19.5779  -33.1720  -42.9404 H         1 UNK         0.0970 
    115 H115       20.3542  -31.7021  -42.4200 H         1 UNK         0.0970 
    116 H116       19.5014  -32.8281  -46.6106 H         1 UNK         0.0612 
    117 H117       18.9265  -33.5945  -45.1568 H         1 UNK         0.0612 
@<TRIPOS>BOND
     1    1    2 1    
     2    1   62 1    
     3    1   63 1    
     4    1   64 1    
     5    2    3 2    
     6    2    4 am   BACKBONE|DICT|INTERRES
     7    4    5 1    
     8    4   65 1    
     9    5    6 1    
    10    5   25 1    
    11    5   66 1    
    12    6    7 1    
    13    6   67 1    
    14    6   68 1    
    15    7    8 1    
    16    8    9 1    
    17    8   69 1    
    18    8   70 1    
    19    9   10 ar   
    20    9   14 ar   
    21   10   11 ar   
    22   10   71 1    
    23   11   12 ar   
    24   11   61 1    
    25   12   13 ar   
    26   12   72 1    
    27   13   14 ar   
    28   13   15 1    
    29   14   73 1    
    30   15   16 1    
    31   15   74 1    
    32   15   75 1    
    33   16   17 1    
    34   17   18 1    
    35   17   76 1    
    36   17   77 1    
    37   18   19 1    
    38   18   27 1    
    39   18   78 1    
    40   19   20 am   BACKBONE|DICT|INTERRES
    41   19   79 1    
    42   20   21 2    
    43   20   22 1    
    44   22   23 1    
    45   22   24 1    
    46   22   80 1    
    47   23   81 1    
    48   23   82 1    
    49   23   83 1    
    50   24   25 am   BACKBONE|DICT|INTERRES
    51   24   84 1    
    52   25   26 2    
    53   27   28 2    
    54   27   29 am   BACKBONE|DICT|INTERRES
    55   29   30 1    
    56   29   85 1    
    57   30   31 1    
    58   30   32 1    
    59   30   86 1    
    60   31   87 1    
    61   31   88 1    
    62   31   89 1    
    63   32   33 2    
    64   32   34 am   BACKBONE|DICT|INTERRES
    65   34   35 1    
    66   34   90 1    
    67   35   36 1    
    68   35   37 1    
    69   35   91 1    
    70   36   92 1    
    71   36   93 1    
    72   36   94 1    
    73   37   38 2    
    74   37   39 am   BACKBONE|DICT|INTERRES
    75   39   40 1    
    76   39   95 1    
    77   40   41 1    
    78   40   42 1    
    79   40   96 1    
    80   41   97 1    
    81   41   98 1    
    82   41   99 1    
    83   42   43 2    
    84   42   44 am   BACKBONE|DICT|INTERRES
    85   44   45 1    
    86   44  100 1    
    87   45   46 1    
    88   45   47 1    
    89   45  101 1    
    90   46  102 1    
    91   46  103 1    
    92   46  104 1    
    93   47   48 2    
    94   47   49 am   BACKBONE|DICT|INTERRES
    95   49   50 1    
    96   49  105 1    
    97   50   51 1    
    98   50   52 1    
    99   50  106 1    
   100   51  107 1    
   101   51  108 1    
   102   51  109 1    
   103   52   53 2    
   104   52   54 am   BACKBONE|DICT|INTERRES
   105   54   55 1    
   106   54  110 1    
   107   55   56 1    
   108   55   59 1    
   109   55  111 1    
   110   56   57 am   BACKBONE|DICT|INTERRES
   111   56   58 2    
   112   57  112 1    
   113   57  113 1    
   114   59   60 1    
   115   59  114 1    
   116   59  115 1    
   117   60   61 1    
   118   61  116 1    
   119   61  117 1    
@<TRIPOS>SUBSTRUCTURE
     1 UNK         1 GROUP             0       ****    0 ROOT    
