@<TRIPOS>MOLECULE
3R8
117   119    1
SMALL
USER_CHARGES


@<TRIPOS>ATOM
      1 CA         14.0654  -24.8033  -41.4307 C.3       0 UNK        -0.2013 
      2 C          14.8592  -25.2850  -42.6360 C.2       0 UNK         0.4866 
      3 O          14.4727  -25.0113  -43.7731 O.2       0 UNK        -0.5176 
      4 N          15.9600  -26.0086  -42.3980 N.am      1 UNK        -0.4884 
      5 CA         16.8703  -26.5105  -43.4322 C.3       1 UNK         0.0853 
      6 C6         17.8332  -27.5891  -42.8700 C.3       10 UNK        -0.0849 
      7 S7         16.9855  -29.1556  -42.4710 S.3       10 UNK        -0.2776 
      8 C8         16.7635  -29.9251  -44.1130 C.3       10 UNK         0.0316 
      9 C9         18.0661  -30.4505  -44.7032 C.ar      10 UNK        -0.0863 
     10 C10        18.4461  -31.7807  -44.5000 C.ar      10 UNK        -0.1009 
     11 C11        19.6247  -32.2784  -45.0654 C.ar      10 UNK        -0.0712 
     12 C12        20.4368  -31.4269  -45.8229 C.ar      10 UNK        -0.0894 
     13 C13        20.0635  -30.0968  -46.0415 C.ar      10 UNK        -0.0745 
     14 C14        18.8687  -29.6228  -45.4938 C.ar      10 UNK        -0.0972 
     15 C15        20.9203  -29.1823  -46.9086 C.3       10 UNK         0.0209 
     16 S16        22.5420  -28.7954  -46.1704 S.3       10 UNK        -0.2568 
     17 C17        22.1167  -27.9282  -44.6245 C.3       10 UNK        -0.0983 
     18 CA         21.9952  -26.3927  -44.8067 C.3       3 UNK         0.0876 
     19 N          20.6819  -26.0323  -45.3408 N.am      3 UNK        -0.4424 
     20 C          20.3354  -24.8307  -45.8201 C.2       2 UNK         0.4918 
     21 O          21.1302  -23.9082  -46.0030 O.2       2 UNK        -0.4875 
     22 CA         18.8443  -24.6240  -46.1512 C.3       2 UNK         0.0481 
     23 CB         18.5983  -24.8362  -47.6537 C.3       2 UNK        -0.1831 
     24 N          17.9601  -25.5121  -45.3861 N.am      2 UNK        -0.4498 
     25 C          17.6748  -25.3657  -44.0826 C.2       1 UNK         0.5027 
     26 O          18.0532  -24.4121  -43.3981 O.2       1 UNK        -0.4969 
     27 C          22.2381  -25.6652  -43.4669 C.2       3 UNK         0.5005 
     28 O          21.2998  -25.4975  -42.6841 O.2       3 UNK        -0.5279 
     29 N          23.4968  -25.2755  -43.2251 N.am      4 UNK        -0.4463 
     30 CA         23.9646  -24.6713  -41.9761 C.3       4 UNK         0.0283 
     31 CB         25.0562  -23.6294  -42.2988 C.3       4 UNK        -0.1875 
     32 C          24.4193  -25.7840  -41.0137 C.2       4 UNK         0.4949 
     33 O          23.5938  -26.5959  -40.5979 O.2       4 UNK        -0.5039 
     34 N          25.7224  -25.8486  -40.7020 N.am      5 UNK        -0.4663 
     35 CA         26.3335  -26.8654  -39.8318 C.3       5 UNK         0.0242 
     36 CB         27.8141  -26.5149  -39.6122 C.3       5 UNK        -0.1982 
     37 C          26.1930  -28.3117  -40.3487 C.2       5 UNK         0.5017 
     38 O          26.2692  -29.2486  -39.5539 O.2       5 UNK        -0.5012 
     39 N          25.9679  -28.4621  -41.6612 N.am      6 UNK        -0.4439 
     40 CA         25.6813  -29.7273  -42.3367 C.3       6 UNK         0.0297 
     41 CB         25.8637  -29.5389  -43.8523 C.3       6 UNK        -0.2006 
     42 C          24.2884  -30.3107  -42.0251 C.2       6 UNK         0.4892 
     43 O          24.0738  -31.4895  -42.3106 O.2       6 UNK        -0.5089 
     44 N          23.3696  -29.5225  -41.4402 N.am      7 UNK        -0.4243 
     45 CA         22.0070  -29.9388  -41.0791 C.3       7 UNK         0.0196 
     46 CB         21.1032  -28.6990  -40.9500 C.3       7 UNK        -0.2007 
     47 C          21.9576  -30.8278  -39.8172 C.2       7 UNK         0.5020 
     48 O          21.1657  -30.5758  -38.9083 O.2       7 UNK        -0.5147 
     49 N          22.7883  -31.8761  -39.7907 N.am      8 UNK        -0.4734 
     50 CA         22.7769  -32.9437  -38.7838 C.3       8 UNK         0.0238 
     51 CB         24.1723  -33.5882  -38.7350 C.3       8 UNK        -0.1912 
     52 C          21.6943  -34.0055  -39.0662 C.2       8 UNK         0.5038 
     53 O          21.4736  -34.8818  -38.2293 O.2       8 UNK        -0.5046 
     54 N          21.0700  -33.9132  -40.2468 N.am      9 UNK        -0.4200 
     55 CA         19.9954  -34.7550  -40.7828 C.3       9 UNK         0.0839 
     56 C          18.7799  -34.8962  -39.8261 C.2       9 UNK         0.5513 
     57 N          18.2145  -36.0902  -39.7138 N.am      9 UNK        -0.7519 
     58 O          18.3183  -33.9260  -39.2291 O.2       9 UNK        -0.4960 
     59 C59        19.5317  -34.2085  -42.1584 C.3       10 UNK        -0.0876 
     60 S60        20.9009  -34.0682  -43.3601 S.3       10 UNK        -0.2414 
     61 C61        19.9967  -33.7464  -44.9044 C.3       10 UNK         0.0169 
     62 H62        14.0176  -23.7147  -41.4241 H         1 UNK         0.0903 
     63 H63        13.0472  -25.1891  -41.4733 H         1 UNK         0.0903 
     64 H64        14.5119  -25.1287  -40.4913 H         1 UNK         0.0903 
     65 H65        16.2369  -26.1955  -41.4448 H         1 UNK         0.3096 
     66 H66        16.2541  -26.9584  -44.2141 H         1 UNK         0.1121 
     67 H67        18.3151  -27.2229  -41.9612 H         1 UNK         0.0849 
     68 H68        18.6557  -27.8012  -43.5504 H         1 UNK         0.0849 
     69 H69        16.0526  -30.7467  -44.0113 H         1 UNK         0.0865 
     70 H70        16.2953  -29.2196  -44.7998 H         1 UNK         0.0865 
     71 H71        17.8121  -32.4351  -43.9180 H         1 UNK         0.1346 
     72 H72        21.3515  -31.8028  -46.2608 H         1 UNK         0.1412 
     73 H73        18.5567  -28.6086  -45.6922 H         1 UNK         0.1426 
     74 H74        20.3994  -28.2503  -47.1312 H         1 UNK         0.0716 
     75 H75        21.0869  -29.6680  -47.8711 H         1 UNK         0.0716 
     76 H76        21.2108  -28.3540  -44.1917 H         1 UNK         0.0695 
     77 H77        22.9137  -28.1708  -43.9206 H         1 UNK         0.0695 
     78 H78        22.7526  -26.0525  -45.5168 H         1 UNK         0.0983 
     79 H79        19.9514  -26.7077  -45.1977 H         1 UNK         0.3095 
     80 H80        18.5905  -23.5900  -45.9079 H         1 UNK         0.0454 
     81 H81        19.2214  -24.1665  -48.2483 H         1 UNK         0.0851 
     82 H82        18.8300  -25.8557  -47.9643 H         1 UNK         0.0851 
     83 H83        17.5615  -24.6299  -47.9199 H         1 UNK         0.0851 
     84 H84        17.5622  -26.2899  -45.8925 H         1 UNK         0.2976 
     85 H85        24.2043  -25.4658  -43.9207 H         1 UNK         0.3116 
     86 H86        23.1407  -24.1459  -41.4883 H         1 UNK         0.0646 
     87 H87        25.4259  -23.1492  -41.3916 H         1 UNK         0.0847 
     88 H88        24.6584  -22.8363  -42.9324 H         1 UNK         0.0847 
     89 H89        25.9086  -24.0658  -42.8210 H         1 UNK         0.0847 
     90 H90        26.3426  -25.1471  -41.0812 H         1 UNK         0.3040 
     91 H91        25.8231  -26.8234  -38.8668 H         1 UNK         0.1015 
     92 H92        27.9265  -25.5318  -39.1545 H         1 UNK         0.0786 
     93 H93        28.3732  -26.5171  -40.5487 H         1 UNK         0.0786 
     94 H94        28.2916  -27.2353  -38.9462 H         1 UNK         0.0786 
     95 H95        25.9396  -27.6265  -42.2260 H         1 UNK         0.3172 
     96 H96        26.4154  -30.4617  -41.9986 H         1 UNK         0.0595 
     97 H97        26.8863  -29.2503  -44.0956 H         1 UNK         0.0839 
     98 H98        25.1961  -28.7763  -44.2530 H         1 UNK         0.0839 
     99 H99        25.6559  -30.4651  -44.3904 H         1 UNK         0.0839 
    100 H100       23.6232  -28.5732  -41.1859 H         1 UNK         0.2998 
    101 H101       21.6103  -30.5392  -41.9014 H         1 UNK         0.0822 
    102 H102       21.3972  -28.0718  -40.1078 H         1 UNK         0.0787 
    103 H103       21.1329  -28.0840  -41.8468 H         1 UNK         0.0787 
    104 H104       20.0627  -28.9879  -40.7950 H         1 UNK         0.0787 
    105 H105       23.4018  -31.9999  -40.5929 H         1 UNK         0.3055 
    106 H106       22.5601  -32.5104  -37.8047 H         1 UNK         0.1106 
    107 H107       24.4376  -34.0494  -39.6872 H         1 UNK         0.0828 
    108 H108       24.9400  -32.8529  -38.4927 H         1 UNK         0.0828 
    109 H109       24.2181  -34.3660  -37.9714 H         1 UNK         0.0828 
    110 H110       21.3594  -33.1630  -40.8550 H         1 UNK         0.2931 
    111 H111       20.4269  -35.7462  -40.9349 H         1 UNK         0.0412 
    112 H112       17.4132  -36.1989  -39.1112 H         1 UNK         0.3472 
    113 H113       18.5797  -36.8892  -40.2094 H         1 UNK         0.3472 
    114 H114       19.0740  -33.2246  -42.0386 H         1 UNK         0.0970 
    115 H115       18.7637  -34.8585  -42.5822 H         1 UNK         0.0970 
    116 H116       20.6236  -34.0610  -45.7401 H         1 UNK         0.0612 
    117 H117       19.1030  -34.3704  -44.9505 H         1 UNK         0.0612 
@<TRIPOS>BOND
     1    1    2 1    
     2    1   62 1    
     3    1   63 1    
     4    1   64 1    
     5    2    3 2    
     6    2    4 am   BACKBONE|DICT|INTERRES
     7    4    5 1    
     8    4   65 1    
     9    5    6 1    
    10    5   25 1    
    11    5   66 1    
    12    6    7 1    
    13    6   67 1    
    14    6   68 1    
    15    7    8 1    
    16    8    9 1    
    17    8   69 1    
    18    8   70 1    
    19    9   10 ar   
    20    9   14 ar   
    21   10   11 ar   
    22   10   71 1    
    23   11   12 ar   
    24   11   61 1    
    25   12   13 ar   
    26   12   72 1    
    27   13   14 ar   
    28   13   15 1    
    29   14   73 1    
    30   15   16 1    
    31   15   74 1    
    32   15   75 1    
    33   16   17 1    
    34   17   18 1    
    35   17   76 1    
    36   17   77 1    
    37   18   19 1    
    38   18   27 1    
    39   18   78 1    
    40   19   20 am   BACKBONE|DICT|INTERRES
    41   19   79 1    
    42   20   21 2    
    43   20   22 1    
    44   22   23 1    
    45   22   24 1    
    46   22   80 1    
    47   23   81 1    
    48   23   82 1    
    49   23   83 1    
    50   24   25 am   BACKBONE|DICT|INTERRES
    51   24   84 1    
    52   25   26 2    
    53   27   28 2    
    54   27   29 am   BACKBONE|DICT|INTERRES
    55   29   30 1    
    56   29   85 1    
    57   30   31 1    
    58   30   32 1    
    59   30   86 1    
    60   31   87 1    
    61   31   88 1    
    62   31   89 1    
    63   32   33 2    
    64   32   34 am   BACKBONE|DICT|INTERRES
    65   34   35 1    
    66   34   90 1    
    67   35   36 1    
    68   35   37 1    
    69   35   91 1    
    70   36   92 1    
    71   36   93 1    
    72   36   94 1    
    73   37   38 2    
    74   37   39 am   BACKBONE|DICT|INTERRES
    75   39   40 1    
    76   39   95 1    
    77   40   41 1    
    78   40   42 1    
    79   40   96 1    
    80   41   97 1    
    81   41   98 1    
    82   41   99 1    
    83   42   43 2    
    84   42   44 am   BACKBONE|DICT|INTERRES
    85   44   45 1    
    86   44  100 1    
    87   45   46 1    
    88   45   47 1    
    89   45  101 1    
    90   46  102 1    
    91   46  103 1    
    92   46  104 1    
    93   47   48 2    
    94   47   49 am   BACKBONE|DICT|INTERRES
    95   49   50 1    
    96   49  105 1    
    97   50   51 1    
    98   50   52 1    
    99   50  106 1    
   100   51  107 1    
   101   51  108 1    
   102   51  109 1    
   103   52   53 2    
   104   52   54 am   BACKBONE|DICT|INTERRES
   105   54   55 1    
   106   54  110 1    
   107   55   56 1    
   108   55   59 1    
   109   55  111 1    
   110   56   57 am   BACKBONE|DICT|INTERRES
   111   56   58 2    
   112   57  112 1    
   113   57  113 1    
   114   59   60 1    
   115   59  114 1    
   116   59  115 1    
   117   60   61 1    
   118   61  116 1    
   119   61  117 1    
@<TRIPOS>SUBSTRUCTURE
     1 UNK         1 GROUP             0       ****    0 ROOT    
