@<TRIPOS>MOLECULE
3R8
117   119    1
SMALL
USER_CHARGES


@<TRIPOS>ATOM
      1 CA         17.3034  -23.1376  -40.2487 C.3       0 UNK        -0.2013 
      2 C          17.4848  -24.2587  -41.2618 C.2       0 UNK         0.4866 
      3 O          17.8477  -25.3679  -40.8735 O.2       0 UNK        -0.5176 
      4 N          17.2138  -23.9680  -42.5427 N.am      1 UNK        -0.4884 
      5 CA         17.3825  -24.8273  -43.7228 C.3       1 UNK         0.0853 
      6 C6         16.7713  -26.2489  -43.5716 C.3       10 UNK        -0.0849 
      7 S7         16.1292  -26.8868  -45.1504 S.3       10 UNK        -0.2776 
      8 C8         15.3764  -28.4604  -44.6162 C.3       10 UNK         0.0316 
      9 C9         16.3803  -29.6050  -44.6308 C.ar      10 UNK        -0.0863 
     10 C10        16.7269  -30.2818  -43.4562 C.ar      10 UNK        -0.1009 
     11 C11        17.6300  -31.3525  -43.4917 C.ar      10 UNK        -0.0712 
     12 C12        18.2023  -31.7247  -44.7135 C.ar      10 UNK        -0.0894 
     13 C13        17.8798  -31.0412  -45.8882 C.ar      10 UNK        -0.0745 
     14 C14        16.9456  -30.0047  -45.8430 C.ar      10 UNK        -0.0972 
     15 C15        18.5395  -31.4162  -47.2080 C.3       10 UNK         0.0209 
     16 S16        20.2267  -30.7368  -47.3567 S.3       10 UNK        -0.2568 
     17 C17        19.9355  -28.9290  -47.3268 C.3       10 UNK        -0.0983 
     18 CA         20.9561  -28.0652  -46.5346 C.3       3 UNK         0.0876 
     19 N          20.4603  -26.6904  -46.4150 N.am      3 UNK        -0.4424 
     20 C          21.2190  -25.6178  -46.1568 C.2       2 UNK         0.4918 
     21 O          22.4450  -25.6527  -46.0524 O.2       2 UNK        -0.4875 
     22 CA         20.4807  -24.2787  -45.9719 C.3       2 UNK         0.0481 
     23 CB         20.4059  -23.5219  -47.3075 C.3       2 UNK        -0.1831 
     24 N          19.1296  -24.4047  -45.4055 N.am      2 UNK        -0.4498 
     25 C          18.8589  -24.8583  -44.1718 C.2       1 UNK         0.5027 
     26 O          19.7250  -25.2890  -43.4105 O.2       1 UNK        -0.4969 
     27 C          21.3692  -28.6405  -45.1562 C.2       3 UNK         0.5005 
     28 O          22.3028  -29.4427  -45.0912 O.2       3 UNK        -0.5279 
     29 N          20.7407  -28.1733  -44.0664 N.am      4 UNK        -0.4463 
     30 CA         21.0380  -28.5626  -42.6848 C.3       4 UNK         0.0283 
     31 CB         19.7730  -28.3810  -41.8271 C.3       4 UNK        -0.1875 
     32 C          22.2452  -27.7972  -42.1086 C.2       4 UNK         0.4949 
     33 O          22.1776  -27.2928  -40.9856 O.2       4 UNK        -0.5039 
     34 N          23.3383  -27.7280  -42.8802 N.am      5 UNK        -0.4663 
     35 CA         24.6002  -27.0741  -42.5277 C.3       5 UNK         0.0242 
     36 CB         25.5703  -27.1788  -43.7155 C.3       5 UNK        -0.1982 
     37 C          25.2042  -27.6939  -41.2580 C.2       5 UNK         0.5017 
     38 O          25.5578  -28.8738  -41.2740 O.2       5 UNK        -0.5012 
     39 N          25.2281  -26.9132  -40.1672 N.am      6 UNK        -0.4439 
     40 CA         25.6170  -27.3105  -38.8050 C.3       6 UNK         0.0297 
     41 CB         27.1340  -27.5895  -38.7379 C.3       6 UNK        -0.2006 
     42 C          24.7805  -28.4764  -38.2276 C.2       6 UNK         0.4892 
     43 O          25.2632  -29.1856  -37.3433 O.2       6 UNK        -0.5089 
     44 N          23.5560  -28.6639  -38.7497 N.am      7 UNK        -0.4243 
     45 CA         22.6301  -29.7719  -38.4833 C.3       7 UNK         0.0196 
     46 CB         22.1027  -29.7143  -37.0341 C.3       7 UNK        -0.2007 
     47 C          23.1951  -31.1594  -38.8585 C.2       7 UNK         0.5020 
     48 O          22.7674  -32.1643  -38.2874 O.2       7 UNK        -0.5147 
     49 N          24.1249  -31.2103  -39.8276 N.am      8 UNK        -0.4734 
     50 CA         24.8084  -32.4326  -40.2766 C.3       8 UNK         0.0238 
     51 CB         25.9397  -32.0559  -41.2462 C.3       8 UNK        -0.1912 
     52 C          23.8891  -33.4926  -40.9118 C.2       8 UNK         0.5038 
     53 O          24.2831  -34.6573  -40.9887 O.2       8 UNK        -0.5046 
     54 N          22.6892  -33.0818  -41.3397 N.am      9 UNK        -0.4200 
     55 CA         21.6107  -33.9636  -41.8025 C.3       9 UNK         0.0839 
     56 C          20.9504  -34.8312  -40.6880 C.2       9 UNK         0.5513 
     57 N          21.1811  -34.5655  -39.4062 N.am      9 UNK        -0.7519 
     58 O          20.2231  -35.7713  -40.9977 O.2       9 UNK        -0.4960 
     59 C59        20.5654  -33.1782  -42.6354 C.3       10 UNK        -0.0876 
     60 S60        19.6864  -31.8880  -41.6809 S.3       10 UNK        -0.2414 
     61 C61        17.9601  -32.1213  -42.2161 C.3       10 UNK         0.0169 
     62 H62        16.5693  -23.4267  -39.4971 H         1 UNK         0.0903 
     63 H63        18.2469  -22.9349  -39.7426 H         1 UNK         0.0903 
     64 H64        16.9640  -22.2130  -40.7154 H         1 UNK         0.0903 
     65 H65        16.9242  -23.0236  -42.7594 H         1 UNK         0.3096 
     66 H66        16.8161  -24.3078  -44.4980 H         1 UNK         0.1121 
     67 H67        17.4834  -26.9587  -43.1469 H         1 UNK         0.0849 
     68 H68        15.9312  -26.2182  -42.8760 H         1 UNK         0.0849 
     69 H69        14.5596  -28.7048  -45.2969 H         1 UNK         0.0865 
     70 H70        14.9230  -28.3437  -43.6306 H         1 UNK         0.0865 
     71 H71        16.2828  -29.9847  -42.5159 H         1 UNK         0.1346 
     72 H72        18.9066  -32.5418  -44.7569 H         1 UNK         0.1412 
     73 H73        16.6752  -29.4840  -46.7518 H         1 UNK         0.1426 
     74 H74        18.5882  -32.5026  -47.2941 H         1 UNK         0.0716 
     75 H75        17.9393  -31.0710  -48.0514 H         1 UNK         0.0716 
     76 H76        18.9386  -28.7354  -46.9389 H         1 UNK         0.0695 
     77 H77        19.9070  -28.5881  -48.3628 H         1 UNK         0.0695 
     78 H78        21.8728  -28.0336  -47.1282 H         1 UNK         0.0983 
     79 H79        19.4628  -26.5599  -46.4982 H         1 UNK         0.3095 
     80 H80        21.0718  -23.6775  -45.2777 H         1 UNK         0.0454 
     81 H81        19.9804  -22.5267  -47.1779 H         1 UNK         0.0851 
     82 H82        19.8006  -24.0543  -48.0422 H         1 UNK         0.0851 
     83 H83        21.3998  -23.3916  -47.7384 H         1 UNK         0.0851 
     84 H84        18.3686  -24.0756  -45.9833 H         1 UNK         0.2976 
     85 H85        20.0752  -27.4202  -44.1756 H         1 UNK         0.3116 
     86 H86        21.2993  -29.6220  -42.6715 H         1 UNK         0.0646 
     87 H87        19.9207  -28.7804  -40.8233 H         1 UNK         0.0847 
     88 H88        18.9206  -28.9034  -42.2584 H         1 UNK         0.0847 
     89 H89        19.5053  -27.3301  -41.7196 H         1 UNK         0.0847 
     90 H90        23.3086  -28.2217  -43.7656 H         1 UNK         0.3040 
     91 H91        24.3900  -26.0175  -42.3492 H         1 UNK         0.1015 
     92 H92        25.1618  -26.6958  -44.6038 H         1 UNK         0.0786 
     93 H93        25.7884  -28.2173  -43.9689 H         1 UNK         0.0786 
     94 H94        26.5195  -26.6917  -43.4882 H         1 UNK         0.0786 
     95 H95        24.8676  -25.9721  -40.2533 H         1 UNK         0.3172 
     96 H96        25.4107  -26.4498  -38.1672 H         1 UNK         0.0595 
     97 H97        27.4052  -28.4846  -39.2988 H         1 UNK         0.0839 
     98 H98        27.4609  -27.7409  -37.7084 H         1 UNK         0.0839 
     99 H99        27.7101  -26.7553  -39.1381 H         1 UNK         0.0839 
    100 H100       23.2475  -28.0202  -39.4739 H         1 UNK         0.2998 
    101 H101       21.7783  -29.6127  -39.1462 H         1 UNK         0.0822 
    102 H102       22.8858  -29.9366  -36.3087 H         1 UNK         0.0787 
    103 H103       21.6957  -28.7309  -36.7990 H         1 UNK         0.0787 
    104 H104       21.3025  -30.4392  -36.8794 H         1 UNK         0.0787 
    105 H105       24.4483  -30.3417  -40.2421 H         1 UNK         0.3055 
    106 H106       25.2564  -32.8964  -39.3950 H         1 UNK         0.1106 
    107 H107       26.4863  -32.9403  -41.5766 H         1 UNK         0.0828 
    108 H108       25.5566  -31.5565  -42.1371 H         1 UNK         0.0828 
    109 H109       26.6618  -31.3898  -40.7735 H         1 UNK         0.0828 
    110 H110       22.4448  -32.1110  -41.2183 H         1 UNK         0.2931 
    111 H111       22.0725  -34.6785  -42.4864 H         1 UNK         0.0412 
    112 H112       21.7626  -33.7817  -39.1323 H         1 UNK         0.3472 
    113 H113       20.7495  -35.1393  -38.6994 H         1 UNK         0.3472 
    114 H114       21.0563  -32.6962  -43.4826 H         1 UNK         0.0970 
    115 H115       19.8485  -33.8768  -43.0694 H         1 UNK         0.0970 
    116 H116       17.7470  -33.1818  -42.3557 H         1 UNK         0.0612 
    117 H117       17.3119  -31.7919  -41.4028 H         1 UNK         0.0612 
@<TRIPOS>BOND
     1    1    2 1    
     2    1   62 1    
     3    1   63 1    
     4    1   64 1    
     5    2    3 2    
     6    2    4 am   BACKBONE|DICT|INTERRES
     7    4    5 1    
     8    4   65 1    
     9    5    6 1    
    10    5   25 1    
    11    5   66 1    
    12    6    7 1    
    13    6   67 1    
    14    6   68 1    
    15    7    8 1    
    16    8    9 1    
    17    8   69 1    
    18    8   70 1    
    19    9   10 ar   
    20    9   14 ar   
    21   10   11 ar   
    22   10   71 1    
    23   11   12 ar   
    24   11   61 1    
    25   12   13 ar   
    26   12   72 1    
    27   13   14 ar   
    28   13   15 1    
    29   14   73 1    
    30   15   16 1    
    31   15   74 1    
    32   15   75 1    
    33   16   17 1    
    34   17   18 1    
    35   17   76 1    
    36   17   77 1    
    37   18   19 1    
    38   18   27 1    
    39   18   78 1    
    40   19   20 am   BACKBONE|DICT|INTERRES
    41   19   79 1    
    42   20   21 2    
    43   20   22 1    
    44   22   23 1    
    45   22   24 1    
    46   22   80 1    
    47   23   81 1    
    48   23   82 1    
    49   23   83 1    
    50   24   25 am   BACKBONE|DICT|INTERRES
    51   24   84 1    
    52   25   26 2    
    53   27   28 2    
    54   27   29 am   BACKBONE|DICT|INTERRES
    55   29   30 1    
    56   29   85 1    
    57   30   31 1    
    58   30   32 1    
    59   30   86 1    
    60   31   87 1    
    61   31   88 1    
    62   31   89 1    
    63   32   33 2    
    64   32   34 am   BACKBONE|DICT|INTERRES
    65   34   35 1    
    66   34   90 1    
    67   35   36 1    
    68   35   37 1    
    69   35   91 1    
    70   36   92 1    
    71   36   93 1    
    72   36   94 1    
    73   37   38 2    
    74   37   39 am   BACKBONE|DICT|INTERRES
    75   39   40 1    
    76   39   95 1    
    77   40   41 1    
    78   40   42 1    
    79   40   96 1    
    80   41   97 1    
    81   41   98 1    
    82   41   99 1    
    83   42   43 2    
    84   42   44 am   BACKBONE|DICT|INTERRES
    85   44   45 1    
    86   44  100 1    
    87   45   46 1    
    88   45   47 1    
    89   45  101 1    
    90   46  102 1    
    91   46  103 1    
    92   46  104 1    
    93   47   48 2    
    94   47   49 am   BACKBONE|DICT|INTERRES
    95   49   50 1    
    96   49  105 1    
    97   50   51 1    
    98   50   52 1    
    99   50  106 1    
   100   51  107 1    
   101   51  108 1    
   102   51  109 1    
   103   52   53 2    
   104   52   54 am   BACKBONE|DICT|INTERRES
   105   54   55 1    
   106   54  110 1    
   107   55   56 1    
   108   55   59 1    
   109   55  111 1    
   110   56   57 am   BACKBONE|DICT|INTERRES
   111   56   58 2    
   112   57  112 1    
   113   57  113 1    
   114   59   60 1    
   115   59  114 1    
   116   59  115 1    
   117   60   61 1    
   118   61  116 1    
   119   61  117 1    
@<TRIPOS>SUBSTRUCTURE
     1 UNK         1 GROUP             0       ****    0 ROOT    
