@<TRIPOS>MOLECULE
3R8
117   119    1
SMALL
USER_CHARGES


@<TRIPOS>ATOM
      1 CA         20.9139  -32.4252  -46.5577 C.3       0 UNK        -0.2013 
      2 C          20.0169  -31.9316  -47.6891 C.2       0 UNK         0.4866 
      3 O          20.0496  -32.5093  -48.7739 O.2       0 UNK        -0.5176 
      4 N          19.1921  -30.8915  -47.4991 N.am      1 UNK        -0.4884 
      5 CA         19.0513  -30.0371  -46.3106 C.3       1 UNK         0.0853 
      6 C6         17.8718  -29.0517  -46.4839 C.3       10 UNK        -0.0849 
      7 S7         16.2370  -29.8683  -46.5514 S.3       10 UNK        -0.2776 
      8 C8         16.0044  -30.5498  -44.8645 C.3       10 UNK         0.0316 
      9 C9         16.4095  -29.6088  -43.7314 C.ar      10 UNK        -0.0863 
     10 C10        17.1158  -30.1093  -42.6335 C.ar      10 UNK        -0.1009 
     11 C11        17.5465  -29.2588  -41.6091 C.ar      10 UNK        -0.0712 
     12 C12        17.2563  -27.8931  -41.6888 C.ar      10 UNK        -0.0894 
     13 C13        16.5417  -27.3803  -42.7749 C.ar      10 UNK        -0.0745 
     14 C14        16.0913  -28.2483  -43.7717 C.ar      10 UNK        -0.0972 
     15 C15        16.2702  -25.8899  -42.9048 C.3       10 UNK         0.0209 
     16 S16        17.3152  -25.1651  -44.2106 S.3       10 UNK        -0.2568 
     17 C17        18.6003  -24.2919  -43.2568 C.3       10 UNK        -0.0983 
     18 CA         19.6244  -25.2126  -42.5466 C.3       3 UNK         0.0876 
     19 N          20.2339  -26.1982  -43.4490 N.am      3 UNK        -0.4424 
     20 C          21.1332  -27.1260  -43.0908 C.2       2 UNK         0.4918 
     21 O          21.5590  -27.2661  -41.9422 O.2       2 UNK        -0.4875 
     22 CA         21.6087  -28.0715  -44.2028 C.3       2 UNK         0.0481 
     23 CB         22.7165  -29.0370  -43.7375 C.3       2 UNK        -0.1831 
     24 N          20.4693  -28.8319  -44.7149 N.am      2 UNK        -0.4498 
     25 C          20.3384  -29.2487  -45.9815 C.2       1 UNK         0.5027 
     26 O          21.1667  -29.0214  -46.8664 O.2       1 UNK        -0.4969 
     27 C          20.6840  -24.3544  -41.8266 C.2       3 UNK         0.5005 
     28 O          21.6428  -23.9121  -42.4652 O.2       3 UNK        -0.5279 
     29 N          20.4998  -24.1564  -40.5126 N.am      4 UNK        -0.4463 
     30 CA         21.3641  -23.4455  -39.5556 C.3       4 UNK         0.0283 
     31 CB         21.5455  -21.9645  -39.9426 C.3       4 UNK        -0.1875 
     32 C          22.7257  -24.1179  -39.2897 C.2       4 UNK         0.4949 
     33 O          23.1686  -24.1333  -38.1413 O.2       4 UNK        -0.5039 
     34 N          23.3611  -24.6610  -40.3346 N.am      5 UNK        -0.4663 
     35 CA         24.6376  -25.3730  -40.2765 C.3       5 UNK         0.0242 
     36 CB         25.1708  -25.5740  -41.7050 C.3       5 UNK        -0.1982 
     37 C          24.5423  -26.7214  -39.5458 C.2       5 UNK         0.5017 
     38 O          25.4584  -27.0604  -38.7964 O.2       5 UNK        -0.5012 
     39 N          23.4516  -27.4653  -39.7958 N.am      6 UNK        -0.4439 
     40 CA         23.1602  -28.8128  -39.2856 C.3       6 UNK         0.0297 
     41 CB         22.9107  -28.7844  -37.7634 C.3       6 UNK        -0.2006 
     42 C          24.2092  -29.8650  -39.7056 C.2       6 UNK         0.4892 
     43 O          24.4661  -30.8154  -38.9652 O.2       6 UNK        -0.5089 
     44 N          24.8073  -29.6622  -40.8879 N.am      7 UNK        -0.4243 
     45 CA         25.9252  -30.4453  -41.4198 C.3       7 UNK         0.0196 
     46 CB         26.6018  -29.6383  -42.5408 C.3       7 UNK        -0.2007 
     47 C          25.5415  -31.8464  -41.9273 C.2       7 UNK         0.5020 
     48 O          26.4308  -32.6841  -42.0835 O.2       7 UNK        -0.5147 
     49 N          24.2507  -32.0816  -42.1910 N.am      8 UNK        -0.4734 
     50 CA         23.7284  -33.3564  -42.6799 C.3       8 UNK         0.0238 
     51 CB         23.9484  -33.4947  -44.2008 C.3       8 UNK        -0.1912 
     52 C          22.2560  -33.5022  -42.2916 C.2       8 UNK         0.5038 
     53 O          21.9273  -34.3815  -41.4959 O.2       8 UNK        -0.5046 
     54 N          21.4061  -32.6339  -42.8598 N.am      9 UNK        -0.4200 
     55 CA         19.9425  -32.5934  -42.6682 C.3       9 UNK         0.0839 
     56 C          19.1573  -33.8275  -43.2129 C.2       9 UNK         0.5513 
     57 N          19.7733  -34.7399  -43.9541 N.am      9 UNK        -0.7519 
     58 O          17.9514  -33.9307  -43.0064 O.2       9 UNK        -0.4960 
     59 C59        19.5394  -32.2199  -41.2130 C.3       10 UNK        -0.0876 
     60 S60        19.9391  -30.4810  -40.8300 S.3       10 UNK        -0.2414 
     61 C61        18.3007  -29.8044  -40.4012 C.3       10 UNK         0.0169 
     62 H62        20.4102  -32.3769  -45.5968 H         1 UNK         0.0903 
     63 H63        21.1960  -33.4646  -46.7250 H         1 UNK         0.0903 
     64 H64        21.8275  -31.8332  -46.5125 H         1 UNK         0.0903 
     65 H65        18.6125  -30.6115  -48.2773 H         1 UNK         0.3096 
     66 H66        18.8372  -30.6833  -45.4587 H         1 UNK         0.1121 
     67 H67        17.8596  -28.3003  -45.6945 H         1 UNK         0.0849 
     68 H68        17.9950  -28.4812  -47.4068 H         1 UNK         0.0849 
     69 H69        14.9540  -30.8151  -44.7378 H         1 UNK         0.0865 
     70 H70        16.5615  -31.4858  -44.7973 H         1 UNK         0.0865 
     71 H71        17.3287  -31.1662  -42.5792 H         1 UNK         0.1346 
     72 H72        17.5831  -27.2311  -40.8998 H         1 UNK         0.1412 
     73 H73        15.5377  -27.8499  -44.6114 H         1 UNK         0.1426 
     74 H74        16.4271  -25.3746  -41.9561 H         1 UNK         0.0716 
     75 H75        15.2221  -25.7367  -43.1662 H         1 UNK         0.0716 
     76 H76        18.1038  -23.6413  -42.5339 H         1 UNK         0.0695 
     77 H77        19.1148  -23.6260  -43.9528 H         1 UNK         0.0695 
     78 H78        19.0966  -25.7846  -41.7851 H         1 UNK         0.0983 
     79 H79        19.9383  -26.1504  -44.4126 H         1 UNK         0.3095 
     80 H80        22.0160  -27.4391  -44.9945 H         1 UNK         0.0454 
     81 H81        22.3755  -29.6683  -42.9168 H         1 UNK         0.0851 
     82 H82        23.5868  -28.4809  -43.3896 H         1 UNK         0.0851 
     83 H83        23.0519  -29.6832  -44.5486 H         1 UNK         0.0851 
     84 H84        19.7281  -29.0039  -44.0473 H         1 UNK         0.2976 
     85 H85        19.6901  -24.5888  -40.0889 H         1 UNK         0.3116 
     86 H86        20.8226  -23.4663  -38.6082 H         1 UNK         0.0646 
     87 H87        22.1078  -21.8479  -40.8694 H         1 UNK         0.0847 
     88 H88        22.0910  -21.4257  -39.1667 H         1 UNK         0.0847 
     89 H89        20.5846  -21.4658  -40.0678 H         1 UNK         0.0847 
     90 H90        22.9207  -24.5576  -41.2458 H         1 UNK         0.3040 
     91 H91        25.3476  -24.7499  -39.7278 H         1 UNK         0.1015 
     92 H92        25.3376  -24.6181  -42.2019 H         1 UNK         0.0786 
     93 H93        24.4786  -26.1520  -42.3188 H         1 UNK         0.0786 
     94 H94        26.1244  -26.1040  -41.6965 H         1 UNK         0.0786 
     95 H95        22.7716  -27.1105  -40.4656 H         1 UNK         0.3172 
     96 H96        22.2284  -29.1115  -39.7632 H         1 UNK         0.0595 
     97 H97        23.8195  -28.5506  -37.2081 H         1 UNK         0.0839 
     98 H98        22.5521  -29.7512  -37.4081 H         1 UNK         0.0839 
     99 H99        22.1558  -28.0437  -37.4997 H         1 UNK         0.0839 
    100 H100       24.5354  -28.8454  -41.4132 H         1 UNK         0.2998 
    101 H101       26.6506  -30.5833  -40.6149 H         1 UNK         0.0822 
    102 H102       27.4762  -30.1644  -42.9267 H         1 UNK         0.0787 
    103 H103       25.9287  -29.4691  -43.3820 H         1 UNK         0.0787 
    104 H104       26.9448  -28.6677  -42.1815 H         1 UNK         0.0787 
    105 H105       23.5746  -31.3681  -41.9601 H         1 UNK         0.3055 
    106 H106       24.2641  -34.1699  -42.1839 H         1 UNK         0.1106 
    107 H107       23.4746  -34.3981  -44.5873 H         1 UNK         0.0828 
    108 H108       25.0100  -33.5661  -44.4380 H         1 UNK         0.0828 
    109 H109       23.5463  -32.6465  -44.7545 H         1 UNK         0.0828 
    110 H110       21.7772  -31.9606  -43.5112 H         1 UNK         0.2931 
    111 H111       19.6048  -31.7797  -43.3104 H         1 UNK         0.0412 
    112 H112       19.2432  -35.5199  -44.3101 H         1 UNK         0.3472 
    113 H113       20.7635  -34.6859  -44.1233 H         1 UNK         0.3472 
    114 H114       18.4760  -32.3848  -41.0378 H         1 UNK         0.0970 
    115 H115       20.0431  -32.8612  -40.4893 H         1 UNK         0.0970 
    116 H116       17.6952  -30.5585  -39.8971 H         1 UNK         0.0612 
    117 H117       18.4557  -29.0123  -39.6672 H         1 UNK         0.0612 
@<TRIPOS>BOND
     1    1    2 1    
     2    1   62 1    
     3    1   63 1    
     4    1   64 1    
     5    2    3 2    
     6    2    4 am   BACKBONE|DICT|INTERRES
     7    4    5 1    
     8    4   65 1    
     9    5    6 1    
    10    5   25 1    
    11    5   66 1    
    12    6    7 1    
    13    6   67 1    
    14    6   68 1    
    15    7    8 1    
    16    8    9 1    
    17    8   69 1    
    18    8   70 1    
    19    9   10 ar   
    20    9   14 ar   
    21   10   11 ar   
    22   10   71 1    
    23   11   12 ar   
    24   11   61 1    
    25   12   13 ar   
    26   12   72 1    
    27   13   14 ar   
    28   13   15 1    
    29   14   73 1    
    30   15   16 1    
    31   15   74 1    
    32   15   75 1    
    33   16   17 1    
    34   17   18 1    
    35   17   76 1    
    36   17   77 1    
    37   18   19 1    
    38   18   27 1    
    39   18   78 1    
    40   19   20 am   BACKBONE|DICT|INTERRES
    41   19   79 1    
    42   20   21 2    
    43   20   22 1    
    44   22   23 1    
    45   22   24 1    
    46   22   80 1    
    47   23   81 1    
    48   23   82 1    
    49   23   83 1    
    50   24   25 am   BACKBONE|DICT|INTERRES
    51   24   84 1    
    52   25   26 2    
    53   27   28 2    
    54   27   29 am   BACKBONE|DICT|INTERRES
    55   29   30 1    
    56   29   85 1    
    57   30   31 1    
    58   30   32 1    
    59   30   86 1    
    60   31   87 1    
    61   31   88 1    
    62   31   89 1    
    63   32   33 2    
    64   32   34 am   BACKBONE|DICT|INTERRES
    65   34   35 1    
    66   34   90 1    
    67   35   36 1    
    68   35   37 1    
    69   35   91 1    
    70   36   92 1    
    71   36   93 1    
    72   36   94 1    
    73   37   38 2    
    74   37   39 am   BACKBONE|DICT|INTERRES
    75   39   40 1    
    76   39   95 1    
    77   40   41 1    
    78   40   42 1    
    79   40   96 1    
    80   41   97 1    
    81   41   98 1    
    82   41   99 1    
    83   42   43 2    
    84   42   44 am   BACKBONE|DICT|INTERRES
    85   44   45 1    
    86   44  100 1    
    87   45   46 1    
    88   45   47 1    
    89   45  101 1    
    90   46  102 1    
    91   46  103 1    
    92   46  104 1    
    93   47   48 2    
    94   47   49 am   BACKBONE|DICT|INTERRES
    95   49   50 1    
    96   49  105 1    
    97   50   51 1    
    98   50   52 1    
    99   50  106 1    
   100   51  107 1    
   101   51  108 1    
   102   51  109 1    
   103   52   53 2    
   104   52   54 am   BACKBONE|DICT|INTERRES
   105   54   55 1    
   106   54  110 1    
   107   55   56 1    
   108   55   59 1    
   109   55  111 1    
   110   56   57 am   BACKBONE|DICT|INTERRES
   111   56   58 2    
   112   57  112 1    
   113   57  113 1    
   114   59   60 1    
   115   59  114 1    
   116   59  115 1    
   117   60   61 1    
   118   61  116 1    
   119   61  117 1    
@<TRIPOS>SUBSTRUCTURE
     1 UNK         1 GROUP             0       ****    0 ROOT    
