@<TRIPOS>MOLECULE
3R8
117   119    1
SMALL
USER_CHARGES


@<TRIPOS>ATOM
      1 CA         18.7580  -27.8540  -40.8388 C.3       0 UNK        -0.2013 
      2 C          18.5392  -27.1399  -42.1613 C.2       0 UNK         0.4866 
      3 O          19.3547  -27.2831  -43.0725 O.2       0 UNK        -0.5176 
      4 N          17.4442  -26.3714  -42.2653 N.am      1 UNK        -0.4884 
      5 CA         16.9865  -25.6465  -43.4610 C.3       1 UNK         0.0853 
      6 C6         16.4224  -26.6041  -44.5513 C.3       10 UNK        -0.0849 
      7 S7         14.9960  -27.5633  -43.9359 S.3       10 UNK        -0.2776 
      8 C8         14.9189  -28.9417  -45.1258 C.3       10 UNK         0.0316 
      9 C9         16.0894  -29.9071  -44.9851 C.ar      10 UNK        -0.0863 
     10 C10        16.1752  -30.7559  -43.8765 C.ar      10 UNK        -0.1009 
     11 C11        17.2360  -31.6590  -43.7554 C.ar      10 UNK        -0.0712 
     12 C12        18.2099  -31.7161  -44.7565 C.ar      10 UNK        -0.0894 
     13 C13        18.1440  -30.8642  -45.8637 C.ar      10 UNK        -0.0745 
     14 C14        17.0766  -29.9668  -45.9741 C.ar      10 UNK        -0.0972 
     15 C15        19.2337  -30.8880  -46.9330 C.3       10 UNK         0.0209 
     16 S16        20.9226  -30.7016  -46.2583 S.3       10 UNK        -0.2568 
     17 C17        20.7756  -29.1899  -45.2484 C.3       10 UNK        -0.0983 
     18 CA         21.4661  -27.9527  -45.8731 C.3       3 UNK         0.0876 
     19 N          20.7641  -26.7257  -45.4921 N.am      3 UNK        -0.4424 
     20 C          20.8493  -25.5507  -46.1325 C.2       2 UNK         0.4918 
     21 O          21.5816  -25.3569  -47.1035 O.2       2 UNK        -0.4875 
     22 CA         19.9271  -24.4227  -45.6299 C.3       2 UNK         0.0481 
     23 CB         19.6099  -23.3768  -46.7150 C.3       2 UNK        -0.1831 
     24 N          18.6822  -25.0008  -45.1246 N.am      2 UNK        -0.4498 
     25 C          18.0910  -24.6883  -43.9657 C.2       1 UNK         0.5027 
     26 O          18.4126  -23.7228  -43.2697 O.2       1 UNK        -0.4969 
     27 C          22.9594  -27.8853  -45.5020 C.2       3 UNK         0.5005 
     28 O          23.8144  -28.1930  -46.3347 O.2       3 UNK        -0.5279 
     29 N          23.2409  -27.4587  -44.2654 N.am      4 UNK        -0.4463 
     30 CA         24.5708  -27.2998  -43.6876 C.3       4 UNK         0.0283 
     31 CB         25.1813  -28.6778  -43.3605 C.3       4 UNK        -0.1875 
     32 C          24.4373  -26.4622  -42.4135 C.2       4 UNK         0.4949 
     33 O          23.3670  -26.4531  -41.8007 O.2       4 UNK        -0.5039 
     34 N          25.5367  -25.8199  -41.9979 N.am      5 UNK        -0.4663 
     35 CA         25.6202  -25.0438  -40.7517 C.3       5 UNK         0.0242 
     36 CB         26.9452  -24.2651  -40.7239 C.3       5 UNK        -0.1982 
     37 C          25.4746  -25.9078  -39.4842 C.2       5 UNK         0.5017 
     38 O          24.9812  -25.4189  -38.4683 O.2       5 UNK        -0.5012 
     39 N          25.8750  -27.1821  -39.5861 N.am      6 UNK        -0.4439 
     40 CA         25.7149  -28.2158  -38.5607 C.3       6 UNK         0.0297 
     41 CB         26.9362  -29.1518  -38.6170 C.3       6 UNK        -0.2006 
     42 C          24.4010  -29.0109  -38.7154 C.2       6 UNK         0.4892 
     43 O          24.2618  -30.0563  -38.0780 O.2       6 UNK        -0.5089 
     44 N          23.4810  -28.5418  -39.5748 N.am      7 UNK        -0.4243 
     45 CA         22.2005  -29.1399  -39.9788 C.3       7 UNK         0.0196 
     46 CB         21.2595  -29.3750  -38.7785 C.3       7 UNK        -0.2007 
     47 C          22.3552  -30.4093  -40.8307 C.2       7 UNK         0.5020 
     48 O          21.7903  -30.4716  -41.9193 O.2       7 UNK        -0.5147 
     49 N          23.1192  -31.3872  -40.3250 N.am      8 UNK        -0.4734 
     50 CA         23.4486  -32.6834  -40.9378 C.3       8 UNK         0.0238 
     51 CB         24.2654  -32.4822  -42.2332 C.3       8 UNK        -0.1912 
     52 C          22.2415  -33.6250  -41.1458 C.2       8 UNK         0.5038 
     53 O          22.3589  -34.5992  -41.8914 O.2       8 UNK        -0.5046 
     54 N          21.1186  -33.3440  -40.4713 N.am      9 UNK        -0.4200 
     55 CA         19.8795  -34.1387  -40.5197 C.3       9 UNK         0.0839 
     56 C          19.9200  -35.4474  -39.6780 C.2       9 UNK         0.5513 
     57 N          20.9298  -35.6789  -38.8473 N.am      9 UNK        -0.7519 
     58 O          19.0174  -36.2734  -39.7869 O.2       9 UNK        -0.4960 
     59 C59        18.6313  -33.2869  -40.1630 C.3       10 UNK        -0.0876 
     60 S60        18.4190  -31.8539  -41.2715 S.3       10 UNK        -0.2414 
     61 C61        17.3393  -32.5736  -42.5456 C.3       10 UNK         0.0169 
     62 H62        19.1088  -28.8687  -41.0246 H         1 UNK         0.0903 
     63 H63        19.5095  -27.3297  -40.2499 H         1 UNK         0.0903 
     64 H64        17.8409  -27.9170  -40.2536 H         1 UNK         0.0903 
     65 H65        16.8384  -26.2803  -41.4618 H         1 UNK         0.3096 
     66 H66        16.1690  -25.0000  -43.1370 H         1 UNK         0.1121 
     67 H67        17.1931  -27.2991  -44.8877 H         1 UNK         0.0849 
     68 H68        16.0917  -26.0442  -45.4282 H         1 UNK         0.0849 
     69 H69        13.9882  -29.4886  -44.9677 H         1 UNK         0.0865 
     70 H70        14.8630  -28.5394  -46.1387 H         1 UNK         0.0865 
     71 H71        15.4186  -30.7075  -43.1051 H         1 UNK         0.1346 
     72 H72        19.0375  -32.4056  -44.6596 H         1 UNK         0.1412 
     73 H73        17.0170  -29.3077  -46.8296 H         1 UNK         0.1426 
     74 H74        19.0702  -30.0978  -47.6675 H         1 UNK         0.0716 
     75 H75        19.1739  -31.8312  -47.4772 H         1 UNK         0.0716 
     76 H76        21.1529  -29.4015  -44.2467 H         1 UNK         0.0695 
     77 H77        19.7180  -28.9774  -45.0989 H         1 UNK         0.0695 
     78 H78        21.4007  -28.0322  -46.9608 H         1 UNK         0.0983 
     79 H79        20.1796  -26.7987  -44.6598 H         1 UNK         0.3095 
     80 H80        20.4652  -23.9278  -44.8189 H         1 UNK         0.0454 
     81 H81        18.9628  -22.5897  -46.3282 H         1 UNK         0.0851 
     82 H82        19.1131  -23.8275  -47.5748 H         1 UNK         0.0851 
     83 H83        20.5200  -22.8964  -47.0763 H         1 UNK         0.0851 
     84 H84        18.3536  -25.8160  -45.6229 H         1 UNK         0.2976 
     85 H85        22.4860  -27.1977  -43.6408 H         1 UNK         0.3116 
     86 H86        25.2064  -26.7670  -44.3979 H         1 UNK         0.0646 
     87 H87        25.3018  -29.2863  -44.2566 H         1 UNK         0.0847 
     88 H88        24.5574  -29.2375  -42.6626 H         1 UNK         0.0847 
     89 H89        26.1691  -28.5770  -42.9098 H         1 UNK         0.0847 
     90 H90        26.3760  -25.8709  -42.5592 H         1 UNK         0.3040 
     91 H91        24.7983  -24.3239  -40.7482 H         1 UNK         0.1015 
     92 H92        27.0231  -23.6602  -39.8192 H         1 UNK         0.0786 
     93 H93        27.0243  -23.5852  -41.5725 H         1 UNK         0.0786 
     94 H94        27.8082  -24.9320  -40.7448 H         1 UNK         0.0786 
     95 H95        26.2714  -27.4780  -40.4663 H         1 UNK         0.3172 
     96 H96        25.6929  -27.7491  -37.5739 H         1 UNK         0.0595 
     97 H97        26.9867  -29.6951  -39.5614 H         1 UNK         0.0839 
     98 H98        26.9019  -29.8927  -37.8170 H         1 UNK         0.0839 
     99 H99        27.8673  -28.5974  -38.4974 H         1 UNK         0.0839 
    100 H100       23.7018  -27.6846  -40.0683 H         1 UNK         0.2998 
    101 H101       21.7276  -28.3967  -40.6228 H         1 UNK         0.0822 
    102 H102       21.0639  -28.4457  -38.2437 H         1 UNK         0.0787 
    103 H103       20.2976  -29.7689  -39.1082 H         1 UNK         0.0787 
    104 H104       21.6654  -30.0915  -38.0647 H         1 UNK         0.0787 
    105 H105       23.5430  -31.2001  -39.4181 H         1 UNK         0.3055 
    106 H106       24.0952  -33.1946  -40.2229 H         1 UNK         0.1106 
    107 H107       23.6644  -32.0364  -43.0265 H         1 UNK         0.0828 
    108 H108       24.6445  -33.4326  -42.6108 H         1 UNK         0.0828 
    109 H109       25.1277  -31.8378  -42.0629 H         1 UNK         0.0828 
    110 H110       21.1019  -32.5187  -39.8925 H         1 UNK         0.2931 
    111 H111       19.7516  -34.4672  -41.5530 H         1 UNK         0.0412 
    112 H112       20.9434  -36.5333  -38.3122 H         1 UNK         0.3472 
    113 H113       21.6763  -35.0100  -38.7491 H         1 UNK         0.3472 
    114 H114       17.7228  -33.8917  -40.1981 H         1 UNK         0.0970 
    115 H115       18.7048  -32.9184  -39.1383 H         1 UNK         0.0970 
    116 H116       17.7341  -33.5433  -42.8528 H         1 UNK         0.0612 
    117 H117       16.3518  -32.7598  -42.1207 H         1 UNK         0.0612 
@<TRIPOS>BOND
     1    1    2 1    
     2    1   62 1    
     3    1   63 1    
     4    1   64 1    
     5    2    3 2    
     6    2    4 am   BACKBONE|DICT|INTERRES
     7    4    5 1    
     8    4   65 1    
     9    5    6 1    
    10    5   25 1    
    11    5   66 1    
    12    6    7 1    
    13    6   67 1    
    14    6   68 1    
    15    7    8 1    
    16    8    9 1    
    17    8   69 1    
    18    8   70 1    
    19    9   10 ar   
    20    9   14 ar   
    21   10   11 ar   
    22   10   71 1    
    23   11   12 ar   
    24   11   61 1    
    25   12   13 ar   
    26   12   72 1    
    27   13   14 ar   
    28   13   15 1    
    29   14   73 1    
    30   15   16 1    
    31   15   74 1    
    32   15   75 1    
    33   16   17 1    
    34   17   18 1    
    35   17   76 1    
    36   17   77 1    
    37   18   19 1    
    38   18   27 1    
    39   18   78 1    
    40   19   20 am   BACKBONE|DICT|INTERRES
    41   19   79 1    
    42   20   21 2    
    43   20   22 1    
    44   22   23 1    
    45   22   24 1    
    46   22   80 1    
    47   23   81 1    
    48   23   82 1    
    49   23   83 1    
    50   24   25 am   BACKBONE|DICT|INTERRES
    51   24   84 1    
    52   25   26 2    
    53   27   28 2    
    54   27   29 am   BACKBONE|DICT|INTERRES
    55   29   30 1    
    56   29   85 1    
    57   30   31 1    
    58   30   32 1    
    59   30   86 1    
    60   31   87 1    
    61   31   88 1    
    62   31   89 1    
    63   32   33 2    
    64   32   34 am   BACKBONE|DICT|INTERRES
    65   34   35 1    
    66   34   90 1    
    67   35   36 1    
    68   35   37 1    
    69   35   91 1    
    70   36   92 1    
    71   36   93 1    
    72   36   94 1    
    73   37   38 2    
    74   37   39 am   BACKBONE|DICT|INTERRES
    75   39   40 1    
    76   39   95 1    
    77   40   41 1    
    78   40   42 1    
    79   40   96 1    
    80   41   97 1    
    81   41   98 1    
    82   41   99 1    
    83   42   43 2    
    84   42   44 am   BACKBONE|DICT|INTERRES
    85   44   45 1    
    86   44  100 1    
    87   45   46 1    
    88   45   47 1    
    89   45  101 1    
    90   46  102 1    
    91   46  103 1    
    92   46  104 1    
    93   47   48 2    
    94   47   49 am   BACKBONE|DICT|INTERRES
    95   49   50 1    
    96   49  105 1    
    97   50   51 1    
    98   50   52 1    
    99   50  106 1    
   100   51  107 1    
   101   51  108 1    
   102   51  109 1    
   103   52   53 2    
   104   52   54 am   BACKBONE|DICT|INTERRES
   105   54   55 1    
   106   54  110 1    
   107   55   56 1    
   108   55   59 1    
   109   55  111 1    
   110   56   57 am   BACKBONE|DICT|INTERRES
   111   56   58 2    
   112   57  112 1    
   113   57  113 1    
   114   59   60 1    
   115   59  114 1    
   116   59  115 1    
   117   60   61 1    
   118   61  116 1    
   119   61  117 1    
@<TRIPOS>SUBSTRUCTURE
     1 UNK         1 GROUP             0       ****    0 ROOT    
