@<TRIPOS>MOLECULE
3R8
117   119    1
SMALL
USER_CHARGES


@<TRIPOS>ATOM
      1 CA         16.4928  -22.1735  -43.5778 C.3       0 UNK        -0.2013 
      2 C          17.1028  -23.0906  -44.6275 C.2       0 UNK         0.4866 
      3 O          17.9290  -22.6433  -45.4240 O.2       0 UNK        -0.5176 
      4 N          16.6943  -24.3653  -44.6385 N.am      1 UNK        -0.4884 
      5 CA         17.2260  -25.4164  -45.5127 C.3       1 UNK         0.0853 
      6 C6         16.1314  -26.4505  -45.8985 C.3       10 UNK        -0.0849 
      7 S7         15.3367  -27.2726  -44.4732 S.3       10 UNK        -0.2776 
      8 C8         15.2497  -29.0227  -44.9948 C.3       10 UNK         0.0316 
      9 C9         16.1541  -29.9109  -44.1506 C.ar      10 UNK        -0.0863 
     10 C10        17.1675  -30.6788  -44.7361 C.ar      10 UNK        -0.1009 
     11 C11        17.9886  -31.4936  -43.9454 C.ar      10 UNK        -0.0712 
     12 C12        17.7795  -31.5412  -42.5632 C.ar      10 UNK        -0.0894 
     13 C13        16.7919  -30.7565  -41.9672 C.ar      10 UNK        -0.0745 
     14 C14        15.9642  -29.9679  -42.7678 C.ar      10 UNK        -0.0972 
     15 C15        16.6621  -30.7027  -40.4532 C.3       10 UNK         0.0209 
     16 S16        18.1010  -29.8950  -39.6708 S.3       10 UNK        -0.2568 
     17 C17        18.3231  -28.3768  -40.6666 C.3       10 UNK        -0.0983 
     18 CA         19.6694  -28.3991  -41.4505 C.3       3 UNK         0.0876 
     19 N          19.4974  -28.2506  -42.9050 N.am      3 UNK        -0.4424 
     20 C          20.5015  -28.2814  -43.7982 C.2       2 UNK         0.4918 
     21 O          21.6632  -28.5535  -43.4957 O.2       2 UNK        -0.4875 
     22 CA         20.2147  -27.8575  -45.2525 C.3       2 UNK         0.0481 
     23 CB         20.3509  -29.0448  -46.2164 C.3       2 UNK        -0.1831 
     24 N          18.9390  -27.1772  -45.5018 N.am      2 UNK        -0.4498 
     25 C          18.5166  -26.0403  -44.9289 C.2       1 UNK         0.5027 
     26 O          19.1124  -25.4938  -43.9948 O.2       1 UNK        -0.4969 
     27 C          20.6607  -27.3709  -40.8572 C.2       3 UNK         0.5005 
     28 O          21.3388  -27.6811  -39.8764 O.2       3 UNK        -0.5279 
     29 N          20.7630  -26.1896  -41.4906 N.am      4 UNK        -0.4463 
     30 CA         21.7291  -25.1337  -41.1783 C.3       4 UNK         0.0283 
     31 CB         21.4704  -23.9275  -42.0945 C.3       4 UNK        -0.1875 
     32 C          23.2022  -25.5756  -41.2776 C.2       4 UNK         0.4949 
     33 O          24.0406  -25.0126  -40.5733 O.2       4 UNK        -0.5039 
     34 N          23.5011  -26.5998  -42.0918 N.am      5 UNK        -0.4663 
     35 CA         24.8170  -27.2386  -42.1858 C.3       5 UNK         0.0242 
     36 CB         24.9834  -27.8551  -43.5880 C.3       5 UNK        -0.1982 
     37 C          25.0119  -28.2699  -41.0563 C.2       5 UNK         0.5017 
     38 O          25.2767  -29.4416  -41.3314 O.2       5 UNK        -0.5012 
     39 N          24.8386  -27.8162  -39.8047 N.am      6 UNK        -0.4439 
     40 CA         25.0020  -28.5476  -38.5388 C.3       6 UNK         0.0297 
     41 CB         26.5040  -28.7573  -38.2532 C.3       6 UNK        -0.2006 
     42 C          24.2029  -29.8667  -38.4504 C.2       6 UNK         0.4892 
     43 O          24.6651  -30.8152  -37.8140 O.2       6 UNK        -0.5089 
     44 N          23.0424  -29.9158  -39.1232 N.am      7 UNK        -0.4243 
     45 CA         22.1815  -31.0863  -39.3453 C.3       7 UNK         0.0196 
     46 CB         21.5395  -31.5522  -38.0221 C.3       7 UNK        -0.2007 
     47 C          22.8475  -32.2495  -40.1169 C.2       7 UNK         0.5020 
     48 O          22.2748  -33.3391  -40.1628 O.2       7 UNK        -0.5147 
     49 N          24.0246  -32.0201  -40.7178 N.am      8 UNK        -0.4734 
     50 CA         24.7563  -33.0095  -41.5128 C.3       8 UNK         0.0238 
     51 CB         26.2645  -32.7261  -41.4195 C.3       8 UNK        -0.1912 
     52 C          24.2973  -33.0168  -42.9779 C.2       8 UNK         0.5038 
     53 O          24.3479  -34.0694  -43.6153 O.2       8 UNK        -0.5046 
     54 N          23.8520  -31.8530  -43.4728 N.am      9 UNK        -0.4200 
     55 CA         23.2759  -31.6378  -44.8125 C.3       9 UNK         0.0839 
     56 C          24.2753  -31.8227  -45.9941 C.2       9 UNK         0.5513 
     57 N          25.5822  -31.7830  -45.7633 N.am      9 UNK        -0.7519 
     58 O          23.8657  -31.9704  -47.1427 O.2       9 UNK        -0.4960 
     59 C59        21.9348  -32.4031  -45.0215 C.3       10 UNK        -0.0876 
     60 S60        20.7092  -31.9528  -43.7489 S.3       10 UNK        -0.2414 
     61 C61        19.1202  -32.3003  -44.5721 C.3       10 UNK         0.0169 
     62 H62        15.9897  -21.3347  -44.0583 H         1 UNK         0.0903 
     63 H63        15.7653  -22.6935  -42.9548 H         1 UNK         0.0903 
     64 H64        17.2731  -21.7771  -42.9286 H         1 UNK         0.0903 
     65 H65        16.0301  -24.6845  -43.9469 H         1 UNK         0.3096 
     66 H66        17.5435  -24.9449  -46.4458 H         1 UNK         0.1121 
     67 H67        15.3421  -25.9359  -46.4491 H         1 UNK         0.0849 
     68 H68        16.5193  -27.1889  -46.6007 H         1 UNK         0.0849 
     69 H69        15.4764  -29.1264  -46.0564 H         1 UNK         0.0865 
     70 H70        14.2210  -29.3665  -44.8769 H         1 UNK         0.0865 
     71 H71        17.3182  -30.6403  -45.8060 H         1 UNK         0.1346 
     72 H72        18.4233  -32.1487  -41.9417 H         1 UNK         0.1412 
     73 H73        15.1938  -29.3614  -42.3109 H         1 UNK         0.1426 
     74 H74        16.5627  -31.7152  -40.0596 H         1 UNK         0.0716 
     75 H75        15.7571  -30.1680  -40.1605 H         1 UNK         0.0716 
     76 H76        18.2552  -27.5309  -39.9789 H         1 UNK         0.0695 
     77 H77        17.4765  -28.2368  -41.3371 H         1 UNK         0.0695 
     78 H78        20.1409  -29.3753  -41.3300 H         1 UNK         0.0983 
     79 H79        18.5693  -28.0303  -43.2342 H         1 UNK         0.3095 
     80 H80        20.9970  -27.1409  -45.5107 H         1 UNK         0.0454 
     81 H81        20.3008  -28.7224  -47.2564 H         1 UNK         0.0851 
     82 H82        19.5691  -29.7835  -46.0557 H         1 UNK         0.0851 
     83 H83        21.3084  -29.5484  -46.0864 H         1 UNK         0.0851 
     84 H84        18.3758  -27.5695  -46.2415 H         1 UNK         0.2976 
     85 H85        20.1648  -26.0243  -42.2952 H         1 UNK         0.3116 
     86 H86        21.5512  -24.8255  -40.1461 H         1 UNK         0.0646 
     87 H87        22.1527  -23.1077  -41.8655 H         1 UNK         0.0847 
     88 H88        20.4558  -23.5470  -41.9750 H         1 UNK         0.0847 
     89 H89        21.6081  -24.1838  -43.1459 H         1 UNK         0.0847 
     90 H90        22.7488  -27.0664  -42.5881 H         1 UNK         0.3040 
     91 H91        25.5944  -26.4805  -42.0661 H         1 UNK         0.1015 
     92 H92        24.8475  -27.1076  -44.3696 H         1 UNK         0.0786 
     93 H93        24.2696  -28.6589  -43.7660 H         1 UNK         0.0786 
     94 H94        25.9819  -28.2761  -43.7125 H         1 UNK         0.0786 
     95 H95        24.5801  -26.8386  -39.7166 H         1 UNK         0.3172 
     96 H96        24.6009  -27.8995  -37.7584 H         1 UNK         0.0595 
     97 H97        26.9579  -29.4375  -38.9750 H         1 UNK         0.0839 
     98 H98        26.6621  -29.1815  -37.2608 H         1 UNK         0.0839 
     99 H99        27.0514  -27.8155  -38.2896 H         1 UNK         0.0839 
    100 H100       22.7123  -29.0557  -39.5539 H         1 UNK         0.2998 
    101 H101       21.3736  -30.7408  -39.9889 H         1 UNK         0.0822 
    102 H102       22.2772  -31.9743  -37.3393 H         1 UNK         0.0787 
    103 H103       21.0412  -30.7268  -37.5135 H         1 UNK         0.0787 
    104 H104       20.7852  -32.3194  -38.2010 H         1 UNK         0.0787 
    105 H105       24.4339  -31.0912  -40.6641 H         1 UNK         0.3055 
    106 H106       24.5738  -34.0061  -41.1040 H         1 UNK         0.1106 
    107 H107       26.8363  -33.4811  -41.9607 H         1 UNK         0.0828 
    108 H108       26.5243  -31.7556  -41.8435 H         1 UNK         0.0828 
    109 H109       26.6064  -32.7405  -40.3844 H         1 UNK         0.0828 
    110 H110       23.8692  -31.0440  -42.8686 H         1 UNK         0.2931 
    111 H111       23.0393  -30.5745  -44.8382 H         1 UNK         0.0412 
    112 H112       25.9312  -31.6522  -44.8276 H         1 UNK         0.3472 
    113 H113       26.2239  -31.8922  -46.5329 H         1 UNK         0.3472 
    114 H114       21.5160  -32.1715  -46.0020 H         1 UNK         0.0970 
    115 H115       22.0910  -33.4826  -45.0022 H         1 UNK         0.0970 
    116 H116       19.1996  -32.0830  -45.6375 H         1 UNK         0.0612 
    117 H117       18.8982  -33.3646  -44.4863 H         1 UNK         0.0612 
@<TRIPOS>BOND
     1    1    2 1    
     2    1   62 1    
     3    1   63 1    
     4    1   64 1    
     5    2    3 2    
     6    2    4 am   BACKBONE|DICT|INTERRES
     7    4    5 1    
     8    4   65 1    
     9    5    6 1    
    10    5   25 1    
    11    5   66 1    
    12    6    7 1    
    13    6   67 1    
    14    6   68 1    
    15    7    8 1    
    16    8    9 1    
    17    8   69 1    
    18    8   70 1    
    19    9   10 ar   
    20    9   14 ar   
    21   10   11 ar   
    22   10   71 1    
    23   11   12 ar   
    24   11   61 1    
    25   12   13 ar   
    26   12   72 1    
    27   13   14 ar   
    28   13   15 1    
    29   14   73 1    
    30   15   16 1    
    31   15   74 1    
    32   15   75 1    
    33   16   17 1    
    34   17   18 1    
    35   17   76 1    
    36   17   77 1    
    37   18   19 1    
    38   18   27 1    
    39   18   78 1    
    40   19   20 am   BACKBONE|DICT|INTERRES
    41   19   79 1    
    42   20   21 2    
    43   20   22 1    
    44   22   23 1    
    45   22   24 1    
    46   22   80 1    
    47   23   81 1    
    48   23   82 1    
    49   23   83 1    
    50   24   25 am   BACKBONE|DICT|INTERRES
    51   24   84 1    
    52   25   26 2    
    53   27   28 2    
    54   27   29 am   BACKBONE|DICT|INTERRES
    55   29   30 1    
    56   29   85 1    
    57   30   31 1    
    58   30   32 1    
    59   30   86 1    
    60   31   87 1    
    61   31   88 1    
    62   31   89 1    
    63   32   33 2    
    64   32   34 am   BACKBONE|DICT|INTERRES
    65   34   35 1    
    66   34   90 1    
    67   35   36 1    
    68   35   37 1    
    69   35   91 1    
    70   36   92 1    
    71   36   93 1    
    72   36   94 1    
    73   37   38 2    
    74   37   39 am   BACKBONE|DICT|INTERRES
    75   39   40 1    
    76   39   95 1    
    77   40   41 1    
    78   40   42 1    
    79   40   96 1    
    80   41   97 1    
    81   41   98 1    
    82   41   99 1    
    83   42   43 2    
    84   42   44 am   BACKBONE|DICT|INTERRES
    85   44   45 1    
    86   44  100 1    
    87   45   46 1    
    88   45   47 1    
    89   45  101 1    
    90   46  102 1    
    91   46  103 1    
    92   46  104 1    
    93   47   48 2    
    94   47   49 am   BACKBONE|DICT|INTERRES
    95   49   50 1    
    96   49  105 1    
    97   50   51 1    
    98   50   52 1    
    99   50  106 1    
   100   51  107 1    
   101   51  108 1    
   102   51  109 1    
   103   52   53 2    
   104   52   54 am   BACKBONE|DICT|INTERRES
   105   54   55 1    
   106   54  110 1    
   107   55   56 1    
   108   55   59 1    
   109   55  111 1    
   110   56   57 am   BACKBONE|DICT|INTERRES
   111   56   58 2    
   112   57  112 1    
   113   57  113 1    
   114   59   60 1    
   115   59  114 1    
   116   59  115 1    
   117   60   61 1    
   118   61  116 1    
   119   61  117 1    
@<TRIPOS>SUBSTRUCTURE
     1 UNK         1 GROUP             0       ****    0 ROOT    
