@<TRIPOS>MOLECULE
3R8
117   119    1
SMALL
USER_CHARGES


@<TRIPOS>ATOM
      1 CA         13.4995  -23.8773  -43.0265 C.3       0 UNK        -0.2013 
      2 C          14.6340  -24.2105  -43.9835 C.2       0 UNK         0.4866 
      3 O          15.4526  -23.3437  -44.2896 O.2       0 UNK        -0.5176 
      4 N          14.6910  -25.4615  -44.4581 N.am      1 UNK        -0.4884 
      5 CA         15.7234  -25.9662  -45.3746 C.3       1 UNK         0.0853 
      6 C6         15.2473  -27.2362  -46.1270 C.3       10 UNK        -0.0849 
      7 S7         14.7600  -28.6169  -45.0281 S.3       10 UNK        -0.2776 
      8 C8         15.7756  -29.9946  -45.6567 C.3       10 UNK         0.0316 
      9 C9         17.2134  -29.9601  -45.1511 C.ar      10 UNK        -0.0863 
     10 C10        17.4967  -30.3047  -43.8259 C.ar      10 UNK        -0.1009 
     11 C11        18.8178  -30.3564  -43.3692 C.ar      10 UNK        -0.0712 
     12 C12        19.8608  -30.0635  -44.2516 C.ar      10 UNK        -0.0894 
     13 C13        19.5929  -29.6921  -45.5723 C.ar      10 UNK        -0.0745 
     14 C14        18.2664  -29.6418  -46.0159 C.ar      10 UNK        -0.0972 
     15 C15        20.7357  -29.3806  -46.5311 C.3       10 UNK         0.0209 
     16 S16        21.2480  -27.6309  -46.4686 S.3       10 UNK        -0.2568 
     17 C17        22.2911  -27.5813  -44.9708 C.3       10 UNK        -0.0983 
     18 CA         21.7412  -26.6430  -43.8638 C.3       3 UNK         0.0876 
     19 N          20.3669  -26.9637  -43.4883 N.am      3 UNK        -0.4424 
     20 C          19.5472  -26.1686  -42.7918 C.2       2 UNK         0.4918 
     21 O          19.8370  -25.0311  -42.4155 O.2       2 UNK        -0.4875 
     22 CA         18.1640  -26.7578  -42.4655 C.3       2 UNK         0.0481 
     23 CB         17.7624  -26.4587  -41.0111 C.3       2 UNK        -0.1831 
     24 N          17.0786  -26.3356  -43.3558 N.am      2 UNK        -0.4498 
     25 C          17.0871  -26.2067  -44.6936 C.2       1 UNK         0.5027 
     26 O          18.0861  -26.2936  -45.4057 O.2       1 UNK        -0.4969 
     27 C          22.6299  -26.7033  -42.6082 C.2       3 UNK         0.5005 
     28 O          22.9367  -27.8030  -42.1394 O.2       3 UNK        -0.5279 
     29 N          23.0319  -25.5373  -42.0837 N.am      4 UNK        -0.4463 
     30 CA         23.8414  -25.3981  -40.8650 C.3       4 UNK         0.0283 
     31 CB         23.9703  -23.9091  -40.5069 C.3       4 UNK        -0.1875 
     32 C          25.2331  -26.0525  -40.9486 C.2       4 UNK         0.4949 
     33 O          25.7787  -26.4424  -39.9170 O.2       4 UNK        -0.5039 
     34 N          25.7686  -26.1835  -42.1706 N.am      5 UNK        -0.4663 
     35 CA         27.0096  -26.9042  -42.4631 C.3       5 UNK         0.0242 
     36 CB         27.4769  -26.5465  -43.8834 C.3       5 UNK        -0.1982 
     37 C          26.8752  -28.4311  -42.3099 C.2       5 UNK         0.5017 
     38 O          27.8769  -29.0905  -42.0301 O.2       5 UNK        -0.5012 
     39 N          25.6578  -28.9625  -42.4961 N.am      6 UNK        -0.4439 
     40 CA         25.3332  -30.3747  -42.2953 C.3       6 UNK         0.0297 
     41 CB         24.2523  -30.8150  -43.2979 C.3       6 UNK        -0.2006 
     42 C          24.8686  -30.6195  -40.8540 C.2       6 UNK         0.4892 
     43 O          25.3395  -31.5676  -40.2252 O.2       6 UNK        -0.5089 
     44 N          23.9498  -29.7674  -40.3690 N.am      7 UNK        -0.4243 
     45 CA         23.3132  -29.7369  -39.0428 C.3       7 UNK         0.0196 
     46 CB         24.3483  -29.5077  -37.9248 C.3       7 UNK        -0.2007 
     47 C          22.4182  -30.9532  -38.7416 C.2       7 UNK         0.5020 
     48 O          21.2481  -30.7773  -38.4054 O.2       7 UNK        -0.5147 
     49 N          22.9698  -32.1609  -38.9004 N.am      8 UNK        -0.4734 
     50 CA         22.2795  -33.4496  -38.7805 C.3       8 UNK         0.0238 
     51 CB         23.2943  -34.5041  -38.3051 C.3       8 UNK        -0.1912 
     52 C          21.6011  -33.8903  -40.0939 C.2       8 UNK         0.5038 
     53 O          21.0442  -34.9878  -40.1426 O.2       8 UNK        -0.5046 
     54 N          21.6744  -33.0415  -41.1282 N.am      9 UNK        -0.4200 
     55 CA         21.1202  -33.2300  -42.4798 C.3       9 UNK         0.0839 
     56 C          21.8851  -34.2669  -43.3562 C.2       9 UNK         0.5513 
     57 N          23.0704  -34.7201  -42.9655 N.am      9 UNK        -0.7519 
     58 O          21.4136  -34.6443  -44.4256 O.2       9 UNK        -0.4960 
     59 C59        19.5777  -33.4574  -42.5113 C.3       10 UNK        -0.0876 
     60 S60        18.5762  -32.3614  -41.4422 S.3       10 UNK        -0.2414 
     61 C61        19.1178  -30.6885  -41.9136 C.3       10 UNK         0.0169 
     62 H62        12.8894  -23.0718  -43.4344 H         1 UNK         0.0903 
     63 H63        12.8516  -24.7351  -42.8467 H         1 UNK         0.0903 
     64 H64        13.9010  -23.5488  -42.0682 H         1 UNK         0.0903 
     65 H65        13.9931  -26.1394  -44.1820 H         1 UNK         0.3096 
     66 H66        15.8995  -25.1934  -46.1269 H         1 UNK         0.1121 
     67 H67        16.0149  -27.5708  -46.8278 H         1 UNK         0.0849 
     68 H68        14.3842  -26.9861  -46.7458 H         1 UNK         0.0849 
     69 H69        15.7439  -30.0066  -46.7474 H         1 UNK         0.0865 
     70 H70        15.3174  -30.9320  -45.3380 H         1 UNK         0.0865 
     71 H71        16.6870  -30.5417  -43.1490 H         1 UNK         0.1346 
     72 H72        20.8830  -30.1133  -43.9058 H         1 UNK         0.1412 
     73 H73        18.0566  -29.3699  -47.0414 H         1 UNK         0.1426 
     74 H74        21.5914  -30.0262  -46.3269 H         1 UNK         0.0716 
     75 H75        20.4282  -29.6110  -47.5522 H         1 UNK         0.0716 
     76 H76        23.2839  -27.2475  -45.2780 H         1 UNK         0.0695 
     77 H77        22.4285  -28.5954  -44.5974 H         1 UNK         0.0695 
     78 H78        21.7516  -25.6240  -44.2569 H         1 UNK         0.0983 
     79 H79        20.0141  -27.8492  -43.8233 H         1 UNK         0.3095 
     80 H80        18.2334  -27.8394  -42.5594 H         1 UNK         0.0454 
     81 H81        17.5807  -25.3947  -40.8539 H         1 UNK         0.0851 
     82 H82        16.8599  -26.9999  -40.7269 H         1 UNK         0.0851 
     83 H83        18.5493  -26.7605  -40.3183 H         1 UNK         0.0851 
     84 H84        16.1792  -26.2166  -42.9142 H         1 UNK         0.2976 
     85 H85        22.7053  -24.6794  -42.5068 H         1 UNK         0.3116 
     86 H86        23.3015  -25.8970  -40.0572 H         1 UNK         0.0646 
     87 H87        22.9936  -23.4529  -40.3441 H         1 UNK         0.0847 
     88 H88        24.5433  -23.7768  -39.5879 H         1 UNK         0.0847 
     89 H89        24.4791  -23.3469  -41.2909 H         1 UNK         0.0847 
     90 H90        25.2614  -25.8045  -42.9570 H         1 UNK         0.3040 
     91 H91        27.7729  -26.5715  -41.7556 H         1 UNK         0.1015 
     92 H92        26.7476  -26.8459  -44.6373 H         1 UNK         0.0786 
     93 H93        28.4163  -27.0474  -44.1222 H         1 UNK         0.0786 
     94 H94        27.6485  -25.4749  -43.9871 H         1 UNK         0.0786 
     95 H95        24.8764  -28.3369  -42.6514 H         1 UNK         0.3172 
     96 H96        26.2210  -30.9846  -42.4761 H         1 UNK         0.0595 
     97 H97        23.3032  -30.3064  -43.1304 H         1 UNK         0.0839 
     98 H98        24.0661  -31.8863  -43.2177 H         1 UNK         0.0839 
     99 H99        24.5606  -30.6188  -44.3249 H         1 UNK         0.0839 
    100 H100       23.6083  -29.0484  -41.0062 H         1 UNK         0.2998 
    101 H101       22.6570  -28.8648  -39.0594 H         1 UNK         0.0822 
    102 H102       23.8574  -29.3977  -36.9570 H         1 UNK         0.0787 
    103 H103       25.0519  -30.3361  -37.8388 H         1 UNK         0.0787 
    104 H104       24.9234  -28.5985  -38.1024 H         1 UNK         0.0787 
    105 H105       23.9373  -32.1823  -39.2202 H         1 UNK         0.3055 
    106 H106       21.4920  -33.3656  -38.0282 H         1 UNK         0.1106 
    107 H107       23.7453  -34.2190  -37.3545 H         1 UNK         0.0828 
    108 H108       22.8156  -35.4728  -38.1551 H         1 UNK         0.0828 
    109 H109       24.0983  -34.6453  -39.0286 H         1 UNK         0.0828 
    110 H110       22.1652  -32.1751  -40.9722 H         1 UNK         0.2931 
    111 H111       21.3096  -32.2824  -42.9815 H         1 UNK         0.0412 
    112 H112       23.5596  -35.3831  -43.5463 H         1 UNK         0.3472 
    113 H113       23.4702  -34.4255  -42.0897 H         1 UNK         0.3472 
    114 H114       19.2073  -33.3481  -43.5324 H         1 UNK         0.0970 
    115 H115       19.3482  -34.4849  -42.2239 H         1 UNK         0.0970 
    116 H116       18.5988  -29.9707  -41.2773 H         1 UNK         0.0612 
    117 H117       20.1788  -30.5716  -41.6895 H         1 UNK         0.0612 
@<TRIPOS>BOND
     1    1    2 1    
     2    1   62 1    
     3    1   63 1    
     4    1   64 1    
     5    2    3 2    
     6    2    4 am   BACKBONE|DICT|INTERRES
     7    4    5 1    
     8    4   65 1    
     9    5    6 1    
    10    5   25 1    
    11    5   66 1    
    12    6    7 1    
    13    6   67 1    
    14    6   68 1    
    15    7    8 1    
    16    8    9 1    
    17    8   69 1    
    18    8   70 1    
    19    9   10 ar   
    20    9   14 ar   
    21   10   11 ar   
    22   10   71 1    
    23   11   12 ar   
    24   11   61 1    
    25   12   13 ar   
    26   12   72 1    
    27   13   14 ar   
    28   13   15 1    
    29   14   73 1    
    30   15   16 1    
    31   15   74 1    
    32   15   75 1    
    33   16   17 1    
    34   17   18 1    
    35   17   76 1    
    36   17   77 1    
    37   18   19 1    
    38   18   27 1    
    39   18   78 1    
    40   19   20 am   BACKBONE|DICT|INTERRES
    41   19   79 1    
    42   20   21 2    
    43   20   22 1    
    44   22   23 1    
    45   22   24 1    
    46   22   80 1    
    47   23   81 1    
    48   23   82 1    
    49   23   83 1    
    50   24   25 am   BACKBONE|DICT|INTERRES
    51   24   84 1    
    52   25   26 2    
    53   27   28 2    
    54   27   29 am   BACKBONE|DICT|INTERRES
    55   29   30 1    
    56   29   85 1    
    57   30   31 1    
    58   30   32 1    
    59   30   86 1    
    60   31   87 1    
    61   31   88 1    
    62   31   89 1    
    63   32   33 2    
    64   32   34 am   BACKBONE|DICT|INTERRES
    65   34   35 1    
    66   34   90 1    
    67   35   36 1    
    68   35   37 1    
    69   35   91 1    
    70   36   92 1    
    71   36   93 1    
    72   36   94 1    
    73   37   38 2    
    74   37   39 am   BACKBONE|DICT|INTERRES
    75   39   40 1    
    76   39   95 1    
    77   40   41 1    
    78   40   42 1    
    79   40   96 1    
    80   41   97 1    
    81   41   98 1    
    82   41   99 1    
    83   42   43 2    
    84   42   44 am   BACKBONE|DICT|INTERRES
    85   44   45 1    
    86   44  100 1    
    87   45   46 1    
    88   45   47 1    
    89   45  101 1    
    90   46  102 1    
    91   46  103 1    
    92   46  104 1    
    93   47   48 2    
    94   47   49 am   BACKBONE|DICT|INTERRES
    95   49   50 1    
    96   49  105 1    
    97   50   51 1    
    98   50   52 1    
    99   50  106 1    
   100   51  107 1    
   101   51  108 1    
   102   51  109 1    
   103   52   53 2    
   104   52   54 am   BACKBONE|DICT|INTERRES
   105   54   55 1    
   106   54  110 1    
   107   55   56 1    
   108   55   59 1    
   109   55  111 1    
   110   56   57 am   BACKBONE|DICT|INTERRES
   111   56   58 2    
   112   57  112 1    
   113   57  113 1    
   114   59   60 1    
   115   59  114 1    
   116   59  115 1    
   117   60   61 1    
   118   61  116 1    
   119   61  117 1    
@<TRIPOS>SUBSTRUCTURE
     1 UNK         1 GROUP             0       ****    0 ROOT    
