@<TRIPOS>MOLECULE
3R8
117   119    1
SMALL
USER_CHARGES


@<TRIPOS>ATOM
      1 CA         15.5117  -24.4792  -40.3712 C.3       0 UNK        -0.2013 
      2 C          16.0051  -24.4935  -41.8103 C.2       0 UNK         0.4866 
      3 O          16.1599  -23.4316  -42.4150 O.2       0 UNK        -0.5176 
      4 N          16.2462  -25.6880  -42.3654 N.am      1 UNK        -0.4884 
      5 CA         16.8132  -25.8860  -43.7038 C.3       1 UNK         0.0853 
      6 C6         16.5170  -27.3152  -44.2230 C.3       10 UNK        -0.0849 
      7 S7         16.4617  -27.3940  -46.0451 S.3       10 UNK        -0.2776 
      8 C8         15.8598  -29.0952  -46.3099 C.3       10 UNK         0.0316 
      9 C9         16.8240  -30.1241  -45.7380 C.ar      10 UNK        -0.0863 
     10 C10        16.4715  -30.8835  -44.6169 C.ar      10 UNK        -0.1009 
     11 C11        17.3774  -31.7887  -44.0528 C.ar      10 UNK        -0.0712 
     12 C12        18.6498  -31.9137  -44.6216 C.ar      10 UNK        -0.0894 
     13 C13        19.0110  -31.1693  -45.7469 C.ar      10 UNK        -0.0745 
     14 C14        18.0867  -30.2888  -46.3123 C.ar      10 UNK        -0.0972 
     15 C15        20.4105  -31.2959  -46.3309 C.3       10 UNK         0.0209 
     16 S16        21.3563  -29.7453  -46.1915 S.3       10 UNK        -0.2568 
     17 C17        21.4326  -29.5095  -44.3832 C.3       10 UNK        -0.0983 
     18 CA         21.9319  -28.0925  -44.0172 C.3       3 UNK         0.0876 
     19 N          21.0526  -27.0423  -44.5420 N.am      3 UNK        -0.4424 
     20 C          21.3502  -25.7370  -44.5842 C.2       2 UNK         0.4918 
     21 O          22.4219  -25.2698  -44.1968 O.2       2 UNK        -0.4875 
     22 CA         20.2552  -24.7843  -45.1012 C.3       2 UNK         0.0481 
     23 CB         20.4653  -24.5012  -46.5968 C.3       2 UNK        -0.1831 
     24 N          18.8710  -25.2320  -44.8840 N.am      2 UNK        -0.4498 
     25 C          18.3266  -25.5726  -43.7060 C.2       1 UNK         0.5027 
     26 O          18.9746  -25.6694  -42.6604 O.2       1 UNK        -0.4969 
     27 C          22.1949  -27.9740  -42.5001 C.2       3 UNK         0.5005 
     28 O          23.1648  -28.5688  -42.0282 O.2       3 UNK        -0.5279 
     29 N          21.3928  -27.1859  -41.7614 N.am      4 UNK        -0.4463 
     30 CA         21.5955  -26.8570  -40.3417 C.3       4 UNK         0.0283 
     31 CB         20.4208  -26.0037  -39.8392 C.3       4 UNK        -0.1875 
     32 C          22.9331  -26.1547  -40.0383 C.2       4 UNK         0.4949 
     33 O          23.4074  -26.2308  -38.9054 O.2       4 UNK        -0.5039 
     34 N          23.5322  -25.5132  -41.0510 N.am      5 UNK        -0.4663 
     35 CA         24.8771  -24.9365  -40.9929 C.3       5 UNK         0.0242 
     36 CB         24.9974  -23.8698  -42.0946 C.3       5 UNK        -0.1982 
     37 C          26.0030  -25.9838  -41.1291 C.2       5 UNK         0.5017 
     38 O          27.1675  -25.6227  -40.9523 O.2       5 UNK        -0.5012 
     39 N          25.6592  -27.2355  -41.4624 N.am      6 UNK        -0.4439 
     40 CA         26.5825  -28.3374  -41.7121 C.3       6 UNK         0.0297 
     41 CB         26.7035  -28.5520  -43.2365 C.3       6 UNK        -0.2006 
     42 C          26.1183  -29.5767  -40.9265 C.2       6 UNK         0.4892 
     43 O          26.1142  -29.5387  -39.6955 O.2       6 UNK        -0.5089 
     44 N          25.7661  -30.6569  -41.6373 N.am      7 UNK        -0.4243 
     45 CA         25.4292  -31.9740  -41.0859 C.3       7 UNK         0.0196 
     46 CB         25.5516  -33.0167  -42.2109 C.3       7 UNK        -0.2007 
     47 C          24.0437  -32.0738  -40.4193 C.2       7 UNK         0.5020 
     48 O          23.7607  -33.1016  -39.8031 O.2       7 UNK        -0.5147 
     49 N          23.1969  -31.0469  -40.5694 N.am      8 UNK        -0.4734 
     50 CA         21.8013  -30.9467  -40.1263 C.3       8 UNK         0.0238 
     51 CB         21.6334  -31.1519  -38.6070 C.3       8 UNK        -0.1912 
     52 C          20.8483  -31.8200  -40.9513 C.2       8 UNK         0.5038 
     53 O          19.9802  -31.2688  -41.6253 O.2       8 UNK        -0.5046 
     54 N          21.0291  -33.1433  -40.9035 N.am      9 UNK        -0.4200 
     55 CA         20.2681  -34.1348  -41.6721 C.3       9 UNK         0.0839 
     56 C          20.9611  -35.5224  -41.6523 C.2       9 UNK         0.5513 
     57 N          20.4599  -36.4733  -42.4278 N.am      9 UNK        -0.7519 
     58 O          21.9391  -35.7507  -40.9434 O.2       9 UNK        -0.4960 
     59 C59        18.7604  -34.1981  -41.2700 C.3       10 UNK        -0.0876 
     60 S60        17.6443  -34.2718  -42.7179 S.3       10 UNK        -0.2414 
     61 C61        16.9782  -32.5674  -42.7989 C.3       10 UNK         0.0169 
     62 H62        15.4006  -25.4855  -39.9675 H         1 UNK         0.0903 
     63 H63        16.2151  -23.9369  -39.7399 H         1 UNK         0.0903 
     64 H64        14.5445  -23.9810  -40.3105 H         1 UNK         0.0903 
     65 H65        16.1378  -26.5226  -41.8069 H         1 UNK         0.3096 
     66 H66        16.3242  -25.1665  -44.3654 H         1 UNK         0.1121 
     67 H67        17.2396  -28.0391  -43.8392 H         1 UNK         0.0849 
     68 H68        15.5414  -27.6486  -43.8646 H         1 UNK         0.0849 
     69 H69        14.8670  -29.2005  -45.8696 H         1 UNK         0.0865 
     70 H70        15.7401  -29.2688  -47.3803 H         1 UNK         0.0865 
     71 H71        15.4961  -30.7536  -44.1680 H         1 UNK         0.1346 
     72 H72        19.3729  -32.5776  -44.1776 H         1 UNK         0.1412 
     73 H73        18.3672  -29.6974  -47.1736 H         1 UNK         0.1426 
     74 H74        20.3345  -31.5709  -47.3837 H         1 UNK         0.0716 
     75 H75        20.9685  -32.0964  -45.8424 H         1 UNK         0.0716 
     76 H76        20.4479  -29.6837  -43.9460 H         1 UNK         0.0695 
     77 H77        22.0930  -30.2765  -43.9731 H         1 UNK         0.0695 
     78 H78        22.9057  -27.9552  -44.4929 H         1 UNK         0.0983 
     79 H79        20.1552  -27.3446  -44.8912 H         1 UNK         0.3095 
     80 H80        20.3718  -23.8436  -44.5596 H         1 UNK         0.0454 
     81 H81        21.4777  -24.1423  -46.7887 H         1 UNK         0.0851 
     82 H82        20.3177  -25.3970  -47.2016 H         1 UNK         0.0851 
     83 H83        19.7801  -23.7341  -46.9578 H         1 UNK         0.0851 
     84 H84        18.2711  -25.2291  -45.6975 H         1 UNK         0.2976 
     85 H85        20.6101  -26.7229  -42.2159 H         1 UNK         0.3116 
     86 H86        21.5948  -27.7880  -39.7758 H         1 UNK         0.0646 
     87 H87        20.5223  -25.7846  -38.7754 H         1 UNK         0.0847 
     88 H88        19.4690  -26.5179  -39.9736 H         1 UNK         0.0847 
     89 H89        20.3630  -25.0494  -40.3642 H         1 UNK         0.0847 
     90 H90        23.0692  -25.4901  -41.9516 H         1 UNK         0.3040 
     91 H91        25.0083  -24.4464  -40.0255 H         1 UNK         0.1015 
     92 H92        24.2393  -23.0946  -41.9815 H         1 UNK         0.0786 
     93 H93        24.8867  -24.3042  -43.0892 H         1 UNK         0.0786 
     94 H94        25.9700  -23.3769  -42.0600 H         1 UNK         0.0786 
     95 H95        24.6742  -27.4755  -41.5393 H         1 UNK         0.3172 
     96 H96        27.5746  -28.0931  -41.3273 H         1 UNK         0.0595 
     97 H97        27.3906  -29.3661  -43.4719 H         1 UNK         0.0839 
     98 H98        27.0971  -27.6590  -43.7225 H         1 UNK         0.0839 
     99 H99        25.7400  -28.7745  -43.6976 H         1 UNK         0.0839 
    100 H100       25.7762  -30.5829  -42.6440 H         1 UNK         0.2998 
    101 H101       26.1665  -32.2152  -40.3170 H         1 UNK         0.0822 
    102 H102       24.8411  -32.8256  -43.0163 H         1 UNK         0.0787 
    103 H103       26.5539  -33.0244  -42.6395 H         1 UNK         0.0787 
    104 H104       25.3555  -34.0230  -41.8373 H         1 UNK         0.0787 
    105 H105       23.5121  -30.2507  -41.1185 H         1 UNK         0.3055 
    106 H106       21.5057  -29.9211  -40.3352 H         1 UNK         0.1106 
    107 H107       21.8685  -32.1688  -38.2933 H         1 UNK         0.0828 
    108 H108       22.2736  -30.4718  -38.0452 H         1 UNK         0.0828 
    109 H109       20.6048  -30.9533  -38.3033 H         1 UNK         0.0828 
    110 H110       21.8184  -33.5120  -40.3791 H         1 UNK         0.2931 
    111 H111       20.3572  -33.8051  -42.7061 H         1 UNK         0.0412 
    112 H112       20.8904  -37.3851  -42.4321 H         1 UNK         0.3472 
    113 H113       19.6482  -36.2957  -43.0002 H         1 UNK         0.3472 
    114 H114       18.5566  -35.0651  -40.6385 H         1 UNK         0.0970 
    115 H115       18.4787  -33.3485  -40.6484 H         1 UNK         0.0970 
    116 H116       17.2846  -31.9881  -41.9282 H         1 UNK         0.0612 
    117 H117       15.8912  -32.6419  -42.7433 H         1 UNK         0.0612 
@<TRIPOS>BOND
     1    1    2 1    
     2    1   62 1    
     3    1   63 1    
     4    1   64 1    
     5    2    3 2    
     6    2    4 am   BACKBONE|DICT|INTERRES
     7    4    5 1    
     8    4   65 1    
     9    5    6 1    
    10    5   25 1    
    11    5   66 1    
    12    6    7 1    
    13    6   67 1    
    14    6   68 1    
    15    7    8 1    
    16    8    9 1    
    17    8   69 1    
    18    8   70 1    
    19    9   10 ar   
    20    9   14 ar   
    21   10   11 ar   
    22   10   71 1    
    23   11   12 ar   
    24   11   61 1    
    25   12   13 ar   
    26   12   72 1    
    27   13   14 ar   
    28   13   15 1    
    29   14   73 1    
    30   15   16 1    
    31   15   74 1    
    32   15   75 1    
    33   16   17 1    
    34   17   18 1    
    35   17   76 1    
    36   17   77 1    
    37   18   19 1    
    38   18   27 1    
    39   18   78 1    
    40   19   20 am   BACKBONE|DICT|INTERRES
    41   19   79 1    
    42   20   21 2    
    43   20   22 1    
    44   22   23 1    
    45   22   24 1    
    46   22   80 1    
    47   23   81 1    
    48   23   82 1    
    49   23   83 1    
    50   24   25 am   BACKBONE|DICT|INTERRES
    51   24   84 1    
    52   25   26 2    
    53   27   28 2    
    54   27   29 am   BACKBONE|DICT|INTERRES
    55   29   30 1    
    56   29   85 1    
    57   30   31 1    
    58   30   32 1    
    59   30   86 1    
    60   31   87 1    
    61   31   88 1    
    62   31   89 1    
    63   32   33 2    
    64   32   34 am   BACKBONE|DICT|INTERRES
    65   34   35 1    
    66   34   90 1    
    67   35   36 1    
    68   35   37 1    
    69   35   91 1    
    70   36   92 1    
    71   36   93 1    
    72   36   94 1    
    73   37   38 2    
    74   37   39 am   BACKBONE|DICT|INTERRES
    75   39   40 1    
    76   39   95 1    
    77   40   41 1    
    78   40   42 1    
    79   40   96 1    
    80   41   97 1    
    81   41   98 1    
    82   41   99 1    
    83   42   43 2    
    84   42   44 am   BACKBONE|DICT|INTERRES
    85   44   45 1    
    86   44  100 1    
    87   45   46 1    
    88   45   47 1    
    89   45  101 1    
    90   46  102 1    
    91   46  103 1    
    92   46  104 1    
    93   47   48 2    
    94   47   49 am   BACKBONE|DICT|INTERRES
    95   49   50 1    
    96   49  105 1    
    97   50   51 1    
    98   50   52 1    
    99   50  106 1    
   100   51  107 1    
   101   51  108 1    
   102   51  109 1    
   103   52   53 2    
   104   52   54 am   BACKBONE|DICT|INTERRES
   105   54   55 1    
   106   54  110 1    
   107   55   56 1    
   108   55   59 1    
   109   55  111 1    
   110   56   57 am   BACKBONE|DICT|INTERRES
   111   56   58 2    
   112   57  112 1    
   113   57  113 1    
   114   59   60 1    
   115   59  114 1    
   116   59  115 1    
   117   60   61 1    
   118   61  116 1    
   119   61  117 1    
@<TRIPOS>SUBSTRUCTURE
     1 UNK         1 GROUP             0       ****    0 ROOT    
