@<TRIPOS>MOLECULE
3R8
117   119    1
SMALL
USER_CHARGES


@<TRIPOS>ATOM
      1 CA         15.6736  -26.6231  -41.6606 C.3       0 UNK        -0.2013 
      2 C          16.4897  -25.8381  -42.6754 C.2       0 UNK         0.4866 
      3 O          17.0185  -24.7782  -42.3424 O.2       0 UNK        -0.5176 
      4 N          16.5807  -26.3406  -43.9141 N.am      1 UNK        -0.4884 
      5 CA         17.2035  -25.6590  -45.0586 C.3       1 UNK         0.0853 
      6 C6         16.8409  -26.2908  -46.4342 C.3       10 UNK        -0.0849 
      7 S7         15.1609  -27.0167  -46.4966 S.3       10 UNK        -0.2776 
      8 C8         15.4879  -28.7903  -46.7908 C.3       10 UNK         0.0316 
      9 C9         16.5564  -29.3830  -45.8753 C.ar      10 UNK        -0.0863 
     10 C10        17.8055  -29.7248  -46.4014 C.ar      10 UNK        -0.1009 
     11 C11        18.7897  -30.3091  -45.6014 C.ar      10 UNK        -0.0712 
     12 C12        18.5066  -30.5514  -44.2522 C.ar      10 UNK        -0.0894 
     13 C13        17.2647  -30.2083  -43.6999 C.ar      10 UNK        -0.0745 
     14 C14        16.2921  -29.6301  -44.5246 C.ar      10 UNK        -0.0972 
     15 C15        16.9066  -30.5256  -42.2465 C.3       10 UNK         0.0209 
     16 S16        18.3255  -30.8118  -41.1304 S.3       10 UNK        -0.2568 
     17 C17        18.6194  -29.1845  -40.3663 C.3       10 UNK        -0.0983 
     18 CA         19.9887  -28.5666  -40.7624 C.3       3 UNK         0.0876 
     19 N          19.9403  -27.9200  -42.0825 N.am      3 UNK        -0.4424 
     20 C          20.9999  -27.6332  -42.8565 C.2       2 UNK         0.4918 
     21 O          22.1518  -27.9717  -42.5743 O.2       2 UNK        -0.4875 
     22 CA         20.7629  -26.7432  -44.0882 C.3       2 UNK         0.0481 
     23 CB         21.6020  -27.1578  -45.3090 C.3       2 UNK        -0.1831 
     24 N          19.3460  -26.6559  -44.4426 N.am      2 UNK        -0.4498 
     25 C          18.7308  -25.5533  -44.8918 C.2       1 UNK         0.5027 
     26 O          19.3033  -24.4918  -45.1427 O.2       1 UNK        -0.4969 
     27 C          20.5264  -27.5769  -39.6971 C.2       3 UNK         0.5005 
     28 O          19.8278  -27.2360  -38.7407 O.2       3 UNK        -0.5279 
     29 N          21.7628  -27.1223  -39.9186 N.am      4 UNK        -0.4463 
     30 CA         22.5776  -26.2224  -39.1103 C.3       4 UNK         0.0283 
     31 CB         21.8953  -24.8589  -38.8697 C.3       4 UNK        -0.1875 
     32 C          23.9098  -26.0491  -39.8449 C.2       4 UNK         0.4949 
     33 O          24.9541  -26.4132  -39.3070 O.2       4 UNK        -0.5039 
     34 N          23.8358  -25.5577  -41.0919 N.am      5 UNK        -0.4663 
     35 CA         24.9767  -25.3265  -41.9860 C.3       5 UNK         0.0242 
     36 CB         24.4890  -24.6039  -43.2525 C.3       5 UNK        -0.1982 
     37 C          25.7406  -26.6083  -42.3602 C.2       5 UNK         0.5017 
     38 O          26.9701  -26.5829  -42.4181 O.2       5 UNK        -0.5012 
     39 N          24.9993  -27.7017  -42.5748 N.am      6 UNK        -0.4439 
     40 CA         25.5154  -29.0484  -42.8218 C.3       6 UNK         0.0297 
     41 CB         24.9851  -29.5391  -44.1801 C.3       6 UNK        -0.2006 
     42 C          25.1270  -29.9952  -41.6712 C.2       6 UNK         0.4892 
     43 O          24.9759  -31.1979  -41.8996 O.2       6 UNK        -0.5089 
     44 N          24.9568  -29.4354  -40.4614 N.am      7 UNK        -0.4243 
     45 CA         24.5500  -30.0631  -39.1969 C.3       7 UNK         0.0196 
     46 CB         25.6043  -31.0756  -38.7050 C.3       7 UNK        -0.2007 
     47 C          23.1408  -30.6781  -39.2367 C.2       7 UNK         0.5020 
     48 O          22.2459  -30.1920  -38.5474 O.2       7 UNK        -0.5147 
     49 N          22.9718  -31.7269  -40.0442 N.am      8 UNK        -0.4734 
     50 CA         21.7185  -32.4491  -40.2613 C.3       8 UNK         0.0238 
     51 CB         21.5860  -33.5690  -39.2115 C.3       8 UNK        -0.1912 
     52 C          21.5900  -32.9969  -41.6954 C.2       8 UNK         0.5038 
     53 O          20.6235  -33.7106  -41.9656 O.2       8 UNK        -0.5046 
     54 N          22.5559  -32.6942  -42.5791 N.am      9 UNK        -0.4200 
     55 CA         22.6585  -33.2136  -43.9566 C.3       9 UNK         0.0839 
     56 C          22.9080  -34.7516  -44.0508 C.2       9 UNK         0.5513 
     57 N          23.3978  -35.4058  -43.0040 N.am      9 UNK        -0.7519 
     58 O          22.6896  -35.3613  -45.0948 O.2       9 UNK        -0.4960 
     59 C59        21.5061  -32.7273  -44.8838 C.3       10 UNK        -0.0876 
     60 S60        21.5201  -30.9194  -45.1031 S.3       10 UNK        -0.2414 
     61 C61        20.1193  -30.6948  -46.2525 C.3       10 UNK         0.0169 
     62 H62        15.3620  -27.5920  -42.0475 H         1 UNK         0.0903 
     63 H63        16.2491  -26.7808  -40.7495 H         1 UNK         0.0903 
     64 H64        14.7766  -26.0635  -41.3965 H         1 UNK         0.0903 
     65 H65        16.1001  -27.1979  -44.1491 H         1 UNK         0.3096 
     66 H66        16.8140  -24.6380  -45.0587 H         1 UNK         0.1121 
     67 H67        16.9014  -25.5241  -47.2087 H         1 UNK         0.0849 
     68 H68        17.5689  -27.0436  -46.7359 H         1 UNK         0.0849 
     69 H69        14.5573  -29.3448  -46.6614 H         1 UNK         0.0865 
     70 H70        15.7678  -28.9209  -47.8373 H         1 UNK         0.0865 
     71 H71        18.0102  -29.5486  -47.4490 H         1 UNK         0.1346 
     72 H72        19.2492  -31.0341  -43.6355 H         1 UNK         0.1412 
     73 H73        15.3157  -29.3952  -44.1221 H         1 UNK         0.1426 
     74 H74        16.2684  -29.7471  -41.8299 H         1 UNK         0.0716 
     75 H75        16.3047  -31.4352  -42.2501 H         1 UNK         0.0716 
     76 H76        17.8017  -28.4998  -40.5864 H         1 UNK         0.0695 
     77 H77        18.5707  -29.3687  -39.2913 H         1 UNK         0.0695 
     78 H78        20.7190  -29.3773  -40.8093 H         1 UNK         0.0983 
     79 H79        19.0462  -27.5362  -42.3437 H         1 UNK         0.3095 
     80 H80        21.1064  -25.7544  -43.7778 H         1 UNK         0.0454 
     81 H81        21.2519  -28.0954  -45.7329 H         1 UNK         0.0851 
     82 H82        21.5530  -26.4025  -46.0931 H         1 UNK         0.0851 
     83 H83        22.6542  -27.2853  -45.0519 H         1 UNK         0.0851 
     84 H84        18.7971  -27.4974  -44.3269 H         1 UNK         0.2976 
     85 H85        22.2146  -27.4697  -40.7606 H         1 UNK         0.3116 
     86 H86        22.7718  -26.7025  -38.1492 H         1 UNK         0.0646 
     87 H87        22.5820  -24.1578  -38.3934 H         1 UNK         0.0847 
     88 H88        21.0344  -24.9535  -38.2085 H         1 UNK         0.0847 
     89 H89        21.5513  -24.4013  -39.7976 H         1 UNK         0.0847 
     90 H90        22.9305  -25.2816  -41.4428 H         1 UNK         0.3040 
     91 H91        25.6776  -24.6709  -41.4642 H         1 UNK         0.1015 
     92 H92        24.0291  -23.6453  -43.0112 H         1 UNK         0.0786 
     93 H93        23.7590  -25.1983  -43.8033 H         1 UNK         0.0786 
     94 H94        25.3199  -24.4002  -43.9296 H         1 UNK         0.0786 
     95 H95        23.9854  -27.6297  -42.5243 H         1 UNK         0.3172 
     96 H96        26.6061  -29.0422  -42.8652 H         1 UNK         0.0595 
     97 H97        23.8970  -29.5901  -44.1819 H         1 UNK         0.0839 
     98 H98        25.3624  -30.5336  -44.4211 H         1 UNK         0.0839 
     99 H99        25.2889  -28.8736  -44.9879 H         1 UNK         0.0839 
    100 H100       25.1172  -28.4377  -40.3975 H         1 UNK         0.2998 
    101 H101       24.5135  -29.2542  -38.4649 H         1 UNK         0.0822 
    102 H102       26.5719  -30.5950  -38.5601 H         1 UNK         0.0787 
    103 H103       25.3114  -31.5072  -37.7470 H         1 UNK         0.0787 
    104 H104       25.7461  -31.9015  -39.4024 H         1 UNK         0.0787 
    105 H105       23.7732  -32.0021  -40.6035 H         1 UNK         0.3055 
    106 H106       20.8858  -31.7575  -40.1272 H         1 UNK         0.1106 
    107 H107       20.6423  -34.1046  -39.3227 H         1 UNK         0.0828 
    108 H108       22.3905  -34.2996  -39.3004 H         1 UNK         0.0828 
    109 H109       21.6074  -33.1675  -38.1983 H         1 UNK         0.0828 
    110 H110       23.3217  -32.0898  -42.3014 H         1 UNK         0.2931 
    111 H111       23.5799  -32.7795  -44.3470 H         1 UNK         0.0412 
    112 H112       23.5669  -36.3969  -43.0765 H         1 UNK         0.3472 
    113 H113       23.6026  -34.9196  -42.1463 H         1 UNK         0.3472 
    114 H114       21.6028  -33.1679  -45.8776 H         1 UNK         0.0970 
    115 H115       20.5331  -33.0440  -44.5062 H         1 UNK         0.0970 
    116 H116       20.4029  -29.9212  -46.9671 H         1 UNK         0.0612 
    117 H117       19.9741  -31.6038  -46.8372 H         1 UNK         0.0612 
@<TRIPOS>BOND
     1    1    2 1    
     2    1   62 1    
     3    1   63 1    
     4    1   64 1    
     5    2    3 2    
     6    2    4 am   BACKBONE|DICT|INTERRES
     7    4    5 1    
     8    4   65 1    
     9    5    6 1    
    10    5   25 1    
    11    5   66 1    
    12    6    7 1    
    13    6   67 1    
    14    6   68 1    
    15    7    8 1    
    16    8    9 1    
    17    8   69 1    
    18    8   70 1    
    19    9   10 ar   
    20    9   14 ar   
    21   10   11 ar   
    22   10   71 1    
    23   11   12 ar   
    24   11   61 1    
    25   12   13 ar   
    26   12   72 1    
    27   13   14 ar   
    28   13   15 1    
    29   14   73 1    
    30   15   16 1    
    31   15   74 1    
    32   15   75 1    
    33   16   17 1    
    34   17   18 1    
    35   17   76 1    
    36   17   77 1    
    37   18   19 1    
    38   18   27 1    
    39   18   78 1    
    40   19   20 am   BACKBONE|DICT|INTERRES
    41   19   79 1    
    42   20   21 2    
    43   20   22 1    
    44   22   23 1    
    45   22   24 1    
    46   22   80 1    
    47   23   81 1    
    48   23   82 1    
    49   23   83 1    
    50   24   25 am   BACKBONE|DICT|INTERRES
    51   24   84 1    
    52   25   26 2    
    53   27   28 2    
    54   27   29 am   BACKBONE|DICT|INTERRES
    55   29   30 1    
    56   29   85 1    
    57   30   31 1    
    58   30   32 1    
    59   30   86 1    
    60   31   87 1    
    61   31   88 1    
    62   31   89 1    
    63   32   33 2    
    64   32   34 am   BACKBONE|DICT|INTERRES
    65   34   35 1    
    66   34   90 1    
    67   35   36 1    
    68   35   37 1    
    69   35   91 1    
    70   36   92 1    
    71   36   93 1    
    72   36   94 1    
    73   37   38 2    
    74   37   39 am   BACKBONE|DICT|INTERRES
    75   39   40 1    
    76   39   95 1    
    77   40   41 1    
    78   40   42 1    
    79   40   96 1    
    80   41   97 1    
    81   41   98 1    
    82   41   99 1    
    83   42   43 2    
    84   42   44 am   BACKBONE|DICT|INTERRES
    85   44   45 1    
    86   44  100 1    
    87   45   46 1    
    88   45   47 1    
    89   45  101 1    
    90   46  102 1    
    91   46  103 1    
    92   46  104 1    
    93   47   48 2    
    94   47   49 am   BACKBONE|DICT|INTERRES
    95   49   50 1    
    96   49  105 1    
    97   50   51 1    
    98   50   52 1    
    99   50  106 1    
   100   51  107 1    
   101   51  108 1    
   102   51  109 1    
   103   52   53 2    
   104   52   54 am   BACKBONE|DICT|INTERRES
   105   54   55 1    
   106   54  110 1    
   107   55   56 1    
   108   55   59 1    
   109   55  111 1    
   110   56   57 am   BACKBONE|DICT|INTERRES
   111   56   58 2    
   112   57  112 1    
   113   57  113 1    
   114   59   60 1    
   115   59  114 1    
   116   59  115 1    
   117   60   61 1    
   118   61  116 1    
   119   61  117 1    
@<TRIPOS>SUBSTRUCTURE
     1 UNK         1 GROUP             0       ****    0 ROOT    
