@<TRIPOS>MOLECULE
3R8
117   119    1
SMALL
USER_CHARGES


@<TRIPOS>ATOM
      1 CA         22.7183  -27.4399  -47.9248 C.3       0 UNK        -0.2013 
      2 C          21.2828  -27.7332  -47.5158 C.2       0 UNK         0.4866 
      3 O          20.8427  -28.8777  -47.6164 O.2       0 UNK        -0.5176 
      4 N          20.5562  -26.7083  -47.0530 N.am      1 UNK        -0.4884 
      5 CA         19.1625  -26.8068  -46.5971 C.3       1 UNK         0.0853 
      6 C6         18.1838  -26.3758  -47.7219 C.3       10 UNK        -0.0849 
      7 S7         16.4844  -27.0273  -47.5783 S.3       10 UNK        -0.2776 
      8 C8         16.7181  -28.8321  -47.7533 C.3       10 UNK         0.0316 
      9 C9         16.9321  -29.5608  -46.4261 C.ar      10 UNK        -0.0863 
     10 C10        17.8575  -30.6077  -46.3464 C.ar      10 UNK        -0.1009 
     11 C11        18.0236  -31.3282  -45.1576 C.ar      10 UNK        -0.0712 
     12 C12        17.2629  -30.9842  -44.0364 C.ar      10 UNK        -0.0894 
     13 C13        16.3583  -29.9233  -44.0912 C.ar      10 UNK        -0.0745 
     14 C14        16.1856  -29.2271  -45.2900 C.ar      10 UNK        -0.0972 
     15 C15        15.5542  -29.5324  -42.8626 C.3       10 UNK         0.0209 
     16 S16        16.2660  -28.0717  -42.0442 S.3       10 UNK        -0.2568 
     17 C17        17.6133  -28.7772  -41.0281 C.3       10 UNK        -0.0983 
     18 CA         19.0511  -28.4593  -41.5317 C.3       3 UNK         0.0876 
     19 N          19.1842  -27.0787  -42.0159 N.am      3 UNK        -0.4424 
     20 C          20.3003  -26.4166  -42.3505 C.2       2 UNK         0.4918 
     21 O          21.4494  -26.7891  -42.1110 O.2       2 UNK        -0.4875 
     22 CA         20.0804  -25.1761  -43.2282 C.3       2 UNK         0.0481 
     23 CB         21.1943  -24.1279  -43.0720 C.3       2 UNK        -0.1831 
     24 N          20.0461  -25.6338  -44.6161 N.am      2 UNK        -0.4498 
     25 C          18.9503  -26.0762  -45.2506 C.2       1 UNK         0.5027 
     26 O          17.8182  -25.9558  -44.7826 O.2       1 UNK        -0.4969 
     27 C          20.0861  -28.8676  -40.4633 C.2       3 UNK         0.5005 
     28 O          20.8221  -29.8363  -40.6593 O.2       3 UNK        -0.5279 
     29 N          20.1168  -28.1208  -39.3530 N.am      4 UNK        -0.4463 
     30 CA         21.0027  -28.3682  -38.2189 C.3       4 UNK         0.0283 
     31 CB         20.3521  -27.8167  -36.9401 C.3       4 UNK        -0.1875 
     32 C          22.3727  -27.7164  -38.4416 C.2       4 UNK         0.4949 
     33 O          22.4354  -26.5658  -38.8792 O.2       4 UNK        -0.5039 
     34 N          23.4333  -28.4531  -38.0843 N.am      5 UNK        -0.4663 
     35 CA         24.8562  -28.0781  -38.0411 C.3       5 UNK         0.0242 
     36 CB         25.1000  -26.9575  -37.0110 C.3       5 UNK        -0.1982 
     37 C          25.5048  -27.7256  -39.3927 C.2       5 UNK         0.5017 
     38 O          26.5845  -28.2397  -39.6838 O.2       5 UNK        -0.5012 
     39 N          24.8622  -26.8520  -40.1758 N.am      6 UNK        -0.4439 
     40 CA         25.3370  -26.3725  -41.4734 C.3       6 UNK         0.0297 
     41 CB         24.5958  -25.0823  -41.8528 C.3       6 UNK        -0.2006 
     42 C          25.2183  -27.4556  -42.5549 C.2       6 UNK         0.4892 
     43 O          26.2394  -27.8709  -43.1045 O.2       6 UNK        -0.5089 
     44 N          23.9879  -27.9218  -42.8150 N.am      7 UNK        -0.4243 
     45 CA         23.7313  -29.0905  -43.6633 C.3       7 UNK         0.0196 
     46 CB         22.2800  -29.0583  -44.1653 C.3       7 UNK        -0.2007 
     47 C          24.0213  -30.4084  -42.9224 C.2       7 UNK         0.5020 
     48 O          24.3757  -31.3938  -43.5694 O.2       7 UNK        -0.5147 
     49 N          23.8833  -30.3868  -41.5860 N.am      8 UNK        -0.4734 
     50 CA         24.1035  -31.4904  -40.6415 C.3       8 UNK         0.0238 
     51 CB         25.5961  -31.8801  -40.5926 C.3       8 UNK        -0.1912 
     52 C          23.1699  -32.6891  -40.8993 C.2       8 UNK         0.5038 
     53 O          23.6054  -33.8413  -40.8472 O.2       8 UNK        -0.5046 
     54 N          21.8983  -32.3827  -41.1753 N.am      9 UNK        -0.4200 
     55 CA         20.8307  -33.3490  -41.4649 C.3       9 UNK         0.0839 
     56 C          20.2037  -33.9982  -40.1977 C.2       9 UNK         0.5513 
     57 N          20.5028  -33.5341  -38.9899 N.am      9 UNK        -0.7519 
     58 O          19.4347  -34.9487  -40.3142 O.2       9 UNK        -0.4960 
     59 C59        19.7395  -32.7122  -42.3621 C.3       10 UNK        -0.0876 
     60 S60        20.3997  -32.1748  -43.9793 S.3       10 UNK        -0.2414 
     61 C61        18.9995  -32.4971  -45.0985 C.3       10 UNK         0.0169 
     62 H62        22.9723  -26.3869  -47.8058 H         1 UNK         0.0903 
     63 H63        23.4067  -28.0256  -47.3160 H         1 UNK         0.0903 
     64 H64        22.8730  -27.7099  -48.9691 H         1 UNK         0.0903 
     65 H65        20.9539  -25.7784  -47.0479 H         1 UNK         0.3096 
     66 H66        18.9672  -27.8508  -46.3530 H         1 UNK         0.1121 
     67 H67        18.1353  -25.2875  -47.7889 H         1 UNK         0.0849 
     68 H68        18.5624  -26.7089  -48.6898 H         1 UNK         0.0849 
     69 H69        17.5452  -29.0227  -48.4394 H         1 UNK         0.0865 
     70 H70        15.8279  -29.2490  -48.2261 H         1 UNK         0.0865 
     71 H71        18.4401  -30.8738  -47.2182 H         1 UNK         0.1346 
     72 H72        17.3716  -31.5405  -43.1180 H         1 UNK         0.1412 
     73 H73        15.4695  -28.4177  -45.3322 H         1 UNK         0.1426 
     74 H74        15.4806  -30.3613  -42.1570 H         1 UNK         0.0716 
     75 H75        14.5312  -29.2997  -43.1620 H         1 UNK         0.0716 
     76 H76        17.4786  -29.8570  -40.9435 H         1 UNK         0.0695 
     77 H77        17.4617  -28.3828  -40.0216 H         1 UNK         0.0695 
     78 H78        19.2367  -29.0904  -42.4034 H         1 UNK         0.0983 
     79 H79        18.3066  -26.6726  -42.3137 H         1 UNK         0.3095 
     80 H80        19.1341  -24.7070  -42.9499 H         1 UNK         0.0454 
     81 H81        21.3421  -23.8651  -42.0237 H         1 UNK         0.0851 
     82 H82        20.9449  -23.2100  -43.6042 H         1 UNK         0.0851 
     83 H83        22.1463  -24.4858  -43.4633 H         1 UNK         0.0851 
     84 H84        20.9426  -25.8289  -45.0360 H         1 UNK         0.2976 
     85 H85        19.5413  -27.2922  -39.3105 H         1 UNK         0.3116 
     86 H86        21.1307  -29.4463  -38.0965 H         1 UNK         0.0646 
     87 H87        19.3871  -28.2869  -36.7505 H         1 UNK         0.0847 
     88 H88        20.1953  -26.7386  -36.9977 H         1 UNK         0.0847 
     89 H89        20.9807  -28.0069  -36.0690 H         1 UNK         0.0847 
     90 H90        23.2425  -29.3846  -37.7412 H         1 UNK         0.3040 
     91 H91        25.3791  -28.9653  -37.6787 H         1 UNK         0.1015 
     92 H92        26.1645  -26.7364  -36.9201 H         1 UNK         0.0786 
     93 H93        24.7444  -27.2449  -36.0215 H         1 UNK         0.0786 
     94 H94        24.5999  -26.0293  -37.2895 H         1 UNK         0.0786 
     95 H95        23.9564  -26.5181  -39.8474 H         1 UNK         0.3172 
     96 H96        26.3964  -26.1242  -41.3778 H         1 UNK         0.0595 
     97 H97        24.8088  -24.7869  -42.8811 H         1 UNK         0.0839 
     98 H98        24.8957  -24.2554  -41.2089 H         1 UNK         0.0839 
     99 H99        23.5186  -25.1986  -41.7529 H         1 UNK         0.0839 
    100 H100       23.1788  -27.4937  -42.3692 H         1 UNK         0.2998 
    101 H101       24.3889  -29.0414  -44.5339 H         1 UNK         0.0822 
    102 H102       22.1135  -29.8288  -44.9190 H         1 UNK         0.0787 
    103 H103       22.0369  -28.0999  -44.6215 H         1 UNK         0.0787 
    104 H104       21.5698  -29.2357  -43.3575 H         1 UNK         0.0787 
    105 H105       23.5390  -29.5277  -41.1814 H         1 UNK         0.3055 
    106 H106       23.8336  -31.1097  -39.6557 H         1 UNK         0.1106 
    107 H107       26.2254  -31.0137  -40.3887 H         1 UNK         0.0828 
    108 H108       25.7844  -32.6096  -39.8041 H         1 UNK         0.0828 
    109 H109       25.9302  -32.3232  -41.5312 H         1 UNK         0.0828 
    110 H110       21.6107  -31.4062  -41.1474 H         1 UNK         0.2931 
    111 H111       21.2734  -34.1724  -42.0290 H         1 UNK         0.0412 
    112 H112       21.1252  -32.7496  -38.8864 H         1 UNK         0.3472 
    113 H113       20.0932  -33.9677  -38.1774 H         1 UNK         0.3472 
    114 H114       19.2963  -31.8509  -41.8602 H         1 UNK         0.0970 
    115 H115       18.9290  -33.4235  -42.5306 H         1 UNK         0.0970 
    116 H116       19.4053  -32.6977  -46.0911 H         1 UNK         0.0612 
    117 H117       18.4738  -33.4052  -44.8011 H         1 UNK         0.0612 
@<TRIPOS>BOND
     1    1    2 1    
     2    1   62 1    
     3    1   63 1    
     4    1   64 1    
     5    2    3 2    
     6    2    4 am   BACKBONE|DICT|INTERRES
     7    4    5 1    
     8    4   65 1    
     9    5    6 1    
    10    5   25 1    
    11    5   66 1    
    12    6    7 1    
    13    6   67 1    
    14    6   68 1    
    15    7    8 1    
    16    8    9 1    
    17    8   69 1    
    18    8   70 1    
    19    9   10 ar   
    20    9   14 ar   
    21   10   11 ar   
    22   10   71 1    
    23   11   12 ar   
    24   11   61 1    
    25   12   13 ar   
    26   12   72 1    
    27   13   14 ar   
    28   13   15 1    
    29   14   73 1    
    30   15   16 1    
    31   15   74 1    
    32   15   75 1    
    33   16   17 1    
    34   17   18 1    
    35   17   76 1    
    36   17   77 1    
    37   18   19 1    
    38   18   27 1    
    39   18   78 1    
    40   19   20 am   BACKBONE|DICT|INTERRES
    41   19   79 1    
    42   20   21 2    
    43   20   22 1    
    44   22   23 1    
    45   22   24 1    
    46   22   80 1    
    47   23   81 1    
    48   23   82 1    
    49   23   83 1    
    50   24   25 am   BACKBONE|DICT|INTERRES
    51   24   84 1    
    52   25   26 2    
    53   27   28 2    
    54   27   29 am   BACKBONE|DICT|INTERRES
    55   29   30 1    
    56   29   85 1    
    57   30   31 1    
    58   30   32 1    
    59   30   86 1    
    60   31   87 1    
    61   31   88 1    
    62   31   89 1    
    63   32   33 2    
    64   32   34 am   BACKBONE|DICT|INTERRES
    65   34   35 1    
    66   34   90 1    
    67   35   36 1    
    68   35   37 1    
    69   35   91 1    
    70   36   92 1    
    71   36   93 1    
    72   36   94 1    
    73   37   38 2    
    74   37   39 am   BACKBONE|DICT|INTERRES
    75   39   40 1    
    76   39   95 1    
    77   40   41 1    
    78   40   42 1    
    79   40   96 1    
    80   41   97 1    
    81   41   98 1    
    82   41   99 1    
    83   42   43 2    
    84   42   44 am   BACKBONE|DICT|INTERRES
    85   44   45 1    
    86   44  100 1    
    87   45   46 1    
    88   45   47 1    
    89   45  101 1    
    90   46  102 1    
    91   46  103 1    
    92   46  104 1    
    93   47   48 2    
    94   47   49 am   BACKBONE|DICT|INTERRES
    95   49   50 1    
    96   49  105 1    
    97   50   51 1    
    98   50   52 1    
    99   50  106 1    
   100   51  107 1    
   101   51  108 1    
   102   51  109 1    
   103   52   53 2    
   104   52   54 am   BACKBONE|DICT|INTERRES
   105   54   55 1    
   106   54  110 1    
   107   55   56 1    
   108   55   59 1    
   109   55  111 1    
   110   56   57 am   BACKBONE|DICT|INTERRES
   111   56   58 2    
   112   57  112 1    
   113   57  113 1    
   114   59   60 1    
   115   59  114 1    
   116   59  115 1    
   117   60   61 1    
   118   61  116 1    
   119   61  117 1    
@<TRIPOS>SUBSTRUCTURE
     1 UNK         1 GROUP             0       ****    0 ROOT    
