@<TRIPOS>MOLECULE
3R8
117   119    1
SMALL
USER_CHARGES


@<TRIPOS>ATOM
      1 CA         16.2232  -26.6407  -39.4698 C.3       0 UNK        -0.2013 
      2 C          16.9939  -26.7841  -40.7740 C.2       0 UNK         0.4866 
      3 O          17.3955  -27.8934  -41.1229 O.2       0 UNK        -0.5176 
      4 N          17.1819  -25.6682  -41.4924 N.am      1 UNK        -0.4884 
      5 CA         17.8921  -25.5520  -42.7767 C.3       1 UNK         0.0853 
      6 C6         17.2786  -26.4142  -43.9148 C.3       10 UNK        -0.0849 
      7 S7         15.4642  -26.2603  -44.1161 S.3       10 UNK        -0.2776 
      8 C8         14.8688  -27.9561  -43.7561 C.3       10 UNK         0.0316 
      9 C9         15.7191  -29.0389  -44.4137 C.ar      10 UNK        -0.0863 
     10 C10        16.3186  -30.0317  -43.6304 C.ar      10 UNK        -0.1009 
     11 C11        17.1977  -30.9557  -44.2040 C.ar      10 UNK        -0.0712 
     12 C12        17.4572  -30.8954  -45.5752 C.ar      10 UNK        -0.0894 
     13 C13        16.9052  -29.8770  -46.3561 C.ar      10 UNK        -0.0745 
     14 C14        16.0027  -28.9801  -45.7814 C.ar      10 UNK        -0.0972 
     15 C15        17.3593  -29.6741  -47.7916 C.3       10 UNK         0.0209 
     16 S16        18.7204  -28.4577  -47.8630 S.3       10 UNK        -0.2568 
     17 C17        20.1332  -29.4773  -47.3269 C.3       10 UNK        -0.0983 
     18 CA         21.3584  -28.6583  -46.8530 C.3       3 UNK         0.0876 
     19 N          21.0902  -27.8632  -45.6403 N.am      3 UNK        -0.4424 
     20 C          21.9219  -26.9179  -45.1697 C.2       2 UNK         0.4918 
     21 O          22.9533  -26.5818  -45.7533 O.2       2 UNK        -0.4875 
     22 CA         21.5492  -26.2355  -43.8397 C.3       2 UNK         0.0481 
     23 CB         22.3350  -24.9282  -43.5972 C.3       2 UNK        -0.1831 
     24 N          20.1098  -25.9836  -43.7613 N.am      2 UNK        -0.4498 
     25 C          19.4158  -25.7984  -42.6282 C.2       1 UNK         0.5027 
     26 O          19.9383  -25.7940  -41.5104 O.2       1 UNK        -0.4969 
     27 C          22.5569  -29.6146  -46.6675 C.2       3 UNK         0.5005 
     28 O          23.2708  -29.8884  -47.6341 O.2       3 UNK        -0.5279 
     29 N          22.7493  -30.1053  -45.4382 N.am      4 UNK        -0.4463 
     30 CA         23.8448  -30.9704  -45.0229 C.3       4 UNK         0.0283 
     31 CB         23.3914  -32.4391  -45.0835 C.3       4 UNK        -0.1875 
     32 C          24.2443  -30.5807  -43.5983 C.2       4 UNK         0.4949 
     33 O          23.4334  -29.9958  -42.8744 O.2       4 UNK        -0.5039 
     34 N          25.4909  -30.9037  -43.2280 N.am      5 UNK        -0.4663 
     35 CA         26.1259  -30.7651  -41.9042 C.3       5 UNK         0.0242 
     36 CB         25.4055  -31.6622  -40.8772 C.3       5 UNK        -0.1982 
     37 C          26.2584  -29.3326  -41.3465 C.2       5 UNK         0.5017 
     38 O          26.9167  -29.1591  -40.3203 O.2       5 UNK        -0.5012 
     39 N          25.6015  -28.3495  -41.9765 N.am      6 UNK        -0.4439 
     40 CA         25.3662  -26.9617  -41.5554 C.3       6 UNK         0.0297 
     41 CB         26.6766  -26.1860  -41.3200 C.3       6 UNK        -0.2006 
     42 C          24.4169  -26.8600  -40.3480 C.2       6 UNK         0.4892 
     43 O          23.4640  -26.0826  -40.3895 O.2       6 UNK        -0.5089 
     44 N          24.6606  -27.6741  -39.3153 N.am      7 UNK        -0.4243 
     45 CA         23.8348  -27.8305  -38.1212 C.3       7 UNK         0.0196 
     46 CB         24.7196  -28.3698  -36.9816 C.3       7 UNK        -0.2007 
     47 C          22.6080  -28.7238  -38.3920 C.2       7 UNK         0.5020 
     48 O          22.4908  -29.8000  -37.8033 O.2       7 UNK        -0.5147 
     49 N          21.7175  -28.2567  -39.2795 N.am      8 UNK        -0.4734 
     50 CA         20.3785  -28.7942  -39.5677 C.3       8 UNK         0.0238 
     51 CB         19.4284  -28.4410  -38.4033 C.3       8 UNK        -0.1912 
     52 C          20.3453  -30.2980  -39.9138 C.2       8 UNK         0.5038 
     53 O          19.4888  -31.0246  -39.4047 O.2       8 UNK        -0.5046 
     54 N          21.2924  -30.7418  -40.7517 N.am      9 UNK        -0.4200 
     55 CA         21.4797  -32.1430  -41.1722 C.3       9 UNK         0.0839 
     56 C          21.9792  -33.1012  -40.0479 C.2       9 UNK         0.5513 
     57 N          22.3982  -32.6147  -38.8849 N.am      9 UNK        -0.7519 
     58 O          22.0228  -34.3128  -40.2454 O.2       9 UNK        -0.4960 
     59 C59        20.2687  -32.7300  -41.9579 C.3       10 UNK        -0.0876 
     60 S60        19.7233  -31.6615  -43.3349 S.3       10 UNK        -0.2414 
     61 C61        17.9258  -31.9713  -43.3354 C.3       10 UNK         0.0169 
     62 H62        15.4696  -27.4238  -39.3911 H         1 UNK         0.0903 
     63 H63        16.8985  -26.7302  -38.6200 H         1 UNK         0.0903 
     64 H64        15.7158  -25.6786  -39.4015 H         1 UNK         0.0903 
     65 H65        16.8407  -24.7925  -41.1216 H         1 UNK         0.3096 
     66 H66        17.7936  -24.5056  -43.0701 H         1 UNK         0.1121 
     67 H67        17.7071  -26.1393  -44.8797 H         1 UNK         0.0849 
     68 H68        17.5619  -27.4539  -43.7570 H         1 UNK         0.0849 
     69 H69        14.8487  -28.0900  -42.6735 H         1 UNK         0.0865 
     70 H70        13.8375  -28.0531  -44.0973 H         1 UNK         0.0865 
     71 H71        16.1425  -30.0522  -42.5632 H         1 UNK         0.1346 
     72 H72        18.1540  -31.5963  -46.0138 H         1 UNK         0.1412 
     73 H73        15.5864  -28.1817  -46.3808 H         1 UNK         0.1426 
     74 H74        17.6773  -30.6177  -48.2380 H         1 UNK         0.0716 
     75 H75        16.5259  -29.3122  -48.3957 H         1 UNK         0.0716 
     76 H76        20.3992  -30.1136  -48.1739 H         1 UNK         0.0695 
     77 H77        19.8231  -30.1505  -46.5298 H         1 UNK         0.0695 
     78 H78        21.6294  -27.9640  -47.6517 H         1 UNK         0.0983 
     79 H79        20.2585  -28.1027  -45.1206 H         1 UNK         0.3095 
     80 H80        21.8205  -26.9448  -43.0544 H         1 UNK         0.0454 
     81 H81        22.1428  -24.5251  -42.6029 H         1 UNK         0.0851 
     82 H82        22.0728  -24.1623  -44.3276 H         1 UNK         0.0851 
     83 H83        23.4107  -25.0900  -43.6667 H         1 UNK         0.0851 
     84 H84        19.6258  -25.9378  -44.6477 H         1 UNK         0.2976 
     85 H85        22.1568  -29.7949  -44.6784 H         1 UNK         0.3116 
     86 H86        24.7067  -30.8226  -45.6774 H         1 UNK         0.0646 
     87 H87        22.5347  -32.6234  -44.4340 H         1 UNK         0.0847 
     88 H88        23.1079  -32.7236  -46.0968 H         1 UNK         0.0847 
     89 H89        24.1902  -33.1121  -44.7697 H         1 UNK         0.0847 
     90 H90        26.0782  -31.3406  -43.9264 H         1 UNK         0.3040 
     91 H91        27.1451  -31.1387  -42.0174 H         1 UNK         0.1015 
     92 H92        24.4115  -31.2823  -40.6410 H         1 UNK         0.0786 
     93 H93        25.9604  -31.7096  -39.9392 H         1 UNK         0.0786 
     94 H94        25.2988  -32.6842  -41.2406 H         1 UNK         0.0786 
     95 H95        25.0074  -28.6623  -42.7351 H         1 UNK         0.3172 
     96 H96        24.8569  -26.4896  -42.3959 H         1 UNK         0.0595 
     97 H97        27.2321  -26.5626  -40.4609 H         1 UNK         0.0839 
     98 H98        26.4711  -25.1316  -41.1314 H         1 UNK         0.0839 
     99 H99        27.3297  -26.2382  -42.1909 H         1 UNK         0.0839 
    100 H100       25.4660  -28.2879  -39.3975 H         1 UNK         0.2998 
    101 H101       23.4622  -26.8495  -37.8184 H         1 UNK         0.0822 
    102 H102       24.1459  -28.4824  -36.0606 H         1 UNK         0.0787 
    103 H103       25.1420  -29.3455  -37.2258 H         1 UNK         0.0787 
    104 H104       25.5457  -27.6917  -36.7664 H         1 UNK         0.0787 
    105 H105       21.9523  -27.3875  -39.7506 H         1 UNK         0.3055 
    106 H106       20.0180  -28.2776  -40.4585 H         1 UNK         0.1106 
    107 H107       19.4012  -27.3657  -38.2283 H         1 UNK         0.0828 
    108 H108       18.4079  -28.7583  -38.6205 H         1 UNK         0.0828 
    109 H109       19.7293  -28.9278  -37.4750 H         1 UNK         0.0828 
    110 H110       21.9662  -30.0887  -41.1301 H         1 UNK         0.2931 
    111 H111       22.3116  -32.1146  -41.8736 H         1 UNK         0.0412 
    112 H112       22.3564  -31.6214  -38.6827 H         1 UNK         0.3472 
    113 H113       22.7280  -33.2522  -38.1782 H         1 UNK         0.3472 
    114 H114       20.5251  -33.7035  -42.3794 H         1 UNK         0.0970 
    115 H115       19.4336  -32.9087  -41.2792 H         1 UNK         0.0970 
    116 H116       17.7302  -32.9792  -43.7035 H         1 UNK         0.0612 
    117 H117       17.5518  -31.9295  -42.3112 H         1 UNK         0.0612 
@<TRIPOS>BOND
     1    1    2 1    
     2    1   62 1    
     3    1   63 1    
     4    1   64 1    
     5    2    3 2    
     6    2    4 am   BACKBONE|DICT|INTERRES
     7    4    5 1    
     8    4   65 1    
     9    5    6 1    
    10    5   25 1    
    11    5   66 1    
    12    6    7 1    
    13    6   67 1    
    14    6   68 1    
    15    7    8 1    
    16    8    9 1    
    17    8   69 1    
    18    8   70 1    
    19    9   10 ar   
    20    9   14 ar   
    21   10   11 ar   
    22   10   71 1    
    23   11   12 ar   
    24   11   61 1    
    25   12   13 ar   
    26   12   72 1    
    27   13   14 ar   
    28   13   15 1    
    29   14   73 1    
    30   15   16 1    
    31   15   74 1    
    32   15   75 1    
    33   16   17 1    
    34   17   18 1    
    35   17   76 1    
    36   17   77 1    
    37   18   19 1    
    38   18   27 1    
    39   18   78 1    
    40   19   20 am   BACKBONE|DICT|INTERRES
    41   19   79 1    
    42   20   21 2    
    43   20   22 1    
    44   22   23 1    
    45   22   24 1    
    46   22   80 1    
    47   23   81 1    
    48   23   82 1    
    49   23   83 1    
    50   24   25 am   BACKBONE|DICT|INTERRES
    51   24   84 1    
    52   25   26 2    
    53   27   28 2    
    54   27   29 am   BACKBONE|DICT|INTERRES
    55   29   30 1    
    56   29   85 1    
    57   30   31 1    
    58   30   32 1    
    59   30   86 1    
    60   31   87 1    
    61   31   88 1    
    62   31   89 1    
    63   32   33 2    
    64   32   34 am   BACKBONE|DICT|INTERRES
    65   34   35 1    
    66   34   90 1    
    67   35   36 1    
    68   35   37 1    
    69   35   91 1    
    70   36   92 1    
    71   36   93 1    
    72   36   94 1    
    73   37   38 2    
    74   37   39 am   BACKBONE|DICT|INTERRES
    75   39   40 1    
    76   39   95 1    
    77   40   41 1    
    78   40   42 1    
    79   40   96 1    
    80   41   97 1    
    81   41   98 1    
    82   41   99 1    
    83   42   43 2    
    84   42   44 am   BACKBONE|DICT|INTERRES
    85   44   45 1    
    86   44  100 1    
    87   45   46 1    
    88   45   47 1    
    89   45  101 1    
    90   46  102 1    
    91   46  103 1    
    92   46  104 1    
    93   47   48 2    
    94   47   49 am   BACKBONE|DICT|INTERRES
    95   49   50 1    
    96   49  105 1    
    97   50   51 1    
    98   50   52 1    
    99   50  106 1    
   100   51  107 1    
   101   51  108 1    
   102   51  109 1    
   103   52   53 2    
   104   52   54 am   BACKBONE|DICT|INTERRES
   105   54   55 1    
   106   54  110 1    
   107   55   56 1    
   108   55   59 1    
   109   55  111 1    
   110   56   57 am   BACKBONE|DICT|INTERRES
   111   56   58 2    
   112   57  112 1    
   113   57  113 1    
   114   59   60 1    
   115   59  114 1    
   116   59  115 1    
   117   60   61 1    
   118   61  116 1    
   119   61  117 1    
@<TRIPOS>SUBSTRUCTURE
     1 UNK         1 GROUP             0       ****    0 ROOT    
