@<TRIPOS>MOLECULE
3R8
117   119    1
SMALL
USER_CHARGES


@<TRIPOS>ATOM
      1 CA         18.1362  -27.4608  -41.3099 C.3       0 UNK        -0.2013 
      2 C          17.7838  -26.3364  -42.2667 C.2       0 UNK         0.4866 
      3 O          17.7686  -25.1695  -41.8733 O.2       0 UNK        -0.5176 
      4 N          17.4960  -26.6776  -43.5279 N.am      1 UNK        -0.4884 
      5 CA         16.9863  -25.7681  -44.5635 C.3       1 UNK         0.0853 
      6 C6         16.1308  -26.5135  -45.6247 C.3       10 UNK        -0.0849 
      7 S7         14.7935  -27.5229  -44.8878 S.3       10 UNK        -0.2776 
      8 C8         15.2707  -29.2229  -45.3507 C.3       10 UNK         0.0316 
      9 C9         16.5565  -29.6703  -44.6680 C.ar      10 UNK        -0.0863 
     10 C10        16.5282  -30.1914  -43.3694 C.ar      10 UNK        -0.1009 
     11 C11        17.7129  -30.5871  -42.7378 C.ar      10 UNK        -0.0712 
     12 C12        18.9284  -30.4569  -43.4146 C.ar      10 UNK        -0.0894 
     13 C13        18.9672  -29.9360  -44.7100 C.ar      10 UNK        -0.0745 
     14 C14        17.7785  -29.5599  -45.3376 C.ar      10 UNK        -0.0972 
     15 C15        20.2984  -29.7346  -45.4113 C.3       10 UNK         0.0209 
     16 S16        21.1915  -28.3647  -44.6255 S.3       10 UNK        -0.2568 
     17 C17        21.9861  -27.5313  -46.0414 C.3       10 UNK        -0.0983 
     18 CA         22.4482  -26.0869  -45.7094 C.3       3 UNK         0.0876 
     19 N          21.3236  -25.2824  -45.2319 N.am      3 UNK        -0.4424 
     20 C          21.2136  -23.9547  -45.3322 C.2       2 UNK         0.4918 
     21 O          22.0419  -23.2490  -45.9108 O.2       2 UNK        -0.4875 
     22 CA         19.9864  -23.2978  -44.6620 C.3       2 UNK         0.0481 
     23 CB         19.4727  -22.0780  -45.4557 C.3       2 UNK        -0.1831 
     24 N          18.8813  -24.2179  -44.3474 N.am      2 UNK        -0.4498 
     25 C          18.1159  -24.9205  -45.1971 C.2       1 UNK         0.5027 
     26 O          18.2811  -24.9245  -46.4182 O.2       1 UNK        -0.4969 
     27 C          23.5992  -26.0826  -44.6797 C.2       3 UNK         0.5005 
     28 O          23.3815  -25.7845  -43.5021 O.2       3 UNK        -0.5279 
     29 N          24.7986  -26.4859  -45.1220 N.am      4 UNK        -0.4463 
     30 CA         25.9575  -26.7194  -44.2498 C.3       4 UNK         0.0283 
     31 CB         27.2263  -26.8358  -45.1097 C.3       4 UNK        -0.1875 
     32 C          25.7999  -27.9659  -43.3552 C.2       4 UNK         0.4949 
     33 O          26.4291  -28.0392  -42.3004 O.2       4 UNK        -0.5039 
     34 N          24.9579  -28.9159  -43.7849 N.am      5 UNK        -0.4663 
     35 CA         24.6585  -30.1698  -43.0882 C.3       5 UNK         0.0242 
     36 CB         24.2461  -31.2213  -44.1330 C.3       5 UNK        -0.1982 
     37 C          23.5710  -30.0354  -42.0064 C.2       5 UNK         0.5017 
     38 O          23.2245  -31.0452  -41.3927 O.2       5 UNK        -0.5012 
     39 N          23.0381  -28.8228  -41.7928 N.am      6 UNK        -0.4439 
     40 CA         21.8928  -28.5157  -40.9262 C.3       6 UNK         0.0297 
     41 CB         21.6224  -27.0028  -40.9714 C.3       6 UNK        -0.2006 
     42 C          22.0127  -28.9885  -39.4671 C.2       6 UNK         0.4892 
     43 O          20.9924  -29.2980  -38.8517 O.2       6 UNK        -0.5089 
     44 N          23.2461  -29.0494  -38.9481 N.am      7 UNK        -0.4243 
     45 CA         23.5592  -29.5531  -37.6093 C.3       7 UNK         0.0196 
     46 CB         24.9857  -29.1195  -37.2340 C.3       7 UNK        -0.2007 
     47 C          23.4115  -31.0808  -37.4740 C.2       7 UNK         0.5020 
     48 O          23.2237  -31.5617  -36.3561 O.2       7 UNK        -0.5147 
     49 N          23.5164  -31.8140  -38.5905 N.am      8 UNK        -0.4734 
     50 CA         23.4313  -33.2750  -38.6398 C.3       8 UNK         0.0238 
     51 CB         24.6104  -33.8197  -39.4639 C.3       8 UNK        -0.1912 
     52 C          22.1003  -33.7514  -39.2379 C.2       8 UNK         0.5038 
     53 O          21.5395  -34.7289  -38.7415 O.2       8 UNK        -0.5046 
     54 N          21.6273  -33.0687  -40.2909 N.am      9 UNK        -0.4200 
     55 CA         20.4458  -33.4339  -41.0899 C.3       9 UNK         0.0839 
     56 C          20.6144  -34.7650  -41.8898 C.2       9 UNK         0.5513 
     57 N          21.8326  -35.1512  -42.2525 N.am      9 UNK        -0.7519 
     58 O          19.6460  -35.4536  -42.2000 O.2       9 UNK        -0.4960 
     59 C59        19.1256  -33.3340  -40.2696 C.3       10 UNK        -0.0876 
     60 S60        17.6658  -32.9391  -41.2959 S.3       10 UNK        -0.2414 
     61 C61        17.6911  -31.1203  -41.3134 C.3       10 UNK         0.0169 
     62 H62        18.4892  -27.0666  -40.3577 H         1 UNK         0.0903 
     63 H63        17.2589  -28.0761  -41.1139 H         1 UNK         0.0903 
     64 H64        18.9168  -28.0905  -41.7319 H         1 UNK         0.0903 
     65 H65        17.5328  -27.6535  -43.7959 H         1 UNK         0.3096 
     66 H66        16.3192  -25.0532  -44.0758 H         1 UNK         0.1121 
     67 H67        15.6609  -25.7907  -46.2944 H         1 UNK         0.0849 
     68 H68        16.7571  -27.1351  -46.2638 H         1 UNK         0.0849 
     69 H69        15.3672  -29.2909  -46.4356 H         1 UNK         0.0865 
     70 H70        14.4602  -29.9011  -45.0793 H         1 UNK         0.0865 
     71 H71        15.5852  -30.2790  -42.8470 H         1 UNK         0.1346 
     72 H72        19.8520  -30.7323  -42.9260 H         1 UNK         0.1412 
     73 H73        17.8097  -29.1624  -46.3428 H         1 UNK         0.1426 
     74 H74        20.1473  -29.5322  -46.4725 H         1 UNK         0.0716 
     75 H75        20.8965  -30.6444  -45.3482 H         1 UNK         0.0716 
     76 H76        21.2719  -27.4924  -46.8654 H         1 UNK         0.0695 
     77 H77        22.8161  -28.1446  -46.3962 H         1 UNK         0.0695 
     78 H78        22.8291  -25.6340  -46.6276 H         1 UNK         0.0983 
     79 H79        20.6249  -25.7860  -44.7065 H         1 UNK         0.3095 
     80 H80        20.3420  -22.9311  -43.6982 H         1 UNK         0.0454 
     81 H81        18.6260  -21.6069  -44.9569 H         1 UNK         0.0851 
     82 H82        19.1592  -22.3531  -46.4631 H         1 UNK         0.0851 
     83 H83        20.2489  -21.3182  -45.5551 H         1 UNK         0.0851 
     84 H84        18.6616  -24.3247  -43.3593 H         1 UNK         0.2976 
     85 H85        24.9156  -26.7052  -46.1017 H         1 UNK         0.3116 
     86 H86        26.0710  -25.8552  -43.5915 H         1 UNK         0.0646 
     87 H87        28.1086  -26.9804  -44.4844 H         1 UNK         0.0847 
     88 H88        27.3937  -25.9324  -45.6965 H         1 UNK         0.0847 
     89 H89        27.1744  -27.6804  -45.7979 H         1 UNK         0.0847 
     90 H90        24.4744  -28.7626  -44.6574 H         1 UNK         0.3040 
     91 H91        25.5628  -30.5225  -42.5872 H         1 UNK         0.1015 
     92 H92        25.0273  -31.3670  -44.8793 H         1 UNK         0.0786 
     93 H93        23.3321  -30.9342  -44.6543 H         1 UNK         0.0786 
     94 H94        24.0642  -32.1910  -43.6673 H         1 UNK         0.0786 
     95 H95        23.3833  -28.0574  -42.3565 H         1 UNK         0.3172 
     96 H96        21.0313  -29.0325  -41.3517 H         1 UNK         0.0595 
     97 H97        22.5130  -26.4268  -40.7176 H         1 UNK         0.0839 
     98 H98        20.8423  -26.7144  -40.2665 H         1 UNK         0.0839 
     99 H99        21.2934  -26.6886  -41.9620 H         1 UNK         0.0839 
    100 H100       24.0235  -28.7697  -39.5289 H         1 UNK         0.2998 
    101 H101       22.8649  -29.0944  -36.9016 H         1 UNK         0.0822 
    102 H102       25.7276  -29.5381  -37.9153 H         1 UNK         0.0787 
    103 H103       25.0883  -28.0342  -37.2495 H         1 UNK         0.0787 
    104 H104       25.2429  -29.4529  -36.2275 H         1 UNK         0.0787 
    105 H105       23.6106  -31.3366  -39.4810 H         1 UNK         0.3055 
    106 H106       23.5043  -33.6947  -37.6338 H         1 UNK         0.1106 
    107 H107       24.5704  -34.9078  -39.5325 H         1 UNK         0.0828 
    108 H108       24.6128  -33.4269  -40.4815 H         1 UNK         0.0828 
    109 H109       25.5644  -33.5604  -39.0048 H         1 UNK         0.0828 
    110 H110       22.1791  -32.2956  -40.6568 H         1 UNK         0.2931 
    111 H111       20.4077  -32.6626  -41.8575 H         1 UNK         0.0412 
    112 H112       22.6381  -34.5942  -42.0179 H         1 UNK         0.3472 
    113 H113       21.9437  -36.0083  -42.7713 H         1 UNK         0.3472 
    114 H114       18.9371  -34.2658  -39.7335 H         1 UNK         0.0970 
    115 H115       19.2139  -32.5702  -39.4955 H         1 UNK         0.0970 
    116 H116       16.8136  -30.7498  -40.7814 H         1 UNK         0.0612 
    117 H117       18.5582  -30.7401  -40.7707 H         1 UNK         0.0612 
@<TRIPOS>BOND
     1    1    2 1    
     2    1   62 1    
     3    1   63 1    
     4    1   64 1    
     5    2    3 2    
     6    2    4 am   BACKBONE|DICT|INTERRES
     7    4    5 1    
     8    4   65 1    
     9    5    6 1    
    10    5   25 1    
    11    5   66 1    
    12    6    7 1    
    13    6   67 1    
    14    6   68 1    
    15    7    8 1    
    16    8    9 1    
    17    8   69 1    
    18    8   70 1    
    19    9   10 ar   
    20    9   14 ar   
    21   10   11 ar   
    22   10   71 1    
    23   11   12 ar   
    24   11   61 1    
    25   12   13 ar   
    26   12   72 1    
    27   13   14 ar   
    28   13   15 1    
    29   14   73 1    
    30   15   16 1    
    31   15   74 1    
    32   15   75 1    
    33   16   17 1    
    34   17   18 1    
    35   17   76 1    
    36   17   77 1    
    37   18   19 1    
    38   18   27 1    
    39   18   78 1    
    40   19   20 am   BACKBONE|DICT|INTERRES
    41   19   79 1    
    42   20   21 2    
    43   20   22 1    
    44   22   23 1    
    45   22   24 1    
    46   22   80 1    
    47   23   81 1    
    48   23   82 1    
    49   23   83 1    
    50   24   25 am   BACKBONE|DICT|INTERRES
    51   24   84 1    
    52   25   26 2    
    53   27   28 2    
    54   27   29 am   BACKBONE|DICT|INTERRES
    55   29   30 1    
    56   29   85 1    
    57   30   31 1    
    58   30   32 1    
    59   30   86 1    
    60   31   87 1    
    61   31   88 1    
    62   31   89 1    
    63   32   33 2    
    64   32   34 am   BACKBONE|DICT|INTERRES
    65   34   35 1    
    66   34   90 1    
    67   35   36 1    
    68   35   37 1    
    69   35   91 1    
    70   36   92 1    
    71   36   93 1    
    72   36   94 1    
    73   37   38 2    
    74   37   39 am   BACKBONE|DICT|INTERRES
    75   39   40 1    
    76   39   95 1    
    77   40   41 1    
    78   40   42 1    
    79   40   96 1    
    80   41   97 1    
    81   41   98 1    
    82   41   99 1    
    83   42   43 2    
    84   42   44 am   BACKBONE|DICT|INTERRES
    85   44   45 1    
    86   44  100 1    
    87   45   46 1    
    88   45   47 1    
    89   45  101 1    
    90   46  102 1    
    91   46  103 1    
    92   46  104 1    
    93   47   48 2    
    94   47   49 am   BACKBONE|DICT|INTERRES
    95   49   50 1    
    96   49  105 1    
    97   50   51 1    
    98   50   52 1    
    99   50  106 1    
   100   51  107 1    
   101   51  108 1    
   102   51  109 1    
   103   52   53 2    
   104   52   54 am   BACKBONE|DICT|INTERRES
   105   54   55 1    
   106   54  110 1    
   107   55   56 1    
   108   55   59 1    
   109   55  111 1    
   110   56   57 am   BACKBONE|DICT|INTERRES
   111   56   58 2    
   112   57  112 1    
   113   57  113 1    
   114   59   60 1    
   115   59  114 1    
   116   59  115 1    
   117   60   61 1    
   118   61  116 1    
   119   61  117 1    
@<TRIPOS>SUBSTRUCTURE
     1 UNK         1 GROUP             0       ****    0 ROOT    
