@<TRIPOS>MOLECULE
3R8
117   119    1
SMALL
USER_CHARGES


@<TRIPOS>ATOM
      1 CA         18.3589  -28.7297  -42.2740 C.3       0 UNK        -0.2013 
      2 C          18.0223  -27.3849  -42.8917 C.2       0 UNK         0.4866 
      3 O          18.4977  -26.3597  -42.4048 O.2       0 UNK        -0.5176 
      4 N          17.2242  -27.3734  -43.9682 N.am      1 UNK        -0.4884 
      5 CA         16.7807  -26.1663  -44.6732 C.3       1 UNK         0.0853 
      6 C6         15.4904  -26.4082  -45.5045 C.3       10 UNK        -0.0849 
      7 S7         15.5883  -27.5818  -46.9049 S.3       10 UNK        -0.2776 
      8 C8         15.2134  -29.2010  -46.1437 C.3       10 UNK         0.0316 
      9 C9         16.4403  -30.0077  -45.7115 C.ar      10 UNK        -0.0863 
     10 C10        16.3019  -30.9626  -44.6982 C.ar      10 UNK        -0.1009 
     11 C11        17.3841  -31.7613  -44.3151 C.ar      10 UNK        -0.0712 
     12 C12        18.6226  -31.5914  -44.9411 C.ar      10 UNK        -0.0894 
     13 C13        18.7796  -30.6451  -45.9574 C.ar      10 UNK        -0.0745 
     14 C14        17.6844  -29.8659  -46.3426 C.ar      10 UNK        -0.0972 
     15 C15        20.1160  -30.5042  -46.6781 C.3       10 UNK         0.0209 
     16 S16        20.8066  -28.8210  -46.5801 S.3       10 UNK        -0.2568 
     17 C17        21.3025  -28.7370  -44.8299 C.3       10 UNK        -0.0983 
     18 CA         21.8534  -27.3426  -44.4374 C.3       3 UNK         0.0876 
     19 N          20.8775  -26.2799  -44.6875 N.am      3 UNK        -0.4424 
     20 C          21.1591  -24.9922  -44.9201 C.2       2 UNK         0.4918 
     21 O          22.3061  -24.5483  -44.9703 O.2       2 UNK        -0.4875 
     22 CA         19.9713  -24.0192  -45.0948 C.3       2 UNK         0.0481 
     23 CB         19.9782  -23.3525  -46.4856 C.3       2 UNK        -0.1831 
     24 N          18.6609  -24.6050  -44.7658 N.am      2 UNK        -0.4498 
     25 C          17.9598  -25.5279  -45.4439 C.2       1 UNK         0.5027 
     26 O          18.2802  -25.9444  -46.5561 O.2       1 UNK        -0.4969 
     27 C          22.3314  -27.3578  -42.9715 C.2       3 UNK         0.5005 
     28 O          23.3856  -27.9330  -42.7037 O.2       3 UNK        -0.5279 
     29 N          21.5577  -26.7588  -42.0502 N.am      4 UNK        -0.4463 
     30 CA         21.8312  -26.7045  -40.6101 C.3       4 UNK         0.0283 
     31 CB         20.7169  -25.9088  -39.9120 C.3       4 UNK        -0.1875 
     32 C          23.2067  -26.1068  -40.2636 C.2       4 UNK         0.4949 
     33 O          23.6946  -25.2236  -40.9717 O.2       4 UNK        -0.5039 
     34 N          23.8039  -26.6172  -39.1793 N.am      5 UNK        -0.4663 
     35 CA         25.1390  -26.3238  -38.6346 C.3       5 UNK         0.0242 
     36 CB         25.3348  -24.8241  -38.3347 C.3       5 UNK        -0.1982 
     37 C          26.2940  -26.8889  -39.4808 C.2       5 UNK         0.5017 
     38 O          27.2514  -27.4081  -38.9058 O.2       5 UNK        -0.5012 
     39 N          26.1820  -26.8174  -40.8141 N.am      6 UNK        -0.4439 
     40 CA         27.0742  -27.4922  -41.7611 C.3       6 UNK         0.0297 
     41 CB         26.8705  -26.9077  -43.1681 C.3       6 UNK        -0.2006 
     42 C          26.8546  -29.0163  -41.7628 C.2       6 UNK         0.4892 
     43 O          27.8235  -29.7725  -41.8424 O.2       6 UNK        -0.5089 
     44 N          25.5884  -29.4274  -41.6486 N.am      7 UNK        -0.4243 
     45 CA         25.1199  -30.7998  -41.5059 C.3       7 UNK         0.0196 
     46 CB         24.7204  -31.3380  -42.8939 C.3       7 UNK        -0.2007 
     47 C          23.9409  -30.8186  -40.5183 C.2       7 UNK         0.5020 
     48 O          23.5902  -29.7844  -39.9428 O.2       7 UNK        -0.5147 
     49 N          23.3425  -31.9981  -40.3364 N.am      8 UNK        -0.4734 
     50 CA         22.1395  -32.2163  -39.5382 C.3       8 UNK         0.0238 
     51 CB         22.5306  -32.5801  -38.0949 C.3       8 UNK        -0.1912 
     52 C          21.3200  -33.3343  -40.1918 C.2       8 UNK         0.5038 
     53 O          21.8904  -34.1747  -40.8937 O.2       8 UNK        -0.5046 
     54 N          20.0063  -33.3269  -39.9429 N.am      9 UNK        -0.4200 
     55 CA         19.0452  -34.2978  -40.4944 C.3       9 UNK         0.0839 
     56 C          19.0190  -35.6710  -39.7617 C.2       9 UNK         0.5513 
     57 N          19.7160  -35.8474  -38.6454 N.am      9 UNK        -0.7519 
     58 O          18.3571  -36.5981  -40.2212 O.2       9 UNK        -0.4960 
     59 C59        17.6193  -33.6945  -40.6065 C.3       10 UNK        -0.0876 
     60 S60        17.5870  -32.1585  -41.5912 S.3       10 UNK        -0.2414 
     61 C61        17.2145  -32.8233  -43.2399 C.3       10 UNK         0.0169 
     62 H62        17.6519  -28.9659  -41.4795 H         1 UNK         0.0903 
     63 H63        18.3222  -29.5234  -43.0155 H         1 UNK         0.0903 
     64 H64        19.3604  -28.7187  -41.8453 H         1 UNK         0.0903 
     65 H65        16.9217  -28.2480  -44.3780 H         1 UNK         0.3096 
     66 H66        16.4895  -25.4475  -43.9029 H         1 UNK         0.1121 
     67 H67        15.1494  -25.4552  -45.9129 H         1 UNK         0.0849 
     68 H68        14.6873  -26.7292  -44.8394 H         1 UNK         0.0849 
     69 H69        14.5328  -29.0589  -45.3029 H         1 UNK         0.0865 
     70 H70        14.6670  -29.7971  -46.8758 H         1 UNK         0.0865 
     71 H71        15.3437  -31.1003  -44.2151 H         1 UNK         0.1346 
     72 H72        19.4595  -32.2091  -44.6447 H         1 UNK         0.1412 
     73 H73        17.8124  -29.1532  -47.1459 H         1 UNK         0.1426 
     74 H74        19.9723  -30.7597  -47.7287 H         1 UNK         0.0716 
     75 H75        20.8494  -31.2124  -46.2891 H         1 UNK         0.0716 
     76 H76        22.0562  -29.5082  -44.6592 H         1 UNK         0.0695 
     77 H77        20.4445  -29.0031  -44.2124 H         1 UNK         0.0695 
     78 H78        22.7358  -27.1462  -45.0508 H         1 UNK         0.0983 
     79 H79        19.9094  -26.5619  -44.7152 H         1 UNK         0.3095 
     80 H80        20.1240  -23.2293  -44.3580 H         1 UNK         0.0454 
     81 H81        20.8929  -22.7772  -46.6337 H         1 UNK         0.0851 
     82 H82        19.1412  -22.6644  -46.6021 H         1 UNK         0.0851 
     83 H83        19.9289  -24.0842  -47.2921 H         1 UNK         0.0851 
     84 H84        18.3477  -24.4070  -43.8234 H         1 UNK         0.2976 
     85 H85        20.6963  -26.3232  -42.3558 H         1 UNK         0.3116 
     86 H86        21.8018  -27.7323  -40.2433 H         1 UNK         0.0646 
     87 H87        20.9021  -25.8275  -38.8400 H         1 UNK         0.0847 
     88 H88        19.7477  -26.3925  -40.0317 H         1 UNK         0.0847 
     89 H89        20.6387  -24.8951  -40.3070 H         1 UNK         0.0847 
     90 H90        23.3310  -27.3867  -38.7224 H         1 UNK         0.3040 
     91 H91        25.1790  -26.8493  -37.6787 H         1 UNK         0.1015 
     92 H92        26.2715  -24.6571  -37.8014 H         1 UNK         0.0786 
     93 H93        24.5316  -24.4363  -37.7083 H         1 UNK         0.0786 
     94 H94        25.3733  -24.2231  -39.2434 H         1 UNK         0.0786 
     95 H95        25.3610  -26.3518  -41.1889 H         1 UNK         0.3172 
     96 H96        28.1060  -27.3004  -41.4590 H         1 UNK         0.0595 
     97 H97        25.8495  -27.0517  -43.5237 H         1 UNK         0.0839 
     98 H98        27.5364  -27.3856  -43.8879 H         1 UNK         0.0839 
     99 H99        27.0845  -25.8391  -43.1886 H         1 UNK         0.0839 
    100 H100       24.8447  -28.7339  -41.6209 H         1 UNK         0.2998 
    101 H101       25.9147  -31.4193  -41.0854 H         1 UNK         0.0822 
    102 H102       25.5505  -31.2692  -43.5972 H         1 UNK         0.0787 
    103 H103       23.8835  -30.7775  -43.3128 H         1 UNK         0.0787 
    104 H104       24.4260  -32.3869  -42.8499 H         1 UNK         0.0787 
    105 H105       23.6361  -32.8047  -40.8742 H         1 UNK         0.3055 
    106 H106       21.5336  -31.3066  -39.5349 H         1 UNK         0.1106 
    107 H107       23.1275  -33.4923  -38.0572 H         1 UNK         0.0828 
    108 H108       23.1102  -31.7825  -37.6299 H         1 UNK         0.0828 
    109 H109       21.6474  -32.7395  -37.4752 H         1 UNK         0.0828 
    110 H110       19.6163  -32.6101  -39.3491 H         1 UNK         0.2931 
    111 H111       19.3673  -34.5260  -41.5125 H         1 UNK         0.0412 
    112 H112       20.2672  -35.0971  -38.2617 H         1 UNK         0.3472 
    113 H113       19.6922  -36.7440  -38.1848 H         1 UNK         0.3472 
    114 H114       16.9261  -34.4121  -41.0501 H         1 UNK         0.0970 
    115 H115       17.2236  -33.4714  -39.6141 H         1 UNK         0.0970 
    116 H116       16.1959  -33.2144  -43.2507 H         1 UNK         0.0612 
    117 H117       17.8728  -33.6682  -43.4482 H         1 UNK         0.0612 
@<TRIPOS>BOND
     1    1    2 1    
     2    1   62 1    
     3    1   63 1    
     4    1   64 1    
     5    2    3 2    
     6    2    4 am   BACKBONE|DICT|INTERRES
     7    4    5 1    
     8    4   65 1    
     9    5    6 1    
    10    5   25 1    
    11    5   66 1    
    12    6    7 1    
    13    6   67 1    
    14    6   68 1    
    15    7    8 1    
    16    8    9 1    
    17    8   69 1    
    18    8   70 1    
    19    9   10 ar   
    20    9   14 ar   
    21   10   11 ar   
    22   10   71 1    
    23   11   12 ar   
    24   11   61 1    
    25   12   13 ar   
    26   12   72 1    
    27   13   14 ar   
    28   13   15 1    
    29   14   73 1    
    30   15   16 1    
    31   15   74 1    
    32   15   75 1    
    33   16   17 1    
    34   17   18 1    
    35   17   76 1    
    36   17   77 1    
    37   18   19 1    
    38   18   27 1    
    39   18   78 1    
    40   19   20 am   BACKBONE|DICT|INTERRES
    41   19   79 1    
    42   20   21 2    
    43   20   22 1    
    44   22   23 1    
    45   22   24 1    
    46   22   80 1    
    47   23   81 1    
    48   23   82 1    
    49   23   83 1    
    50   24   25 am   BACKBONE|DICT|INTERRES
    51   24   84 1    
    52   25   26 2    
    53   27   28 2    
    54   27   29 am   BACKBONE|DICT|INTERRES
    55   29   30 1    
    56   29   85 1    
    57   30   31 1    
    58   30   32 1    
    59   30   86 1    
    60   31   87 1    
    61   31   88 1    
    62   31   89 1    
    63   32   33 2    
    64   32   34 am   BACKBONE|DICT|INTERRES
    65   34   35 1    
    66   34   90 1    
    67   35   36 1    
    68   35   37 1    
    69   35   91 1    
    70   36   92 1    
    71   36   93 1    
    72   36   94 1    
    73   37   38 2    
    74   37   39 am   BACKBONE|DICT|INTERRES
    75   39   40 1    
    76   39   95 1    
    77   40   41 1    
    78   40   42 1    
    79   40   96 1    
    80   41   97 1    
    81   41   98 1    
    82   41   99 1    
    83   42   43 2    
    84   42   44 am   BACKBONE|DICT|INTERRES
    85   44   45 1    
    86   44  100 1    
    87   45   46 1    
    88   45   47 1    
    89   45  101 1    
    90   46  102 1    
    91   46  103 1    
    92   46  104 1    
    93   47   48 2    
    94   47   49 am   BACKBONE|DICT|INTERRES
    95   49   50 1    
    96   49  105 1    
    97   50   51 1    
    98   50   52 1    
    99   50  106 1    
   100   51  107 1    
   101   51  108 1    
   102   51  109 1    
   103   52   53 2    
   104   52   54 am   BACKBONE|DICT|INTERRES
   105   54   55 1    
   106   54  110 1    
   107   55   56 1    
   108   55   59 1    
   109   55  111 1    
   110   56   57 am   BACKBONE|DICT|INTERRES
   111   56   58 2    
   112   57  112 1    
   113   57  113 1    
   114   59   60 1    
   115   59  114 1    
   116   59  115 1    
   117   60   61 1    
   118   61  116 1    
   119   61  117 1    
@<TRIPOS>SUBSTRUCTURE
     1 UNK         1 GROUP             0       ****    0 ROOT    
