@<TRIPOS>MOLECULE
3R8
117   119    1
SMALL
USER_CHARGES


@<TRIPOS>ATOM
      1 CA         14.7487  -21.8048  -42.3367 C.3       0 UNK        -0.2013 
      2 C          15.2703  -23.1890  -42.6961 C.2       0 UNK         0.4866 
      3 O          14.5481  -24.1744  -42.5437 O.2       0 UNK        -0.5176 
      4 N          16.5167  -23.2726  -43.1728 N.am      1 UNK        -0.4884 
      5 CA         17.1824  -24.5044  -43.5909 C.3       1 UNK         0.0853 
      6 C6         17.7658  -25.2714  -42.3757 C.3       10 UNK        -0.0849 
      7 S7         18.6543  -26.7992  -42.8146 S.3       10 UNK        -0.2776 
      8 C8         17.3116  -28.0299  -42.8187 C.3       10 UNK         0.0316 
      9 C9         17.8377  -29.4068  -43.2012 C.ar      10 UNK        -0.0863 
     10 C10        17.5984  -30.5153  -42.3848 C.ar      10 UNK        -0.1009 
     11 C11        18.0961  -31.7742  -42.7353 C.ar      10 UNK        -0.0712 
     12 C12        18.8708  -31.9077  -43.8928 C.ar      10 UNK        -0.0894 
     13 C13        19.1472  -30.8037  -44.7054 C.ar      10 UNK        -0.0745 
     14 C14        18.5793  -29.5687  -44.3743 C.ar      10 UNK        -0.0972 
     15 C15        20.0692  -30.9939  -45.9139 C.3       10 UNK         0.0209 
     16 S16        20.6536  -29.4673  -46.7404 S.3       10 UNK        -0.2568 
     17 C17        21.6575  -28.6619  -45.4408 C.3       10 UNK        -0.0983 
     18 CA         21.9376  -27.1714  -45.7667 C.3       3 UNK         0.0876 
     19 N          20.7093  -26.3860  -45.9257 N.am      3 UNK        -0.4424 
     20 C          20.6043  -25.3186  -46.7284 C.2       2 UNK         0.4918 
     21 O          21.5418  -24.8722  -47.3917 O.2       2 UNK        -0.4875 
     22 CA         19.2266  -24.6451  -46.8561 C.3       2 UNK         0.0481 
     23 CB         18.5306  -25.1220  -48.1434 C.3       2 UNK        -0.1831 
     24 N          18.3395  -24.9018  -45.7180 N.am      2 UNK        -0.4498 
     25 C          18.2380  -24.1099  -44.6410 C.2       1 UNK         0.5027 
     26 O          18.9128  -23.0913  -44.4653 O.2       1 UNK        -0.4969 
     27 C          22.8182  -26.5291  -44.6809 C.2       3 UNK         0.5005 
     28 O          22.2991  -26.1050  -43.6462 O.2       3 UNK        -0.5279 
     29 N          24.1378  -26.4937  -44.9153 N.am      4 UNK        -0.4463 
     30 CA         25.1267  -25.9877  -43.9557 C.3       4 UNK         0.0283 
     31 CB         26.4724  -25.7717  -44.6665 C.3       4 UNK        -0.1875 
     32 C          25.3037  -26.9156  -42.7412 C.2       4 UNK         0.4949 
     33 O          25.5486  -26.4334  -41.6359 O.2       4 UNK        -0.5039 
     34 N          25.1465  -28.2271  -42.9620 N.am      5 UNK        -0.4663 
     35 CA         25.2381  -29.2794  -41.9486 C.3       5 UNK         0.0242 
     36 CB         25.9192  -30.5090  -42.5792 C.3       5 UNK        -0.1982 
     37 C          23.8544  -29.6140  -41.3598 C.2       5 UNK         0.5017 
     38 O          23.5384  -30.7896  -41.1777 O.2       5 UNK        -0.5012 
     39 N          23.0505  -28.5810  -41.0692 N.am      6 UNK        -0.4439 
     40 CA         21.6598  -28.6591  -40.5988 C.3       6 UNK         0.0297 
     41 CB         21.1488  -27.2340  -40.3326 C.3       6 UNK        -0.2006 
     42 C          21.4311  -29.5295  -39.3479 C.2       6 UNK         0.4892 
     43 O          20.3605  -30.1205  -39.2116 O.2       6 UNK        -0.5089 
     44 N          22.4320  -29.5883  -38.4590 N.am      7 UNK        -0.4243 
     45 CA         22.4108  -30.4015  -37.2415 C.3       7 UNK         0.0196 
     46 CB         23.4325  -29.8306  -36.2439 C.3       7 UNK        -0.2007 
     47 C          22.6906  -31.8946  -37.4953 C.2       7 UNK         0.5020 
     48 O          22.3112  -32.7179  -36.6617 O.2       7 UNK        -0.5147 
     49 N          23.3659  -32.2205  -38.6057 N.am      8 UNK        -0.4734 
     50 CA         23.7676  -33.5842  -38.9637 C.3       8 UNK         0.0238 
     51 CB         25.2350  -33.5694  -39.4225 C.3       8 UNK        -0.1912 
     52 C          22.8790  -34.1877  -40.0616 C.2       8 UNK         0.5038 
     53 O          22.7041  -35.4072  -40.0762 O.2       8 UNK        -0.5046 
     54 N          22.3483  -33.3381  -40.9520 N.am      9 UNK        -0.4200 
     55 CA         21.5670  -33.6946  -42.1469 C.3       9 UNK         0.0839 
     56 C          22.4222  -34.4258  -43.2287 C.2       9 UNK         0.5513 
     57 N          21.8040  -35.0127  -44.2461 N.am      9 UNK        -0.7519 
     58 O          23.6515  -34.4295  -43.1912 O.2       9 UNK        -0.4960 
     59 C59        20.2267  -34.4157  -41.8073 C.3       10 UNK        -0.0876 
     60 S60        19.1345  -33.4154  -40.7373 S.3       10 UNK        -0.2414 
     61 C61        17.7749  -32.9870  -41.8716 C.3       10 UNK         0.0169 
     62 H62        13.8570  -21.5771  -42.9212 H         1 UNK         0.0903 
     63 H63        14.4827  -21.7648  -41.2796 H         1 UNK         0.0903 
     64 H64        15.4893  -21.0283  -42.5288 H         1 UNK         0.0903 
     65 H65        17.0744  -22.4387  -43.3156 H         1 UNK         0.3096 
     66 H66        16.4424  -25.1411  -44.0829 H         1 UNK         0.1121 
     67 H67        16.9711  -25.5181  -41.6701 H         1 UNK         0.0849 
     68 H68        18.4593  -24.6307  -41.8278 H         1 UNK         0.0849 
     69 H69        16.8453  -28.0527  -41.8325 H         1 UNK         0.0865 
     70 H70        16.5385  -27.7316  -43.5279 H         1 UNK         0.0865 
     71 H71        17.0178  -30.4024  -41.4792 H         1 UNK         0.1346 
     72 H72        19.2697  -32.8749  -44.1610 H         1 UNK         0.1412 
     73 H73        18.7455  -28.7065  -45.0018 H         1 UNK         0.1426 
     74 H74        19.5443  -31.5998  -46.6536 H         1 UNK         0.0716 
     75 H75        20.9446  -31.5696  -45.6085 H         1 UNK         0.0716 
     76 H76        21.1616  -28.7539  -44.4731 H         1 UNK         0.0695 
     77 H77        22.5934  -29.2170  -45.3534 H         1 UNK         0.0695 
     78 H78        22.4886  -27.1445  -46.7100 H         1 UNK         0.0983 
     79 H79        19.9308  -26.6440  -45.3388 H         1 UNK         0.3095 
     80 H80        19.3956  -23.5694  -46.9506 H         1 UNK         0.0454 
     81 H81        19.1473  -24.9162  -49.0202 H         1 UNK         0.0851 
     82 H82        18.3373  -26.1964  -48.1270 H         1 UNK         0.0851 
     83 H83        17.5792  -24.6110  -48.2945 H         1 UNK         0.0851 
     84 H84        17.7459  -25.7162  -45.7846 H         1 UNK         0.2976 
     85 H85        24.4934  -26.8445  -45.7940 H         1 UNK         0.3116 
     86 H86        24.7796  -25.0204  -43.5854 H         1 UNK         0.0646 
     87 H87        27.2168  -25.3716  -43.9763 H         1 UNK         0.0847 
     88 H88        26.3792  -25.0591  -45.4863 H         1 UNK         0.0847 
     89 H89        26.8727  -26.7019  -45.0720 H         1 UNK         0.0847 
     90 H90        24.9141  -28.5259  -43.8979 H         1 UNK         0.3040 
     91 H91        25.8642  -28.9402  -41.1200 H         1 UNK         0.1015 
     92 H92        26.8882  -30.2505  -43.0068 H         1 UNK         0.0786 
     93 H93        25.3093  -30.9496  -43.3692 H         1 UNK         0.0786 
     94 H94        26.0969  -31.2843  -41.8339 H         1 UNK         0.0786 
     95 H95        23.4050  -27.6529  -41.2580 H         1 UNK         0.3172 
     96 H96        21.0692  -29.0904  -41.4106 H         1 UNK         0.0595 
     97 H97        21.2194  -26.6119  -41.2246 H         1 UNK         0.0839 
     98 H98        21.7107  -26.7431  -39.5369 H         1 UNK         0.0839 
     99 H99        20.0996  -27.2457  -40.0333 H         1 UNK         0.0839 
    100 H100       23.2708  -29.0578  -38.6444 H         1 UNK         0.2998 
    101 H101       21.4184  -30.3272  -36.7905 H         1 UNK         0.0822 
    102 H102       23.2102  -28.7920  -35.9977 H         1 UNK         0.0787 
    103 H103       23.4208  -30.3926  -35.3087 H         1 UNK         0.0787 
    104 H104       24.4493  -29.8741  -36.6369 H         1 UNK         0.0787 
    105 H105       23.5782  -31.4945  -39.2809 H         1 UNK         0.3055 
    106 H106       23.6962  -34.2394  -38.0924 H         1 UNK         0.1106 
    107 H107       25.3714  -32.9563  -40.3133 H         1 UNK         0.0828 
    108 H108       25.8919  -33.1832  -38.6429 H         1 UNK         0.0828 
    109 H109       25.5771  -34.5763  -39.6661 H         1 UNK         0.0828 
    110 H110       22.6322  -32.3636  -40.9066 H         1 UNK         0.2931 
    111 H111       21.3186  -32.7350  -42.6010 H         1 UNK         0.0412 
    112 H112       22.3631  -35.4678  -44.9515 H         1 UNK         0.3472 
    113 H113       20.8005  -35.0236  -44.3254 H         1 UNK         0.3472 
    114 H114       20.4174  -35.3659  -41.3074 H         1 UNK         0.0970 
    115 H115       19.6783  -34.6776  -42.7111 H         1 UNK         0.0970 
    116 H116       17.5213  -33.8420  -42.4997 H         1 UNK         0.0612 
    117 H117       16.8852  -32.7875  -41.2724 H         1 UNK         0.0612 
@<TRIPOS>BOND
     1    1    2 1    
     2    1   62 1    
     3    1   63 1    
     4    1   64 1    
     5    2    3 2    
     6    2    4 am   BACKBONE|DICT|INTERRES
     7    4    5 1    
     8    4   65 1    
     9    5    6 1    
    10    5   25 1    
    11    5   66 1    
    12    6    7 1    
    13    6   67 1    
    14    6   68 1    
    15    7    8 1    
    16    8    9 1    
    17    8   69 1    
    18    8   70 1    
    19    9   10 ar   
    20    9   14 ar   
    21   10   11 ar   
    22   10   71 1    
    23   11   12 ar   
    24   11   61 1    
    25   12   13 ar   
    26   12   72 1    
    27   13   14 ar   
    28   13   15 1    
    29   14   73 1    
    30   15   16 1    
    31   15   74 1    
    32   15   75 1    
    33   16   17 1    
    34   17   18 1    
    35   17   76 1    
    36   17   77 1    
    37   18   19 1    
    38   18   27 1    
    39   18   78 1    
    40   19   20 am   BACKBONE|DICT|INTERRES
    41   19   79 1    
    42   20   21 2    
    43   20   22 1    
    44   22   23 1    
    45   22   24 1    
    46   22   80 1    
    47   23   81 1    
    48   23   82 1    
    49   23   83 1    
    50   24   25 am   BACKBONE|DICT|INTERRES
    51   24   84 1    
    52   25   26 2    
    53   27   28 2    
    54   27   29 am   BACKBONE|DICT|INTERRES
    55   29   30 1    
    56   29   85 1    
    57   30   31 1    
    58   30   32 1    
    59   30   86 1    
    60   31   87 1    
    61   31   88 1    
    62   31   89 1    
    63   32   33 2    
    64   32   34 am   BACKBONE|DICT|INTERRES
    65   34   35 1    
    66   34   90 1    
    67   35   36 1    
    68   35   37 1    
    69   35   91 1    
    70   36   92 1    
    71   36   93 1    
    72   36   94 1    
    73   37   38 2    
    74   37   39 am   BACKBONE|DICT|INTERRES
    75   39   40 1    
    76   39   95 1    
    77   40   41 1    
    78   40   42 1    
    79   40   96 1    
    80   41   97 1    
    81   41   98 1    
    82   41   99 1    
    83   42   43 2    
    84   42   44 am   BACKBONE|DICT|INTERRES
    85   44   45 1    
    86   44  100 1    
    87   45   46 1    
    88   45   47 1    
    89   45  101 1    
    90   46  102 1    
    91   46  103 1    
    92   46  104 1    
    93   47   48 2    
    94   47   49 am   BACKBONE|DICT|INTERRES
    95   49   50 1    
    96   49  105 1    
    97   50   51 1    
    98   50   52 1    
    99   50  106 1    
   100   51  107 1    
   101   51  108 1    
   102   51  109 1    
   103   52   53 2    
   104   52   54 am   BACKBONE|DICT|INTERRES
   105   54   55 1    
   106   54  110 1    
   107   55   56 1    
   108   55   59 1    
   109   55  111 1    
   110   56   57 am   BACKBONE|DICT|INTERRES
   111   56   58 2    
   112   57  112 1    
   113   57  113 1    
   114   59   60 1    
   115   59  114 1    
   116   59  115 1    
   117   60   61 1    
   118   61  116 1    
   119   61  117 1    
@<TRIPOS>SUBSTRUCTURE
     1 UNK         1 GROUP             0       ****    0 ROOT    
