@<TRIPOS>MOLECULE
3R8
117   119    1
SMALL
USER_CHARGES


@<TRIPOS>ATOM
      1 CA         16.2013  -22.3850  -47.3498 C.3       0 UNK        -0.2013 
      2 C          16.6660  -23.7352  -46.8237 C.2       0 UNK         0.4866 
      3 O          16.3305  -24.0917  -45.6938 O.2       0 UNK        -0.5176 
      4 N          17.4219  -24.4809  -47.6442 N.am      1 UNK        -0.4884 
      5 CA         18.0443  -25.7825  -47.3548 C.3       1 UNK         0.0853 
      6 C6         17.0349  -26.8321  -46.8079 C.3       10 UNK        -0.0849 
      7 S7         17.4995  -28.5558  -47.1878 S.3       10 UNK        -0.2776 
      8 C8         16.1658  -29.4754  -46.3531 C.3       10 UNK         0.0316 
      9 C9         16.3871  -29.5773  -44.8492 C.ar      10 UNK        -0.0863 
     10 C10        17.1112  -30.6498  -44.3160 C.ar      10 UNK        -0.1009 
     11 C11        17.2913  -30.7646  -42.9339 C.ar      10 UNK        -0.0712 
     12 C12        16.7359  -29.8045  -42.0856 C.ar      10 UNK        -0.0894 
     13 C13        16.0586  -28.7003  -42.6080 C.ar      10 UNK        -0.0745 
     14 C14        15.8640  -28.6055  -43.9891 C.ar      10 UNK        -0.0972 
     15 C15        15.5721  -27.5949  -41.6805 C.3       10 UNK         0.0209 
     16 S16        16.9270  -26.8936  -40.6752 S.3       10 UNK        -0.2568 
     17 C17        18.0559  -26.2208  -41.9448 C.3       10 UNK        -0.0983 
     18 CA         19.2657  -27.1424  -42.2567 C.3       3 UNK         0.0876 
     19 N          19.9011  -26.7427  -43.5104 N.am      3 UNK        -0.4424 
     20 C          20.7523  -27.4920  -44.2198 C.2       2 UNK         0.4918 
     21 O          21.0939  -28.6316  -43.9063 O.2       2 UNK        -0.4875 
     22 CA         21.2556  -26.8659  -45.5333 C.3       2 UNK         0.0481 
     23 CB         22.3373  -27.7141  -46.2254 C.3       2 UNK        -0.1831 
     24 N          20.1304  -26.6867  -46.4513 N.am      2 UNK        -0.4498 
     25 C          19.2845  -25.6495  -46.4413 C.2       1 UNK         0.5027 
     26 O          19.4492  -24.6570  -45.7264 O.2       1 UNK        -0.4969 
     27 C          20.2960  -27.1791  -41.1068 C.2       3 UNK         0.5005 
     28 O          21.1613  -26.3021  -41.0439 O.2       3 UNK        -0.5279 
     29 N          20.1357  -28.1680  -40.2154 N.am      4 UNK        -0.4463 
     30 CA         20.9590  -28.5417  -39.0581 C.3       4 UNK         0.0283 
     31 CB         21.5036  -27.3337  -38.2678 C.3       4 UNK        -0.1875 
     32 C          22.0759  -29.5305  -39.4249 C.2       4 UNK         0.4949 
     33 O          22.5657  -29.5594  -40.5581 O.2       4 UNK        -0.5039 
     34 N          22.4640  -30.3409  -38.4307 N.am      5 UNK        -0.4663 
     35 CA         23.4575  -31.4123  -38.5579 C.3       5 UNK         0.0242 
     36 CB         23.4742  -32.2562  -37.2744 C.3       5 UNK        -0.1982 
     37 C          24.8688  -30.9194  -38.9070 C.2       5 UNK         0.5017 
     38 O          25.5973  -31.6217  -39.6078 O.2       5 UNK        -0.5012 
     39 N          25.2064  -29.7102  -38.4401 N.am      6 UNK        -0.4439 
     40 CA         26.4530  -29.0120  -38.7537 C.3       6 UNK         0.0297 
     41 CB         26.6230  -27.8265  -37.7895 C.3       6 UNK        -0.2006 
     42 C          26.5321  -28.5313  -40.2144 C.2       6 UNK         0.4892 
     43 O          27.6417  -28.3523  -40.7180 O.2       6 UNK        -0.5089 
     44 N          25.3757  -28.3209  -40.8612 N.am      7 UNK        -0.4243 
     45 CA         25.2863  -27.9103  -42.2597 C.3       7 UNK         0.0196 
     46 CB         24.0294  -27.0571  -42.4812 C.3       7 UNK        -0.2007 
     47 C          25.3033  -29.1303  -43.1877 C.2       7 UNK         0.5020 
     48 O          26.1547  -29.1859  -44.0759 O.2       7 UNK        -0.5147 
     49 N          24.3841  -30.0846  -42.9736 N.am      8 UNK        -0.4734 
     50 CA         24.2740  -31.2829  -43.8168 C.3       8 UNK         0.0238 
     51 CB         23.6321  -30.9299  -45.1740 C.3       8 UNK        -0.1912 
     52 C          23.5171  -32.4615  -43.1888 C.2       8 UNK         0.5038 
     53 O          23.7223  -33.5840  -43.6531 O.2       8 UNK        -0.5046 
     54 N          22.6378  -32.2240  -42.2044 N.am      9 UNK        -0.4200 
     55 CA         21.6921  -33.2432  -41.6998 C.3       9 UNK         0.0839 
     56 C          22.3169  -34.4223  -40.8928 C.2       9 UNK         0.5513 
     57 N          23.6049  -34.4118  -40.5713 N.am      9 UNK        -0.7519 
     58 O          21.6134  -35.3699  -40.5528 O.2       9 UNK        -0.4960 
     59 C59        20.4955  -32.6187  -40.9323 C.3       10 UNK        -0.0876 
     60 S60        19.7344  -31.2138  -41.8096 S.3       10 UNK        -0.2414 
     61 C61        18.1327  -31.8835  -42.3431 C.3       10 UNK         0.0169 
     62 H62        16.5754  -21.5857  -46.7105 H         1 UNK         0.0903 
     63 H63        16.5506  -22.1982  -48.3651 H         1 UNK         0.0903 
     64 H64        15.1126  -22.3379  -47.3523 H         1 UNK         0.0903 
     65 H65        17.6624  -24.0974  -48.5485 H         1 UNK         0.3096 
     66 H66        18.4075  -26.1315  -48.3234 H         1 UNK         0.1121 
     67 H67        16.9077  -26.7145  -45.7312 H         1 UNK         0.0849 
     68 H68        16.0499  -26.6652  -47.2469 H         1 UNK         0.0849 
     69 H69        15.2034  -29.0075  -46.5667 H         1 UNK         0.0865 
     70 H70        16.1119  -30.4769  -46.7827 H         1 UNK         0.0865 
     71 H71        17.5429  -31.3885  -44.9774 H         1 UNK         0.1346 
     72 H72        16.8873  -29.8838  -41.0177 H         1 UNK         0.1412 
     73 H73        15.3176  -27.7660  -44.3966 H         1 UNK         0.1426 
     74 H74        14.8095  -28.0004  -41.0142 H         1 UNK         0.0716 
     75 H75        15.0960  -26.7908  -42.2439 H         1 UNK         0.0716 
     76 H76        17.4754  -26.0469  -42.8529 H         1 UNK         0.0695 
     77 H77        18.3959  -25.2353  -41.6206 H         1 UNK         0.0695 
     78 H78        18.8985  -28.1575  -42.4156 H         1 UNK         0.0983 
     79 H79        19.6884  -25.8142  -43.8520 H         1 UNK         0.3095 
     80 H80        21.6978  -25.8968  -45.2927 H         1 UNK         0.0454 
     81 H81        21.9543  -28.6890  -46.5282 H         1 UNK         0.0851 
     82 H82        22.7225  -27.2154  -47.1147 H         1 UNK         0.0851 
     83 H83        23.1836  -27.8863  -45.5595 H         1 UNK         0.0851 
     84 H84        19.8850  -27.4911  -47.0133 H         1 UNK         0.2976 
     85 H85        19.3970  -28.8286  -40.4144 H         1 UNK         0.3116 
     86 H86        20.2705  -29.0726  -38.3986 H         1 UNK         0.0646 
     87 H87        21.9115  -27.6472  -37.3064 H         1 UNK         0.0847 
     88 H88        20.7197  -26.6047  -38.0625 H         1 UNK         0.0847 
     89 H89        22.3064  -26.8246  -38.8024 H         1 UNK         0.0847 
     90 H90        22.0152  -30.2509  -37.5296 H         1 UNK         0.3040 
     91 H91        23.1389  -32.0506  -39.3786 H         1 UNK         0.1015 
     92 H92        22.4979  -32.7000  -37.0787 H         1 UNK         0.0786 
     93 H93        23.7575  -31.6641  -36.4033 H         1 UNK         0.0786 
     94 H94        24.1882  -33.0771  -37.3579 H         1 UNK         0.0786 
     95 H95        24.5358  -29.2202  -37.8661 H         1 UNK         0.3172 
     96 H96        27.2802  -29.7063  -38.5905 H         1 UNK         0.0595 
     97 H97        26.6442  -28.1575  -36.7510 H         1 UNK         0.0839 
     98 H98        25.8173  -27.0988  -37.8957 H         1 UNK         0.0839 
     99 H99        27.5609  -27.3022  -37.9786 H         1 UNK         0.0839 
    100 H100       24.5035  -28.5483  -40.4014 H         1 UNK         0.2998 
    101 H101       26.1488  -27.2871  -42.5071 H         1 UNK         0.0822 
    102 H102       24.0172  -26.1864  -41.8256 H         1 UNK         0.0787 
    103 H103       23.9811  -26.6922  -43.5074 H         1 UNK         0.0787 
    104 H104       23.1192  -27.6254  -42.2945 H         1 UNK         0.0787 
    105 H105       23.7173  -29.9623  -42.2186 H         1 UNK         0.3055 
    106 H106       25.2850  -31.6522  -44.0050 H         1 UNK         0.1106 
    107 H107       22.6250  -30.5341  -45.0429 H         1 UNK         0.0828 
    108 H108       24.2179  -30.1930  -45.7226 H         1 UNK         0.0828 
    109 H109       23.5533  -31.8101  -45.8137 H         1 UNK         0.0828 
    110 H110       22.4807  -31.2807  -41.8738 H         1 UNK         0.2931 
    111 H111       21.2632  -33.7125  -42.5877 H         1 UNK         0.0412 
    112 H112       23.9897  -35.1880  -40.0566 H         1 UNK         0.3472 
    113 H113       24.2035  -33.6566  -40.8670 H         1 UNK         0.3472 
    114 H114       20.8123  -32.2655  -39.9508 H         1 UNK         0.0970 
    115 H115       19.7321  -33.3750  -40.7402 H         1 UNK         0.0970 
    116 H116       18.2941  -32.6815  -43.0695 H         1 UNK         0.0612 
    117 H117       17.6123  -32.3246  -41.4917 H         1 UNK         0.0612 
@<TRIPOS>BOND
     1    1    2 1    
     2    1   62 1    
     3    1   63 1    
     4    1   64 1    
     5    2    3 2    
     6    2    4 am   BACKBONE|DICT|INTERRES
     7    4    5 1    
     8    4   65 1    
     9    5    6 1    
    10    5   25 1    
    11    5   66 1    
    12    6    7 1    
    13    6   67 1    
    14    6   68 1    
    15    7    8 1    
    16    8    9 1    
    17    8   69 1    
    18    8   70 1    
    19    9   10 ar   
    20    9   14 ar   
    21   10   11 ar   
    22   10   71 1    
    23   11   12 ar   
    24   11   61 1    
    25   12   13 ar   
    26   12   72 1    
    27   13   14 ar   
    28   13   15 1    
    29   14   73 1    
    30   15   16 1    
    31   15   74 1    
    32   15   75 1    
    33   16   17 1    
    34   17   18 1    
    35   17   76 1    
    36   17   77 1    
    37   18   19 1    
    38   18   27 1    
    39   18   78 1    
    40   19   20 am   BACKBONE|DICT|INTERRES
    41   19   79 1    
    42   20   21 2    
    43   20   22 1    
    44   22   23 1    
    45   22   24 1    
    46   22   80 1    
    47   23   81 1    
    48   23   82 1    
    49   23   83 1    
    50   24   25 am   BACKBONE|DICT|INTERRES
    51   24   84 1    
    52   25   26 2    
    53   27   28 2    
    54   27   29 am   BACKBONE|DICT|INTERRES
    55   29   30 1    
    56   29   85 1    
    57   30   31 1    
    58   30   32 1    
    59   30   86 1    
    60   31   87 1    
    61   31   88 1    
    62   31   89 1    
    63   32   33 2    
    64   32   34 am   BACKBONE|DICT|INTERRES
    65   34   35 1    
    66   34   90 1    
    67   35   36 1    
    68   35   37 1    
    69   35   91 1    
    70   36   92 1    
    71   36   93 1    
    72   36   94 1    
    73   37   38 2    
    74   37   39 am   BACKBONE|DICT|INTERRES
    75   39   40 1    
    76   39   95 1    
    77   40   41 1    
    78   40   42 1    
    79   40   96 1    
    80   41   97 1    
    81   41   98 1    
    82   41   99 1    
    83   42   43 2    
    84   42   44 am   BACKBONE|DICT|INTERRES
    85   44   45 1    
    86   44  100 1    
    87   45   46 1    
    88   45   47 1    
    89   45  101 1    
    90   46  102 1    
    91   46  103 1    
    92   46  104 1    
    93   47   48 2    
    94   47   49 am   BACKBONE|DICT|INTERRES
    95   49   50 1    
    96   49  105 1    
    97   50   51 1    
    98   50   52 1    
    99   50  106 1    
   100   51  107 1    
   101   51  108 1    
   102   51  109 1    
   103   52   53 2    
   104   52   54 am   BACKBONE|DICT|INTERRES
   105   54   55 1    
   106   54  110 1    
   107   55   56 1    
   108   55   59 1    
   109   55  111 1    
   110   56   57 am   BACKBONE|DICT|INTERRES
   111   56   58 2    
   112   57  112 1    
   113   57  113 1    
   114   59   60 1    
   115   59  114 1    
   116   59  115 1    
   117   60   61 1    
   118   61  116 1    
   119   61  117 1    
@<TRIPOS>SUBSTRUCTURE
     1 UNK         1 GROUP             0       ****    0 ROOT    
