@<TRIPOS>MOLECULE
3R8
117   119    1
SMALL
USER_CHARGES


@<TRIPOS>ATOM
      1 CA         14.7081  -23.6553  -46.7149 C.3       0 UNK        -0.2013 
      2 C          15.9685  -24.5076  -46.7178 C.2       0 UNK         0.4866 
      3 O          16.9474  -24.1511  -47.3749 O.2       0 UNK        -0.5176 
      4 N          15.9495  -25.6353  -45.9968 N.am      1 UNK        -0.4884 
      5 CA         17.0849  -26.5507  -45.8452 C.3       1 UNK         0.0853 
      6 C6         16.6598  -27.8860  -45.1947 C.3       10 UNK        -0.0849 
      7 S7         15.5393  -28.8744  -46.2389 S.3       10 UNK        -0.2776 
      8 C8         14.7951  -29.9987  -45.0062 C.3       10 UNK         0.0316 
      9 C9         15.8294  -30.5737  -44.0452 C.ar      10 UNK        -0.0863 
     10 C10        16.8180  -31.4455  -44.5114 C.ar      10 UNK        -0.1009 
     11 C11        17.8076  -31.9206  -43.6467 C.ar      10 UNK        -0.0712 
     12 C12        17.7760  -31.5542  -42.2975 C.ar      10 UNK        -0.0894 
     13 C13        16.7995  -30.6761  -41.8194 C.ar      10 UNK        -0.0745 
     14 C14        15.8249  -30.1942  -42.6984 C.ar      10 UNK        -0.0972 
     15 C15        16.7886  -30.2512  -40.3545 C.3       10 UNK         0.0209 
     16 S16        18.3759  -29.5467  -39.7884 S.3       10 UNK        -0.2568 
     17 C17        18.5120  -28.0100  -40.7633 C.3       10 UNK        -0.0983 
     18 CA         19.9320  -27.8081  -41.3549 C.3       3 UNK         0.0876 
     19 N          19.8925  -26.9595  -42.5532 N.am      3 UNK        -0.4424 
     20 C          20.9132  -26.7647  -43.3983 C.2       2 UNK         0.4918 
     21 O          22.0113  -27.3048  -43.2642 O.2       2 UNK        -0.4875 
     22 CA         20.6583  -25.8232  -44.5932 C.3       2 UNK         0.0481 
     23 CB         21.8572  -25.7617  -45.5581 C.3       2 UNK        -0.1831 
     24 N          19.4605  -26.2087  -45.3449 N.am      2 UNK        -0.4498 
     25 C          18.2012  -25.9197  -44.9919 C.2       1 UNK         0.5027 
     26 O          17.9107  -25.2671  -43.9853 O.2       1 UNK        -0.4969 
     27 C          20.9314  -27.2706  -40.3051 C.2       3 UNK         0.5005 
     28 O          21.6461  -28.0498  -39.6723 O.2       3 UNK        -0.5279 
     29 N          21.0119  -25.9353  -40.1928 N.am      4 UNK        -0.4463 
     30 CA         21.9140  -25.1998  -39.2999 C.3       4 UNK         0.0283 
     31 CB         21.5517  -23.7063  -39.3453 C.3       4 UNK        -0.1875 
     32 C          23.4149  -25.3952  -39.5925 C.2       4 UNK         0.4949 
     33 O          24.2331  -25.0971  -38.7222 O.2       4 UNK        -0.5039 
     34 N          23.7594  -25.8957  -40.7883 N.am      5 UNK        -0.4663 
     35 CA         25.1301  -26.2412  -41.1755 C.3       5 UNK         0.0242 
     36 CB         25.2106  -26.3341  -42.7083 C.3       5 UNK        -0.1982 
     37 C          25.6382  -27.5464  -40.5306 C.2       5 UNK         0.5017 
     38 O          26.8447  -27.7919  -40.5764 O.2       5 UNK        -0.5012 
     39 N          24.7273  -28.3489  -39.9537 N.am      6 UNK        -0.4439 
     40 CA         24.9489  -29.6820  -39.3803 C.3       6 UNK         0.0297 
     41 CB         25.9360  -29.6241  -38.1919 C.3       6 UNK        -0.2006 
     42 C          25.3347  -30.7242  -40.4513 C.2       6 UNK         0.4892 
     43 O          25.1320  -30.4774  -41.6419 O.2       6 UNK        -0.5089 
     44 N          25.8292  -31.8913  -40.0022 N.am      7 UNK        -0.4243 
     45 CA         26.1381  -33.0885  -40.8036 C.3       7 UNK         0.0196 
     46 CB         27.3582  -32.8386  -41.7159 C.3       7 UNK        -0.2007 
     47 C          24.8966  -33.5810  -41.5738 C.2       7 UNK         0.5020 
     48 O          24.9355  -33.7304  -42.7960 O.2       7 UNK        -0.5147 
     49 N          23.7945  -33.7436  -40.8268 N.am      8 UNK        -0.4734 
     50 CA         22.4006  -33.8500  -41.2752 C.3       8 UNK         0.0238 
     51 CB         22.1629  -35.0111  -42.2649 C.3       8 UNK        -0.1912 
     52 C          21.8979  -32.4978  -41.8045 C.2       8 UNK         0.5038 
     53 O          21.0817  -31.8645  -41.1370 O.2       8 UNK        -0.5046 
     54 N          22.4212  -32.0660  -42.9541 N.am      9 UNK        -0.4200 
     55 CA         22.1759  -30.7580  -43.5660 C.3       9 UNK         0.0839 
     56 C          23.2332  -30.4430  -44.6524 C.2       9 UNK         0.5513 
     57 N          23.4747  -29.1667  -44.9171 N.am      9 UNK        -0.7519 
     58 O          23.8107  -31.3336  -45.2738 O.2       9 UNK        -0.4960 
     59 C59        20.7189  -30.5674  -44.0751 C.3       10 UNK        -0.0876 
     60 S60        20.1092  -31.8645  -45.2147 S.3       10 UNK        -0.2414 
     61 C61        18.9334  -32.7986  -44.1753 C.3       10 UNK         0.0169 
     62 H62        14.3286  -23.5430  -47.7302 H         1 UNK         0.0903 
     63 H63        13.9192  -24.0954  -46.1050 H         1 UNK         0.0903 
     64 H64        14.9274  -22.6632  -46.3210 H         1 UNK         0.0903 
     65 H65        15.1217  -25.8773  -45.4713 H         1 UNK         0.3096 
     66 H66        17.4859  -26.7561  -46.8407 H         1 UNK         0.1121 
     67 H67        16.1814  -27.7006  -44.2306 H         1 UNK         0.0849 
     68 H68        17.5335  -28.5088  -44.9866 H         1 UNK         0.0849 
     69 H69        14.2891  -30.8139  -45.5252 H         1 UNK         0.0865 
     70 H70        14.0204  -29.4579  -44.4603 H         1 UNK         0.0865 
     71 H71        16.8428  -31.7197  -45.5574 H         1 UNK         0.1346 
     72 H72        18.5354  -31.9218  -41.6214 H         1 UNK         0.1412 
     73 H73        15.0684  -29.5112  -42.3364 H         1 UNK         0.1426 
     74 H74        16.5574  -31.1236  -39.7421 H         1 UNK         0.0716 
     75 H75        15.9971  -29.5247  -40.1642 H         1 UNK         0.0716 
     76 H76        18.2091  -27.1630  -40.1448 H         1 UNK         0.0695 
     77 H77        17.7813  -28.0601  -41.5720 H         1 UNK         0.0695 
     78 H78        20.3114  -28.7806  -41.6737 H         1 UNK         0.0983 
     79 H79        19.0284  -26.4627  -42.7410 H         1 UNK         0.3095 
     80 H80        20.5142  -24.8207  -44.1851 H         1 UNK         0.0454 
     81 H81        22.0646  -26.7322  -46.0102 H         1 UNK         0.0851 
     82 H82        22.7628  -25.4430  -45.0399 H         1 UNK         0.0851 
     83 H83        21.6817  -25.0480  -46.3630 H         1 UNK         0.0851 
     84 H84        19.6163  -26.7834  -46.1612 H         1 UNK         0.2976 
     85 H85        20.3982  -25.3770  -40.7686 H         1 UNK         0.3116 
     86 H86        21.7373  -25.5633  -38.2855 H         1 UNK         0.0646 
     87 H87        20.5171  -23.5373  -39.0463 H         1 UNK         0.0847 
     88 H88        21.6880  -23.2874  -40.3432 H         1 UNK         0.0847 
     89 H89        22.1795  -23.1307  -38.6634 H         1 UNK         0.0847 
     90 H90        23.0302  -26.1365  -41.4467 H         1 UNK         0.3040 
     91 H91        25.7935  -25.4374  -40.8478 H         1 UNK         0.1015 
     92 H92        26.2423  -26.4710  -43.0348 H         1 UNK         0.0786 
     93 H93        24.8362  -25.4291  -43.1868 H         1 UNK         0.0786 
     94 H94        24.6395  -27.1808  -43.0891 H         1 UNK         0.0786 
     95 H95        23.7550  -28.0614  -39.9946 H         1 UNK         0.3172 
     96 H96        23.9784  -29.9933  -38.9906 H         1 UNK         0.0595 
     97 H97        26.9653  -29.4820  -38.5234 H         1 UNK         0.0839 
     98 H98        25.9059  -30.5401  -37.6016 H         1 UNK         0.0839 
     99 H99        25.6900  -28.8060  -37.5146 H         1 UNK         0.0839 
    100 H100       25.9552  -31.9928  -39.0046 H         1 UNK         0.2998 
    101 H101       26.4060  -33.8813  -40.1033 H         1 UNK         0.0822 
    102 H102       28.2243  -32.5142  -41.1394 H         1 UNK         0.0787 
    103 H103       27.6420  -33.7495  -42.2445 H         1 UNK         0.0787 
    104 H104       27.1533  -32.0772  -42.4695 H         1 UNK         0.0787 
    105 H105       23.8977  -33.5851  -39.8336 H         1 UNK         0.3055 
    106 H106       21.8155  -34.0710  -40.3804 H         1 UNK         0.1106 
    107 H107       22.6567  -34.8573  -43.2241 H         1 UNK         0.0828 
    108 H108       21.0983  -35.1273  -42.4707 H         1 UNK         0.0828 
    109 H109       22.5176  -35.9568  -41.8554 H         1 UNK         0.0828 
    110 H110       23.1526  -32.6129  -43.3966 H         1 UNK         0.2931 
    111 H111       22.3431  -30.0264  -42.7722 H         1 UNK         0.0412 
    112 H112       23.0162  -28.4389  -44.3766 H         1 UNK         0.3472 
    113 H113       24.1520  -28.9270  -45.6228 H         1 UNK         0.3472 
    114 H114       20.6179  -29.6058  -44.5805 H         1 UNK         0.0970 
    115 H115       20.0549  -30.4962  -43.2175 H         1 UNK         0.0970 
    116 H116       18.5093  -33.6109  -44.7670 H         1 UNK         0.0612 
    117 H117       19.4754  -33.2693  -43.3547 H         1 UNK         0.0612 
@<TRIPOS>BOND
     1    1    2 1    
     2    1   62 1    
     3    1   63 1    
     4    1   64 1    
     5    2    3 2    
     6    2    4 am   BACKBONE|DICT|INTERRES
     7    4    5 1    
     8    4   65 1    
     9    5    6 1    
    10    5   25 1    
    11    5   66 1    
    12    6    7 1    
    13    6   67 1    
    14    6   68 1    
    15    7    8 1    
    16    8    9 1    
    17    8   69 1    
    18    8   70 1    
    19    9   10 ar   
    20    9   14 ar   
    21   10   11 ar   
    22   10   71 1    
    23   11   12 ar   
    24   11   61 1    
    25   12   13 ar   
    26   12   72 1    
    27   13   14 ar   
    28   13   15 1    
    29   14   73 1    
    30   15   16 1    
    31   15   74 1    
    32   15   75 1    
    33   16   17 1    
    34   17   18 1    
    35   17   76 1    
    36   17   77 1    
    37   18   19 1    
    38   18   27 1    
    39   18   78 1    
    40   19   20 am   BACKBONE|DICT|INTERRES
    41   19   79 1    
    42   20   21 2    
    43   20   22 1    
    44   22   23 1    
    45   22   24 1    
    46   22   80 1    
    47   23   81 1    
    48   23   82 1    
    49   23   83 1    
    50   24   25 am   BACKBONE|DICT|INTERRES
    51   24   84 1    
    52   25   26 2    
    53   27   28 2    
    54   27   29 am   BACKBONE|DICT|INTERRES
    55   29   30 1    
    56   29   85 1    
    57   30   31 1    
    58   30   32 1    
    59   30   86 1    
    60   31   87 1    
    61   31   88 1    
    62   31   89 1    
    63   32   33 2    
    64   32   34 am   BACKBONE|DICT|INTERRES
    65   34   35 1    
    66   34   90 1    
    67   35   36 1    
    68   35   37 1    
    69   35   91 1    
    70   36   92 1    
    71   36   93 1    
    72   36   94 1    
    73   37   38 2    
    74   37   39 am   BACKBONE|DICT|INTERRES
    75   39   40 1    
    76   39   95 1    
    77   40   41 1    
    78   40   42 1    
    79   40   96 1    
    80   41   97 1    
    81   41   98 1    
    82   41   99 1    
    83   42   43 2    
    84   42   44 am   BACKBONE|DICT|INTERRES
    85   44   45 1    
    86   44  100 1    
    87   45   46 1    
    88   45   47 1    
    89   45  101 1    
    90   46  102 1    
    91   46  103 1    
    92   46  104 1    
    93   47   48 2    
    94   47   49 am   BACKBONE|DICT|INTERRES
    95   49   50 1    
    96   49  105 1    
    97   50   51 1    
    98   50   52 1    
    99   50  106 1    
   100   51  107 1    
   101   51  108 1    
   102   51  109 1    
   103   52   53 2    
   104   52   54 am   BACKBONE|DICT|INTERRES
   105   54   55 1    
   106   54  110 1    
   107   55   56 1    
   108   55   59 1    
   109   55  111 1    
   110   56   57 am   BACKBONE|DICT|INTERRES
   111   56   58 2    
   112   57  112 1    
   113   57  113 1    
   114   59   60 1    
   115   59  114 1    
   116   59  115 1    
   117   60   61 1    
   118   61  116 1    
   119   61  117 1    
@<TRIPOS>SUBSTRUCTURE
     1 UNK         1 GROUP             0       ****    0 ROOT    
