@<TRIPOS>MOLECULE
3R8
117   119    1
SMALL
USER_CHARGES


@<TRIPOS>ATOM
      1 CA         15.9664  -24.5819  -45.9233 C.3       0 UNK        -0.2013 
      2 C          17.3660  -24.8763  -46.4397 C.2       0 UNK         0.4866 
      3 O          18.1290  -23.9436  -46.6913 O.2       0 UNK        -0.5176 
      4 N          17.6990  -26.1607  -46.6264 N.am      1 UNK        -0.4884 
      5 CA         18.9514  -26.6202  -47.2435 C.3       1 UNK         0.0853 
      6 C6         18.9228  -28.1091  -47.7056 C.3       10 UNK        -0.0849 
      7 S7         17.2611  -28.7446  -48.1359 S.3       10 UNK        -0.2776 
      8 C8         17.1159  -30.2290  -47.0811 C.3       10 UNK         0.0316 
      9 C9         17.3931  -29.9658  -45.6031 C.ar      10 UNK        -0.0863 
     10 C10        18.5100  -30.5456  -44.9898 C.ar      10 UNK        -0.1009 
     11 C11        18.7498  -30.3563  -43.6266 C.ar      10 UNK        -0.0712 
     12 C12        17.8678  -29.5763  -42.8756 C.ar      10 UNK        -0.0894 
     13 C13        16.7592  -28.9734  -43.4758 C.ar      10 UNK        -0.0745 
     14 C14        16.5224  -29.1790  -44.8404 C.ar      10 UNK        -0.0972 
     15 C15        15.8013  -28.1250  -42.6490 C.3       10 UNK         0.0209 
     16 S16        16.0736  -26.3479  -42.9343 S.3       10 UNK        -0.2568 
     17 C17        16.9252  -25.7809  -41.4197 C.3       10 UNK        -0.0983 
     18 CA         18.3576  -26.3409  -41.2363 C.3       3 UNK         0.0876 
     19 N          19.1745  -26.2307  -42.4453 N.am      3 UNK        -0.4424 
     20 C          20.3336  -26.8746  -42.6312 C.2       2 UNK         0.4918 
     21 O          20.8344  -27.6221  -41.7895 O.2       2 UNK        -0.4875 
     22 CA         21.0120  -26.6808  -43.9951 C.3       2 UNK         0.0481 
     23 CB         22.1480  -27.6945  -44.2375 C.3       2 UNK        -0.1831 
     24 N          20.0079  -26.7735  -45.0533 N.am      2 UNK        -0.4498 
     25 C          20.1584  -26.3693  -46.3208 C.2       1 UNK         0.5027 
     26 O          21.1741  -25.8319  -46.7648 O.2       1 UNK        -0.4969 
     27 C          19.0882  -25.6798  -40.0510 C.2       3 UNK         0.5005 
     28 O          19.3428  -24.4739  -40.0967 O.2       3 UNK        -0.5279 
     29 N          19.4425  -26.4928  -39.0437 N.am      4 UNK        -0.4463 
     30 CA         20.2638  -26.1478  -37.8751 C.3       4 UNK         0.0283 
     31 CB         19.5491  -25.1168  -36.9743 C.3       4 UNK        -0.1875 
     32 C          21.7078  -25.7339  -38.2372 C.2       4 UNK         0.4949 
     33 O          22.3040  -24.9196  -37.5301 O.2       4 UNK        -0.5039 
     34 N          22.2527  -26.3125  -39.3150 N.am      5 UNK        -0.4663 
     35 CA         23.6317  -26.1350  -39.7698 C.3       5 UNK         0.0242 
     36 CB         23.6273  -25.2907  -41.0566 C.3       5 UNK        -0.1982 
     37 C          24.2761  -27.5092  -40.0087 C.2       5 UNK         0.5017 
     38 O          23.5767  -28.5256  -40.0269 O.2       5 UNK        -0.5012 
     39 N          25.6047  -27.5180  -40.1812 N.am      6 UNK        -0.4439 
     40 CA         26.3930  -28.7150  -40.4818 C.3       6 UNK         0.0297 
     41 CB         27.8883  -28.4045  -40.3021 C.3       6 UNK        -0.2006 
     42 C          26.1040  -29.2220  -41.9045 C.2       6 UNK         0.4892 
     43 O          26.2557  -28.4586  -42.8608 O.2       6 UNK        -0.5089 
     44 N          25.7029  -30.4922  -42.0057 N.am      7 UNK        -0.4243 
     45 CA         25.3131  -31.2071  -43.2193 C.3       7 UNK         0.0196 
     46 CB         24.0584  -30.5641  -43.8527 C.3       7 UNK        -0.2007 
     47 C          25.0655  -32.6756  -42.8420 C.2       7 UNK         0.5020 
     48 O          25.3290  -33.0698  -41.7019 O.2       7 UNK        -0.5147 
     49 N          24.5161  -33.4542  -43.7851 N.am      8 UNK        -0.4734 
     50 CA         24.1262  -34.8629  -43.6185 C.3       8 UNK         0.0238 
     51 CB         23.6179  -35.4039  -44.9652 C.3       8 UNK        -0.1912 
     52 C          23.0856  -35.1226  -42.5088 C.2       8 UNK         0.5038 
     53 O          22.9740  -36.2595  -42.0482 O.2       8 UNK        -0.5046 
     54 N          22.3688  -34.0723  -42.0867 N.am      9 UNK        -0.4200 
     55 CA         21.5075  -34.0560  -40.8954 C.3       9 UNK         0.0839 
     56 C          22.2701  -34.2297  -39.5472 C.2       9 UNK         0.5513 
     57 N          23.5826  -34.0317  -39.4860 N.am      9 UNK        -0.7519 
     58 O          21.6529  -34.5527  -38.5357 O.2       9 UNK        -0.4960 
     59 C59        20.6243  -32.7822  -40.8449 C.3       10 UNK        -0.0876 
     60 S60        19.4943  -32.6320  -42.2708 S.3       10 UNK        -0.2414 
     61 C61        19.9473  -31.0054  -42.9506 C.3       10 UNK         0.0169 
     62 H62        15.3840  -25.4922  -45.7826 H         1 UNK         0.0903 
     63 H63        16.0199  -24.0583  -44.9693 H         1 UNK         0.0903 
     64 H64        15.4327  -23.9467  -46.6296 H         1 UNK         0.0903 
     65 H65        17.0275  -26.8899  -46.4299 H         1 UNK         0.3096 
     66 H66        19.1006  -26.0075  -48.1360 H         1 UNK         0.1121 
     67 H67        19.5605  -28.2242  -48.5837 H         1 UNK         0.0849 
     68 H68        19.3656  -28.7694  -46.9593 H         1 UNK         0.0849 
     69 H69        16.1092  -30.6361  -47.1858 H         1 UNK         0.0865 
     70 H70        17.7897  -30.9956  -47.4673 H         1 UNK         0.0865 
     71 H71        19.1855  -31.1618  -45.5674 H         1 UNK         0.1346 
     72 H72        18.0451  -29.4553  -41.8172 H         1 UNK         0.1412 
     73 H73        15.6545  -28.7329  -45.3071 H         1 UNK         0.1426 
     74 H74        15.8893  -28.3554  -41.5863 H         1 UNK         0.0716 
     75 H75        14.7750  -28.3694  -42.9267 H         1 UNK         0.0716 
     76 H76        16.3056  -26.0346  -40.5576 H         1 UNK         0.0695 
     77 H77        16.9482  -24.6901  -41.4620 H         1 UNK         0.0695 
     78 H78        18.2564  -27.4017  -41.0107 H         1 UNK         0.0983 
     79 H79        18.8316  -25.6054  -43.1590 H         1 UNK         0.3095 
     80 H80        21.4339  -25.6740  -43.9987 H         1 UNK         0.0454 
     81 H81        21.7631  -28.7134  -44.2822 H         1 UNK         0.0851 
     82 H82        22.8882  -27.6582  -43.4370 H         1 UNK         0.0851 
     83 H83        22.6777  -27.4947  -45.1684 H         1 UNK         0.0851 
     84 H84        19.1313  -27.2061  -44.7908 H         1 UNK         0.2976 
     85 H85        19.2051  -27.4726  -39.1214 H         1 UNK         0.3116 
     86 H86        20.3597  -27.0681  -37.2971 H         1 UNK         0.0646 
     87 H87        19.4840  -24.1377  -37.4495 H         1 UNK         0.0847 
     88 H88        20.0838  -24.9830  -36.0332 H         1 UNK         0.0847 
     89 H89        18.5377  -25.4381  -36.7263 H         1 UNK         0.0847 
     90 H90        21.7217  -27.0041  -39.8345 H         1 UNK         0.3040 
     91 H91        24.2208  -25.6224  -39.0059 H         1 UNK         0.1015 
     92 H92        23.0974  -25.7931  -41.8649 H         1 UNK         0.0786 
     93 H93        24.6413  -25.0924  -41.4056 H         1 UNK         0.0786 
     94 H94        23.1475  -24.3254  -40.8933 H         1 UNK         0.0786 
     95 H95        26.1016  -26.6388  -40.1875 H         1 UNK         0.3172 
     96 H96        26.1202  -29.4905  -39.7623 H         1 UNK         0.0595 
     97 H97        28.2238  -27.6192  -40.9810 H         1 UNK         0.0839 
     98 H98        28.4956  -29.2882  -40.5030 H         1 UNK         0.0839 
     99 H99        28.1095  -28.0859  -39.2833 H         1 UNK         0.0839 
    100 H100       25.6473  -31.0689  -41.1736 H         1 UNK         0.2998 
    101 H101       26.1429  -31.1763  -43.9279 H         1 UNK         0.0822 
    102 H102       24.2696  -29.5523  -44.1951 H         1 UNK         0.0787 
    103 H103       23.7079  -31.1106  -44.7283 H         1 UNK         0.0787 
    104 H104       23.2337  -30.5110  -43.1408 H         1 UNK         0.0787 
    105 H105       24.3374  -33.0490  -44.6931 H         1 UNK         0.3055 
    106 H106       25.0243  -35.4192  -43.3407 H         1 UNK         0.1106 
    107 H107       23.3495  -36.4585  -44.8870 H         1 UNK         0.0828 
    108 H108       22.7317  -34.8677  -45.3071 H         1 UNK         0.0828 
    109 H109       24.3806  -35.3247  -45.7401 H         1 UNK         0.0828 
    110 H110       22.5209  -33.1843  -42.5377 H         1 UNK         0.2931 
    111 H111       20.8401  -34.9163  -40.9772 H         1 UNK         0.0412 
    112 H112       24.1126  -33.7573  -40.3068 H         1 UNK         0.3472 
    113 H113       24.0559  -34.1528  -38.6048 H         1 UNK         0.3472 
    114 H114       20.0011  -32.7875  -39.9483 H         1 UNK         0.0970 
    115 H115       21.2534  -31.8939  -40.7632 H         1 UNK         0.0970 
    116 H116       20.3103  -30.3491  -42.1583 H         1 UNK         0.0612 
    117 H117       20.7705  -31.1241  -43.6565 H         1 UNK         0.0612 
@<TRIPOS>BOND
     1    1    2 1    
     2    1   62 1    
     3    1   63 1    
     4    1   64 1    
     5    2    3 2    
     6    2    4 am   BACKBONE|DICT|INTERRES
     7    4    5 1    
     8    4   65 1    
     9    5    6 1    
    10    5   25 1    
    11    5   66 1    
    12    6    7 1    
    13    6   67 1    
    14    6   68 1    
    15    7    8 1    
    16    8    9 1    
    17    8   69 1    
    18    8   70 1    
    19    9   10 ar   
    20    9   14 ar   
    21   10   11 ar   
    22   10   71 1    
    23   11   12 ar   
    24   11   61 1    
    25   12   13 ar   
    26   12   72 1    
    27   13   14 ar   
    28   13   15 1    
    29   14   73 1    
    30   15   16 1    
    31   15   74 1    
    32   15   75 1    
    33   16   17 1    
    34   17   18 1    
    35   17   76 1    
    36   17   77 1    
    37   18   19 1    
    38   18   27 1    
    39   18   78 1    
    40   19   20 am   BACKBONE|DICT|INTERRES
    41   19   79 1    
    42   20   21 2    
    43   20   22 1    
    44   22   23 1    
    45   22   24 1    
    46   22   80 1    
    47   23   81 1    
    48   23   82 1    
    49   23   83 1    
    50   24   25 am   BACKBONE|DICT|INTERRES
    51   24   84 1    
    52   25   26 2    
    53   27   28 2    
    54   27   29 am   BACKBONE|DICT|INTERRES
    55   29   30 1    
    56   29   85 1    
    57   30   31 1    
    58   30   32 1    
    59   30   86 1    
    60   31   87 1    
    61   31   88 1    
    62   31   89 1    
    63   32   33 2    
    64   32   34 am   BACKBONE|DICT|INTERRES
    65   34   35 1    
    66   34   90 1    
    67   35   36 1    
    68   35   37 1    
    69   35   91 1    
    70   36   92 1    
    71   36   93 1    
    72   36   94 1    
    73   37   38 2    
    74   37   39 am   BACKBONE|DICT|INTERRES
    75   39   40 1    
    76   39   95 1    
    77   40   41 1    
    78   40   42 1    
    79   40   96 1    
    80   41   97 1    
    81   41   98 1    
    82   41   99 1    
    83   42   43 2    
    84   42   44 am   BACKBONE|DICT|INTERRES
    85   44   45 1    
    86   44  100 1    
    87   45   46 1    
    88   45   47 1    
    89   45  101 1    
    90   46  102 1    
    91   46  103 1    
    92   46  104 1    
    93   47   48 2    
    94   47   49 am   BACKBONE|DICT|INTERRES
    95   49   50 1    
    96   49  105 1    
    97   50   51 1    
    98   50   52 1    
    99   50  106 1    
   100   51  107 1    
   101   51  108 1    
   102   51  109 1    
   103   52   53 2    
   104   52   54 am   BACKBONE|DICT|INTERRES
   105   54   55 1    
   106   54  110 1    
   107   55   56 1    
   108   55   59 1    
   109   55  111 1    
   110   56   57 am   BACKBONE|DICT|INTERRES
   111   56   58 2    
   112   57  112 1    
   113   57  113 1    
   114   59   60 1    
   115   59  114 1    
   116   59  115 1    
   117   60   61 1    
   118   61  116 1    
   119   61  117 1    
@<TRIPOS>SUBSTRUCTURE
     1 UNK         1 GROUP             0       ****    0 ROOT    
