@<TRIPOS>MOLECULE
3R8
117   119    1
SMALL
USER_CHARGES


@<TRIPOS>ATOM
      1 CA         17.5540  -22.8310  -48.5398 C.3       0 UNK        -0.2013 
      2 C          18.5397  -23.8258  -47.9451 C.2       0 UNK         0.4866 
      3 O          19.7462  -23.5792  -47.9656 O.2       0 UNK        -0.5176 
      4 N          18.0381  -24.9520  -47.4225 N.am      1 UNK        -0.4884 
      5 CA         18.8327  -25.9822  -46.7472 C.3       1 UNK         0.0853 
      6 C6         18.0376  -27.3061  -46.6306 C.3       10 UNK        -0.0849 
      7 S7         19.1060  -28.7497  -46.2994 S.3       10 UNK        -0.2776 
      8 C8         17.8997  -30.1133  -46.3817 C.3       10 UNK         0.0316 
      9 C9         17.4324  -30.5621  -45.0020 C.ar      10 UNK        -0.0863 
     10 C10        17.8207  -31.8098  -44.5014 C.ar      10 UNK        -0.1009 
     11 C11        17.3575  -32.2569  -43.2593 C.ar      10 UNK        -0.0712 
     12 C12        16.5087  -31.4367  -42.5095 C.ar      10 UNK        -0.0894 
     13 C13        16.1121  -30.1876  -42.9977 C.ar      10 UNK        -0.0745 
     14 C14        16.5737  -29.7585  -44.2453 C.ar      10 UNK        -0.0972 
     15 C15        15.1456  -29.3248  -42.1988 C.3       10 UNK         0.0209 
     16 S16        15.9525  -28.5036  -40.7899 S.3       10 UNK        -0.2568 
     17 C17        16.9756  -27.2268  -41.6043 C.3       10 UNK        -0.0983 
     18 CA         18.4905  -27.5500  -41.5662 C.3       3 UNK         0.0876 
     19 N          19.2495  -26.6284  -42.4179 N.am      3 UNK        -0.4424 
     20 C          20.5745  -26.6208  -42.6248 C.2       2 UNK         0.4918 
     21 O          21.3667  -27.3883  -42.0753 O.2       2 UNK        -0.4875 
     22 CA         21.0970  -25.5940  -43.6484 C.3       2 UNK         0.0481 
     23 CB         22.6334  -25.6082  -43.7649 C.3       2 UNK        -0.1831 
     24 N          20.5226  -25.8408  -44.9725 N.am      2 UNK        -0.4498 
     25 C          19.2910  -25.4869  -45.3606 C.2       1 UNK         0.5027 
     26 O          18.5086  -24.8506  -44.6478 O.2       1 UNK        -0.4969 
     27 C          19.0523  -27.5792  -40.1278 C.2       3 UNK         0.5005 
     28 O          18.8796  -26.6097  -39.3847 O.2       3 UNK        -0.5279 
     29 N          19.7519  -28.6748  -39.7985 N.am      4 UNK        -0.4463 
     30 CA         20.4766  -28.9419  -38.5495 C.3       4 UNK         0.0283 
     31 CB         19.4894  -29.0981  -37.3741 C.3       4 UNK        -0.1875 
     32 C          21.6071  -27.9339  -38.2419 C.2       4 UNK         0.4949 
     33 O          22.0038  -27.8064  -37.0826 O.2       4 UNK        -0.5039 
     34 N          22.1151  -27.2458  -39.2727 N.am      5 UNK        -0.4663 
     35 CA         23.1457  -26.2072  -39.1823 C.3       5 UNK         0.0242 
     36 CB         22.5231  -24.8596  -39.5922 C.3       5 UNK        -0.1982 
     37 C          24.3839  -26.5498  -40.0307 C.2       5 UNK         0.5017 
     38 O          25.2048  -25.6681  -40.2886 O.2       5 UNK        -0.5012 
     39 N          24.5078  -27.8148  -40.4445 N.am      6 UNK        -0.4439 
     40 CA         25.6202  -28.3720  -41.2066 C.3       6 UNK         0.0297 
     41 CB         25.4105  -28.1045  -42.7088 C.3       6 UNK        -0.2006 
     42 C          25.6921  -29.8746  -40.9149 C.2       6 UNK         0.4892 
     43 O          24.7082  -30.4482  -40.4403 O.2       6 UNK        -0.5089 
     44 N          26.8356  -30.4962  -41.2307 N.am      7 UNK        -0.4243 
     45 CA         27.0735  -31.9335  -41.0444 C.3       7 UNK         0.0196 
     46 CB         28.5474  -32.2514  -41.3435 C.3       7 UNK        -0.2007 
     47 C          26.1475  -32.8281  -41.8890 C.2       7 UNK         0.5020 
     48 O          25.7721  -33.9106  -41.4392 O.2       7 UNK        -0.5147 
     49 N          25.7651  -32.3497  -43.0797 N.am      8 UNK        -0.4734 
     50 CA         24.8486  -33.0180  -44.0066 C.3       8 UNK         0.0238 
     51 CB         25.2660  -32.6698  -45.4486 C.3       8 UNK        -0.1912 
     52 C          23.3778  -32.6596  -43.7114 C.2       8 UNK         0.5038 
     53 O          22.6511  -32.2688  -44.6265 O.2       8 UNK        -0.5046 
     54 N          22.9673  -32.7946  -42.4419 N.am      9 UNK        -0.4200 
     55 CA         21.6201  -32.4778  -41.9327 C.3       9 UNK         0.0839 
     56 C          21.2740  -30.9572  -41.9435 C.2       9 UNK         0.5513 
     57 N          22.2489  -30.0615  -41.9519 N.am      9 UNK        -0.7519 
     58 O          20.1126  -30.5686  -41.8962 O.2       9 UNK        -0.4960 
     59 C59        20.5269  -33.3706  -42.5905 C.3       10 UNK        -0.0876 
     60 S60        19.0666  -33.6361  -41.5270 S.3       10 UNK        -0.2414 
     61 C61        17.7194  -33.6487  -42.7529 C.3       10 UNK         0.0169 
     62 H62        17.7799  -22.6624  -49.5925 H         1 UNK         0.0903 
     63 H63        16.5248  -23.1819  -48.4662 H         1 UNK         0.0903 
     64 H64        17.6247  -21.8765  -48.0189 H         1 UNK         0.0903 
     65 H65        17.0367  -25.0840  -47.4015 H         1 UNK         0.3096 
     66 H66        19.7176  -26.1627  -47.3627 H         1 UNK         0.1121 
     67 H67        17.2631  -27.2301  -45.8665 H         1 UNK         0.0849 
     68 H68        17.5167  -27.5018  -47.5696 H         1 UNK         0.0849 
     69 H69        17.0377  -29.8251  -46.9850 H         1 UNK         0.0865 
     70 H70        18.3655  -30.9462  -46.9107 H         1 UNK         0.0865 
     71 H71        18.4673  -32.4454  -45.0905 H         1 UNK         0.1346 
     72 H72        16.1435  -31.7779  -41.5504 H         1 UNK         0.1412 
     73 H73        16.2500  -28.8041  -44.6327 H         1 UNK         0.1426 
     74 H74        14.3381  -29.9525  -41.8191 H         1 UNK         0.0716 
     75 H75        14.6705  -28.5761  -42.8346 H         1 UNK         0.0716 
     76 H76        16.7743  -26.2662  -41.1264 H         1 UNK         0.0695 
     77 H77        16.6449  -27.1178  -42.6382 H         1 UNK         0.0695 
     78 H78        18.6135  -28.5386  -42.0108 H         1 UNK         0.0983 
     79 H79        18.7046  -25.9491  -42.9368 H         1 UNK         0.3095 
     80 H80        20.7972  -24.6022  -43.3041 H         1 UNK         0.0454 
     81 H81        22.9863  -24.8420  -44.4550 H         1 UNK         0.0851 
     82 H82        23.0025  -26.5723  -44.1166 H         1 UNK         0.0851 
     83 H83        23.1050  -25.4141  -42.8011 H         1 UNK         0.0851 
     84 H84        21.0749  -26.4146  -45.5941 H         1 UNK         0.2976 
     85 H85        19.8590  -29.3863  -40.5222 H         1 UNK         0.3116 
     86 H86        20.9697  -29.9040  -38.6954 H         1 UNK         0.0646 
     87 H87        19.0033  -28.1537  -37.1274 H         1 UNK         0.0847 
     88 H88        19.9997  -29.4452  -36.4749 H         1 UNK         0.0847 
     89 H89        18.7112  -29.8260  -37.6035 H         1 UNK         0.0847 
     90 H90        21.7390  -27.4121  -40.2033 H         1 UNK         0.3040 
     91 H91        23.5024  -26.1147  -38.1544 H         1 UNK         0.1015 
     92 H92        23.2404  -24.0442  -39.4906 H         1 UNK         0.0786 
     93 H93        21.6666  -24.6151  -38.9635 H         1 UNK         0.0786 
     94 H94        22.1824  -24.8703  -40.6270 H         1 UNK         0.0786 
     95 H95        23.8285  -28.5021  -40.1400 H         1 UNK         0.3172 
     96 H96        26.5538  -27.9129  -40.8748 H         1 UNK         0.0595 
     97 H97        26.2243  -28.5201  -43.3039 H         1 UNK         0.0839 
     98 H98        25.3758  -27.0352  -42.9177 H         1 UNK         0.0839 
     99 H99        24.4805  -28.5434  -43.0721 H         1 UNK         0.0839 
    100 H100       27.5960  -29.9549  -41.6174 H         1 UNK         0.2998 
    101 H101       26.8802  -32.1671  -39.9950 H         1 UNK         0.0822 
    102 H102       28.7566  -33.3111  -41.1898 H         1 UNK         0.0787 
    103 H103       28.8117  -32.0135  -42.3747 H         1 UNK         0.0787 
    104 H104       29.2155  -31.6934  -40.6871 H         1 UNK         0.0787 
    105 H105       26.0972  -31.4363  -43.3530 H         1 UNK         0.3055 
    106 H106       24.9389  -34.1006  -43.8897 H         1 UNK         0.1106 
    107 H107       24.6429  -33.1942  -46.1744 H         1 UNK         0.0828 
    108 H108       25.1731  -31.6018  -45.6500 H         1 UNK         0.0828 
    109 H109       26.2984  -32.9602  -45.6442 H         1 UNK         0.0828 
    110 H110       23.6436  -33.0994  -41.7538 H         1 UNK         0.2931 
    111 H111       21.6663  -32.7435  -40.8761 H         1 UNK         0.0412 
    112 H112       23.2091  -30.3522  -41.8344 H         1 UNK         0.3472 
    113 H113       22.0041  -29.0771  -42.0093 H         1 UNK         0.3472 
    114 H114       20.2284  -32.9530  -43.5522 H         1 UNK         0.0970 
    115 H115       20.9328  -34.3587  -42.8117 H         1 UNK         0.0970 
    116 H116       16.8398  -34.1012  -42.2928 H         1 UNK         0.0612 
    117 H117       17.9924  -34.3018  -43.5834 H         1 UNK         0.0612 
@<TRIPOS>BOND
     1    1    2 1    
     2    1   62 1    
     3    1   63 1    
     4    1   64 1    
     5    2    3 2    
     6    2    4 am   BACKBONE|DICT|INTERRES
     7    4    5 1    
     8    4   65 1    
     9    5    6 1    
    10    5   25 1    
    11    5   66 1    
    12    6    7 1    
    13    6   67 1    
    14    6   68 1    
    15    7    8 1    
    16    8    9 1    
    17    8   69 1    
    18    8   70 1    
    19    9   10 ar   
    20    9   14 ar   
    21   10   11 ar   
    22   10   71 1    
    23   11   12 ar   
    24   11   61 1    
    25   12   13 ar   
    26   12   72 1    
    27   13   14 ar   
    28   13   15 1    
    29   14   73 1    
    30   15   16 1    
    31   15   74 1    
    32   15   75 1    
    33   16   17 1    
    34   17   18 1    
    35   17   76 1    
    36   17   77 1    
    37   18   19 1    
    38   18   27 1    
    39   18   78 1    
    40   19   20 am   BACKBONE|DICT|INTERRES
    41   19   79 1    
    42   20   21 2    
    43   20   22 1    
    44   22   23 1    
    45   22   24 1    
    46   22   80 1    
    47   23   81 1    
    48   23   82 1    
    49   23   83 1    
    50   24   25 am   BACKBONE|DICT|INTERRES
    51   24   84 1    
    52   25   26 2    
    53   27   28 2    
    54   27   29 am   BACKBONE|DICT|INTERRES
    55   29   30 1    
    56   29   85 1    
    57   30   31 1    
    58   30   32 1    
    59   30   86 1    
    60   31   87 1    
    61   31   88 1    
    62   31   89 1    
    63   32   33 2    
    64   32   34 am   BACKBONE|DICT|INTERRES
    65   34   35 1    
    66   34   90 1    
    67   35   36 1    
    68   35   37 1    
    69   35   91 1    
    70   36   92 1    
    71   36   93 1    
    72   36   94 1    
    73   37   38 2    
    74   37   39 am   BACKBONE|DICT|INTERRES
    75   39   40 1    
    76   39   95 1    
    77   40   41 1    
    78   40   42 1    
    79   40   96 1    
    80   41   97 1    
    81   41   98 1    
    82   41   99 1    
    83   42   43 2    
    84   42   44 am   BACKBONE|DICT|INTERRES
    85   44   45 1    
    86   44  100 1    
    87   45   46 1    
    88   45   47 1    
    89   45  101 1    
    90   46  102 1    
    91   46  103 1    
    92   46  104 1    
    93   47   48 2    
    94   47   49 am   BACKBONE|DICT|INTERRES
    95   49   50 1    
    96   49  105 1    
    97   50   51 1    
    98   50   52 1    
    99   50  106 1    
   100   51  107 1    
   101   51  108 1    
   102   51  109 1    
   103   52   53 2    
   104   52   54 am   BACKBONE|DICT|INTERRES
   105   54   55 1    
   106   54  110 1    
   107   55   56 1    
   108   55   59 1    
   109   55  111 1    
   110   56   57 am   BACKBONE|DICT|INTERRES
   111   56   58 2    
   112   57  112 1    
   113   57  113 1    
   114   59   60 1    
   115   59  114 1    
   116   59  115 1    
   117   60   61 1    
   118   61  116 1    
   119   61  117 1    
@<TRIPOS>SUBSTRUCTURE
     1 UNK         1 GROUP             0       ****    0 ROOT    
