@<TRIPOS>MOLECULE
3R8
117   119    1
SMALL
USER_CHARGES


@<TRIPOS>ATOM
      1 CA         19.4861  -26.7908  -49.5243 C.3       0 UNK        -0.2013 
      2 C          19.2533  -27.1934  -48.0763 C.2       0 UNK         0.4866 
      3 O          20.0707  -27.9119  -47.4999 O.2       0 UNK        -0.5176 
      4 N          18.1509  -26.7282  -47.4752 N.am      1 UNK        -0.4884 
      5 CA         17.7387  -27.0194  -46.0951 C.3       1 UNK         0.0853 
      6 C6         16.2041  -26.8805  -45.9166 C.3       10 UNK        -0.0849 
      7 S7         15.3148  -28.1744  -46.8468 S.3       10 UNK        -0.2776 
      8 C8         14.6441  -29.2207  -45.5070 C.3       10 UNK         0.0316 
      9 C9         15.6961  -29.6841  -44.5016 C.ar      10 UNK        -0.0863 
     10 C10        16.8607  -30.3297  -44.9289 C.ar      10 UNK        -0.1009 
     11 C11        17.8212  -30.7484  -44.0041 C.ar      10 UNK        -0.0712 
     12 C12        17.5902  -30.5602  -42.6380 C.ar      10 UNK        -0.0894 
     13 C13        16.4316  -29.9149  -42.1935 C.ar      10 UNK        -0.0745 
     14 C14        15.4918  -29.4778  -43.1330 C.ar      10 UNK        -0.0972 
     15 C15        16.1652  -29.7052  -40.7041 C.3       10 UNK         0.0209 
     16 S16        17.5980  -29.0735  -39.7635 S.3       10 UNK        -0.2568 
     17 C17        17.9613  -27.4988  -40.6088 C.3       10 UNK        -0.0983 
     18 CA         19.4666  -27.3881  -40.9618 C.3       3 UNK         0.0876 
     19 N          19.6778  -26.6414  -42.2024 N.am      3 UNK        -0.4424 
     20 C          20.8532  -26.4751  -42.8216 C.2       2 UNK         0.4918 
     21 O          21.9195  -26.9086  -42.3831 O.2       2 UNK        -0.4875 
     22 CA         20.8205  -25.7188  -44.1649 C.3       2 UNK         0.0481 
     23 CB         22.2011  -25.6622  -44.8445 C.3       2 UNK        -0.1831 
     24 N          19.8666  -26.3235  -45.0967 N.am      2 UNK        -0.4498 
     25 C          18.5359  -26.1833  -45.0720 C.2       1 UNK         0.5027 
     26 O          17.9522  -25.4504  -44.2702 O.2       1 UNK        -0.4969 
     27 C          20.2804  -26.7762  -39.8034 C.2       3 UNK         0.5005 
     28 O          20.2595  -25.5550  -39.6306 O.2       3 UNK        -0.5279 
     29 N          21.0161  -27.6242  -39.0711 N.am      4 UNK        -0.4463 
     30 CA         21.9534  -27.3185  -37.9770 C.3       4 UNK         0.0283 
     31 CB         21.2471  -26.6024  -36.8086 C.3       4 UNK        -0.1875 
     32 C          23.2347  -26.5665  -38.3965 C.2       4 UNK         0.4949 
     33 O          24.2538  -26.7184  -37.7222 O.2       4 UNK        -0.5039 
     34 N          23.1847  -25.7865  -39.4845 N.am      5 UNK        -0.4663 
     35 CA         24.3389  -25.1306  -40.1023 C.3       5 UNK         0.0242 
     36 CB         23.8555  -24.0425  -41.0749 C.3       5 UNK        -0.1982 
     37 C          25.2520  -26.1451  -40.8096 C.2       5 UNK         0.5017 
     38 O          26.4672  -26.1108  -40.6103 O.2       5 UNK        -0.5012 
     39 N          24.6454  -27.0443  -41.5948 N.am      6 UNK        -0.4439 
     40 CA         25.2901  -28.2264  -42.1620 C.3       6 UNK         0.0297 
     41 CB         24.5272  -28.6522  -43.4277 C.3       6 UNK        -0.2006 
     42 C          25.3019  -29.3717  -41.1377 C.2       6 UNK         0.4892 
     43 O          24.5253  -29.3591  -40.1776 O.2       6 UNK        -0.5089 
     44 N          26.1561  -30.3722  -41.3870 N.am      7 UNK        -0.4243 
     45 CA         26.2692  -31.6045  -40.6023 C.3       7 UNK         0.0196 
     46 CB         27.6141  -32.2811  -40.9264 C.3       7 UNK        -0.2007 
     47 C          25.0673  -32.5372  -40.8475 C.2       7 UNK         0.5020 
     48 O          25.1976  -33.5478  -41.5387 O.2       7 UNK        -0.5147 
     49 N          23.9005  -32.1377  -40.3258 N.am      8 UNK        -0.4734 
     50 CA         22.5772  -32.7808  -40.3789 C.3       8 UNK         0.0238 
     51 CB         22.6150  -34.1851  -39.7431 C.3       8 UNK        -0.1912 
     52 C          21.9072  -32.8229  -41.7670 C.2       8 UNK         0.5038 
     53 O          20.6826  -32.9333  -41.8133 O.2       8 UNK        -0.5046 
     54 N          22.7008  -32.7422  -42.8447 N.am      9 UNK        -0.4200 
     55 CA         22.3269  -32.7674  -44.2721 C.3       9 UNK         0.0839 
     56 C          21.4680  -33.9777  -44.7553 C.2       9 UNK         0.5513 
     57 N          21.4059  -35.0799  -44.0187 N.am      9 UNK        -0.7519 
     58 O          20.8867  -33.9420  -45.8367 O.2       9 UNK        -0.4960 
     59 C59        21.9001  -31.3814  -44.8561 C.3       10 UNK        -0.0876 
     60 S60        20.5762  -30.4601  -43.9993 S.3       10 UNK        -0.2414 
     61 C61        19.1023  -31.4163  -44.4777 C.3       10 UNK         0.0169 
     62 H62        20.4245  -26.2445  -49.6152 H         1 UNK         0.0903 
     63 H63        19.5456  -27.6779  -50.1543 H         1 UNK         0.0903 
     64 H64        18.6856  -26.1572  -49.9057 H         1 UNK         0.0903 
     65 H65        17.5231  -26.1306  -47.9945 H         1 UNK         0.3096 
     66 H66        18.0021  -28.0561  -45.8778 H         1 UNK         0.1121 
     67 H67        15.8624  -25.9008  -46.2548 H         1 UNK         0.0849 
     68 H68        15.9203  -26.9475  -44.8645 H         1 UNK         0.0849 
     69 H69        13.8484  -28.6676  -45.0055 H         1 UNK         0.0865 
     70 H70        14.1714  -30.0983  -45.9499 H         1 UNK         0.0865 
     71 H71        17.0243  -30.4902  -45.9860 H         1 UNK         0.1346 
     72 H72        18.3255  -30.9055  -41.9233 H         1 UNK         0.1412 
     73 H73        14.5902  -28.9845  -42.7955 H         1 UNK         0.1426 
     74 H74        15.8572  -30.6573  -40.2704 H         1 UNK         0.0716 
     75 H75        15.3316  -29.0168  -40.5562 H         1 UNK         0.0716 
     76 H76        17.6215  -26.6668  -39.9885 H         1 UNK         0.0695 
     77 H77        17.3574  -27.4465  -41.5158 H         1 UNK         0.0695 
     78 H78        19.8547  -28.3890  -41.1670 H         1 UNK         0.0983 
     79 H79        18.8612  -26.2187  -42.6285 H         1 UNK         0.3095 
     80 H80        20.5090  -24.6941  -43.9532 H         1 UNK         0.0454 
     81 H81        22.5609  -26.6587  -45.1024 H         1 UNK         0.0851 
     82 H82        22.9457  -25.2039  -44.1930 H         1 UNK         0.0851 
     83 H83        22.1678  -25.0719  -45.7601 H         1 UNK         0.0851 
     84 H84        20.2462  -26.9589  -45.7937 H         1 UNK         0.2976 
     85 H85        20.9798  -28.6024  -39.3237 H         1 UNK         0.3116 
     86 H86        22.2852  -28.2902  -37.6076 H         1 UNK         0.0646 
     87 H87        20.9213  -25.5981  -37.0802 H         1 UNK         0.0847 
     88 H88        21.9179  -26.5013  -35.9545 H         1 UNK         0.0847 
     89 H89        20.3738  -27.1596  -36.4700 H         1 UNK         0.0847 
     90 H90        22.2857  -25.6768  -39.9396 H         1 UNK         0.3040 
     91 H91        24.9234  -24.6496  -39.3147 H         1 UNK         0.1015 
     92 H92        23.2256  -24.4530  -41.8639 H         1 UNK         0.0786 
     93 H93        24.6996  -23.5453  -41.5549 H         1 UNK         0.0786 
     94 H94        23.2808  -23.2757  -40.5550 H         1 UNK         0.0786 
     95 H95        23.6331  -27.0005  -41.6959 H         1 UNK         0.3172 
     96 H96        26.3194  -27.9841  -42.4349 H         1 UNK         0.0595 
     97 H97        25.0041  -29.5058  -43.9104 H         1 UNK         0.0839 
     98 H98        24.4959  -27.8453  -44.1594 H         1 UNK         0.0839 
     99 H99        23.4991  -28.9391  -43.2012 H         1 UNK         0.0839 
    100 H100       26.7365  -30.3149  -42.2117 H         1 UNK         0.2998 
    101 H101       26.2746  -31.3451  -39.5411 H         1 UNK         0.0822 
    102 H102       27.7343  -33.2023  -40.3545 H         1 UNK         0.0787 
    103 H103       27.6947  -32.5408  -41.9828 H         1 UNK         0.0787 
    104 H104       28.4545  -31.6338  -40.6750 H         1 UNK         0.0787 
    105 H105       23.9108  -31.2148  -39.8979 H         1 UNK         0.3055 
    106 H106       21.9283  -32.1599  -39.7587 H         1 UNK         0.1106 
    107 H107       21.6128  -34.6118  -39.6827 H         1 UNK         0.0828 
    108 H108       23.2260  -34.8796  -40.3201 H         1 UNK         0.0828 
    109 H109       23.0123  -34.1510  -38.7287 H         1 UNK         0.0828 
    110 H110       23.6963  -32.7604  -42.6590 H         1 UNK         0.2931 
    111 H111       23.2813  -32.9786  -44.7559 H         1 UNK         0.0412 
    112 H112       21.8768  -35.1263  -43.1297 H         1 UNK         0.3472 
    113 H113       20.8622  -35.8630  -44.3458 H         1 UNK         0.3472 
    114 H114       21.6379  -31.4648  -45.9122 H         1 UNK         0.0970 
    115 H115       22.7728  -30.7281  -44.8460 H         1 UNK         0.0970 
    116 H116       19.0961  -31.5458  -45.5611 H         1 UNK         0.0612 
    117 H117       19.1559  -32.4132  -44.0403 H         1 UNK         0.0612 
@<TRIPOS>BOND
     1    1    2 1    
     2    1   62 1    
     3    1   63 1    
     4    1   64 1    
     5    2    3 2    
     6    2    4 am   BACKBONE|DICT|INTERRES
     7    4    5 1    
     8    4   65 1    
     9    5    6 1    
    10    5   25 1    
    11    5   66 1    
    12    6    7 1    
    13    6   67 1    
    14    6   68 1    
    15    7    8 1    
    16    8    9 1    
    17    8   69 1    
    18    8   70 1    
    19    9   10 ar   
    20    9   14 ar   
    21   10   11 ar   
    22   10   71 1    
    23   11   12 ar   
    24   11   61 1    
    25   12   13 ar   
    26   12   72 1    
    27   13   14 ar   
    28   13   15 1    
    29   14   73 1    
    30   15   16 1    
    31   15   74 1    
    32   15   75 1    
    33   16   17 1    
    34   17   18 1    
    35   17   76 1    
    36   17   77 1    
    37   18   19 1    
    38   18   27 1    
    39   18   78 1    
    40   19   20 am   BACKBONE|DICT|INTERRES
    41   19   79 1    
    42   20   21 2    
    43   20   22 1    
    44   22   23 1    
    45   22   24 1    
    46   22   80 1    
    47   23   81 1    
    48   23   82 1    
    49   23   83 1    
    50   24   25 am   BACKBONE|DICT|INTERRES
    51   24   84 1    
    52   25   26 2    
    53   27   28 2    
    54   27   29 am   BACKBONE|DICT|INTERRES
    55   29   30 1    
    56   29   85 1    
    57   30   31 1    
    58   30   32 1    
    59   30   86 1    
    60   31   87 1    
    61   31   88 1    
    62   31   89 1    
    63   32   33 2    
    64   32   34 am   BACKBONE|DICT|INTERRES
    65   34   35 1    
    66   34   90 1    
    67   35   36 1    
    68   35   37 1    
    69   35   91 1    
    70   36   92 1    
    71   36   93 1    
    72   36   94 1    
    73   37   38 2    
    74   37   39 am   BACKBONE|DICT|INTERRES
    75   39   40 1    
    76   39   95 1    
    77   40   41 1    
    78   40   42 1    
    79   40   96 1    
    80   41   97 1    
    81   41   98 1    
    82   41   99 1    
    83   42   43 2    
    84   42   44 am   BACKBONE|DICT|INTERRES
    85   44   45 1    
    86   44  100 1    
    87   45   46 1    
    88   45   47 1    
    89   45  101 1    
    90   46  102 1    
    91   46  103 1    
    92   46  104 1    
    93   47   48 2    
    94   47   49 am   BACKBONE|DICT|INTERRES
    95   49   50 1    
    96   49  105 1    
    97   50   51 1    
    98   50   52 1    
    99   50  106 1    
   100   51  107 1    
   101   51  108 1    
   102   51  109 1    
   103   52   53 2    
   104   52   54 am   BACKBONE|DICT|INTERRES
   105   54   55 1    
   106   54  110 1    
   107   55   56 1    
   108   55   59 1    
   109   55  111 1    
   110   56   57 am   BACKBONE|DICT|INTERRES
   111   56   58 2    
   112   57  112 1    
   113   57  113 1    
   114   59   60 1    
   115   59  114 1    
   116   59  115 1    
   117   60   61 1    
   118   61  116 1    
   119   61  117 1    
@<TRIPOS>SUBSTRUCTURE
     1 UNK         1 GROUP             0       ****    0 ROOT    
