@<TRIPOS>MOLECULE
3R8
117   119    1
SMALL
USER_CHARGES


@<TRIPOS>ATOM
      1 CA         18.7192  -28.6854  -41.9525 C.3       0 UNK        -0.2013 
      2 C          17.6469  -27.6506  -42.2385 C.2       0 UNK         0.4866 
      3 O          17.3304  -26.8470  -41.3623 O.2       0 UNK        -0.5176 
      4 N          17.0944  -27.6554  -43.4596 N.am      1 UNK        -0.4884 
      5 CA         16.0499  -26.7205  -43.9070 C.3       1 UNK         0.0853 
      6 C6         15.4290  -27.1395  -45.2615 C.3       10 UNK        -0.0849 
      7 S7         14.6693  -28.7984  -45.1789 S.3       10 UNK        -0.2776 
      8 C8         15.6215  -29.7341  -46.4198 C.3       10 UNK         0.0316 
      9 C9         17.0671  -29.9670  -45.9995 C.ar      10 UNK        -0.0863 
     10 C10        17.3698  -30.8937  -44.9963 C.ar      10 UNK        -0.1009 
     11 C11        18.6968  -31.1402  -44.6264 C.ar      10 UNK        -0.0712 
     12 C12        19.7243  -30.4420  -45.2721 C.ar      10 UNK        -0.0894 
     13 C13        19.4356  -29.5196  -46.2824 C.ar      10 UNK        -0.0745 
     14 C14        18.1054  -29.2840  -46.6393 C.ar      10 UNK        -0.0972 
     15 C15        20.5601  -28.7972  -47.0110 C.3       10 UNK         0.0209 
     16 S16        20.7745  -27.0910  -46.4187 S.3       10 UNK        -0.2568 
     17 C17        21.4972  -27.3892  -44.7731 C.3       10 UNK        -0.0983 
     18 CA         21.7022  -26.0977  -43.9369 C.3       3 UNK         0.0876 
     19 N          20.4485  -25.3735  -43.7349 N.am      3 UNK        -0.4424 
     20 C          20.1007  -24.2485  -44.3751 C.2       2 UNK         0.4918 
     21 O          20.8853  -23.5651  -45.0344 O.2       2 UNK        -0.4875 
     22 CA         18.6088  -23.8741  -44.3226 C.3       2 UNK         0.0481 
     23 CB         18.1918  -22.8991  -45.4426 C.3       2 UNK        -0.1831 
     24 N          17.8167  -25.1025  -44.3892 N.am      2 UNK        -0.4498 
     25 C          16.5614  -25.2651  -43.9567 C.2       1 UNK         0.5027 
     26 O          15.8399  -24.3461  -43.5665 O.2       1 UNK        -0.4969 
     27 C          22.3261  -26.4036  -42.5664 C.2       3 UNK         0.5005 
     28 O          22.3815  -27.5655  -42.1571 O.2       3 UNK        -0.5279 
     29 N          22.8049  -25.3610  -41.8730 N.am      4 UNK        -0.4463 
     30 CA         23.5325  -25.4879  -40.6017 C.3       4 UNK         0.0283 
     31 CB         23.8361  -24.0921  -40.0352 C.3       4 UNK        -0.1875 
     32 C          24.8272  -26.3141  -40.7300 C.2       4 UNK         0.4949 
     33 O          25.1630  -27.0699  -39.8187 O.2       4 UNK        -0.5039 
     34 N          25.4912  -26.2043  -41.8902 N.am      5 UNK        -0.4663 
     35 CA         26.6856  -26.9681  -42.2631 C.3       5 UNK         0.0242 
     36 CB         27.2741  -26.3740  -43.5532 C.3       5 UNK        -0.1982 
     37 C          26.4433  -28.4808  -42.4319 C.2       5 UNK         0.5017 
     38 O          27.4033  -29.2469  -42.3469 O.2       5 UNK        -0.5012 
     39 N          25.1837  -28.8913  -42.6491 N.am      6 UNK        -0.4439 
     40 CA         24.7736  -30.2972  -42.7169 C.3       6 UNK         0.0297 
     41 CB         23.5240  -30.4286  -43.6069 C.3       6 UNK        -0.2006 
     42 C          24.5140  -30.9094  -41.3279 C.2       6 UNK         0.4892 
     43 O          24.2169  -32.1022  -41.2594 O.2       6 UNK        -0.5089 
     44 N          24.5860  -30.0978  -40.2575 N.am      7 UNK        -0.4243 
     45 CA         24.3466  -30.4584  -38.8524 C.3       7 UNK         0.0196 
     46 CB         25.4748  -31.3733  -38.3305 C.3       7 UNK        -0.2007 
     47 C          22.9406  -31.0445  -38.6086 C.2       7 UNK         0.5020 
     48 O          22.7787  -31.9290  -37.7676 O.2       7 UNK        -0.5147 
     49 N          21.9584  -30.5463  -39.3750 N.am      8 UNK        -0.4734 
     50 CA         20.5636  -30.9992  -39.4470 C.3       8 UNK         0.0238 
     51 CB         19.8350  -30.7994  -38.1006 C.3       8 UNK        -0.1912 
     52 C          20.3838  -32.4206  -40.0234 C.2       8 UNK         0.5038 
     53 O          19.3333  -33.0251  -39.8006 O.2       8 UNK        -0.5046 
     54 N          21.3754  -32.9046  -40.7873 N.am      9 UNK        -0.4200 
     55 CA         21.4254  -34.2264  -41.4355 C.3       9 UNK         0.0839 
     56 C          21.5364  -35.4121  -40.4278 C.2       9 UNK         0.5513 
     57 N          21.5898  -36.6448  -40.9164 N.am      9 UNK        -0.7519 
     58 O          21.6148  -35.2422  -39.2129 O.2       9 UNK        -0.4960 
     59 C59        20.2997  -34.4323  -42.4956 C.3       10 UNK        -0.0876 
     60 S60        20.3901  -33.2503  -43.8846 S.3       10 UNK        -0.2414 
     61 C61        18.9993  -32.1336  -43.5065 C.3       10 UNK         0.0169 
     62 H62        19.4929  -28.2618  -41.3120 H         1 UNK         0.0903 
     63 H63        18.2748  -29.5413  -41.4463 H         1 UNK         0.0903 
     64 H64        19.1974  -29.0300  -42.8659 H         1 UNK         0.0903 
     65 H65        17.3548  -28.3700  -44.1276 H         1 UNK         0.3096 
     66 H66        15.2562  -26.7428  -43.1563 H         1 UNK         0.1121 
     67 H67        16.1752  -27.1079  -46.0572 H         1 UNK         0.0849 
     68 H68        14.6474  -26.4355  -45.5539 H         1 UNK         0.0849 
     69 H69        15.1378  -30.6996  -46.5757 H         1 UNK         0.0865 
     70 H70        15.5715  -29.2164  -47.3792 H         1 UNK         0.0865 
     71 H71        16.5653  -31.4227  -44.5030 H         1 UNK         0.1346 
     72 H72        20.7530  -30.6203  -44.9909 H         1 UNK         0.1412 
     73 H73        17.8834  -28.5747  -47.4255 H         1 UNK         0.1426 
     74 H74        21.5013  -29.3395  -46.9070 H         1 UNK         0.0716 
     75 H75        20.3411  -28.7725  -48.0795 H         1 UNK         0.0716 
     76 H76        22.4509  -27.8992  -44.9182 H         1 UNK         0.0695 
     77 H77        20.8517  -28.0858  -44.2388 H         1 UNK         0.0695 
     78 H78        22.4206  -25.4712  -44.4705 H         1 UNK         0.0983 
     79 H79        19.7742  -25.8185  -43.1299 H         1 UNK         0.3095 
     80 H80        18.4354  -23.3952  -43.3569 H         1 UNK         0.0454 
     81 H81        17.1384  -22.6298  -45.3690 H         1 UNK         0.0851 
     82 H82        18.3594  -23.3300  -46.4303 H         1 UNK         0.0851 
     83 H83        18.7629  -21.9715  -45.3882 H         1 UNK         0.0851 
     84 H84        18.3129  -25.9189  -44.7218 H         1 UNK         0.2976 
     85 H85        22.6990  -24.4307  -42.2538 H         1 UNK         0.3116 
     86 H86        22.8805  -26.0080  -39.8964 H         1 UNK         0.0646 
     87 H87        22.9208  -23.5272  -39.8579 H         1 UNK         0.0847 
     88 H88        24.3586  -24.1650  -39.0802 H         1 UNK         0.0847 
     89 H89        24.4671  -23.5089  -40.7071 H         1 UNK         0.0847 
     90 H90        25.1400  -25.5528  -42.5769 H         1 UNK         0.3040 
     91 H91        27.4201  -26.8496  -41.4631 H         1 UNK         0.1015 
     92 H92        26.5759  -26.4483  -44.3879 H         1 UNK         0.0786 
     93 H93        28.1860  -26.8977  -43.8442 H         1 UNK         0.0786 
     94 H94        27.5354  -25.3234  -43.4242 H         1 UNK         0.0786 
     95 H95        24.4385  -28.2056  -42.6582 H         1 UNK         0.3172 
     96 H96        25.5728  -30.8789  -43.1810 H         1 UNK         0.0595 
     97 H97        22.6568  -29.9329  -43.1713 H         1 UNK         0.0839 
     98 H98        23.2541  -31.4766  -43.7466 H         1 UNK         0.0839 
     99 H99        23.6946  -30.0086  -44.5978 H         1 UNK         0.0839 
    100 H100       24.8216  -29.1240  -40.4126 H         1 UNK         0.2998 
    101 H101       24.3881  -29.5260  -38.2870 H         1 UNK         0.0822 
    102 H102       25.3804  -31.5388  -37.2565 H         1 UNK         0.0787 
    103 H103       25.4577  -32.3511  -38.8130 H         1 UNK         0.0787 
    104 H104       26.4557  -30.9306  -38.5035 H         1 UNK         0.0787 
    105 H105       22.2125  -29.8185  -40.0304 H         1 UNK         0.3055 
    106 H106       20.0854  -30.3409  -40.1689 H         1 UNK         0.1106 
    107 H107       19.9661  -29.7852  -37.7237 H         1 UNK         0.0828 
    108 H108       18.7624  -30.9662  -38.2074 H         1 UNK         0.0828 
    109 H109       20.1937  -31.4913  -37.3384 H         1 UNK         0.0828 
    110 H110       22.2330  -32.3697  -40.8650 H         1 UNK         0.2931 
    111 H111       22.3781  -34.2296  -41.9666 H         1 UNK         0.0412 
    112 H112       21.6762  -37.4189  -40.2758 H         1 UNK         0.3472 
    113 H113       21.5670  -36.8194  -41.9089 H         1 UNK         0.3472 
    114 H114       20.3695  -35.4238  -42.9441 H         1 UNK         0.0970 
    115 H115       19.3137  -34.3964  -42.0307 H         1 UNK         0.0970 
    116 H116       19.2275  -31.5796  -42.5971 H         1 UNK         0.0612 
    117 H117       18.1163  -32.7378  -43.2931 H         1 UNK         0.0612 
@<TRIPOS>BOND
     1    1    2 1    
     2    1   62 1    
     3    1   63 1    
     4    1   64 1    
     5    2    3 2    
     6    2    4 am   BACKBONE|DICT|INTERRES
     7    4    5 1    
     8    4   65 1    
     9    5    6 1    
    10    5   25 1    
    11    5   66 1    
    12    6    7 1    
    13    6   67 1    
    14    6   68 1    
    15    7    8 1    
    16    8    9 1    
    17    8   69 1    
    18    8   70 1    
    19    9   10 ar   
    20    9   14 ar   
    21   10   11 ar   
    22   10   71 1    
    23   11   12 ar   
    24   11   61 1    
    25   12   13 ar   
    26   12   72 1    
    27   13   14 ar   
    28   13   15 1    
    29   14   73 1    
    30   15   16 1    
    31   15   74 1    
    32   15   75 1    
    33   16   17 1    
    34   17   18 1    
    35   17   76 1    
    36   17   77 1    
    37   18   19 1    
    38   18   27 1    
    39   18   78 1    
    40   19   20 am   BACKBONE|DICT|INTERRES
    41   19   79 1    
    42   20   21 2    
    43   20   22 1    
    44   22   23 1    
    45   22   24 1    
    46   22   80 1    
    47   23   81 1    
    48   23   82 1    
    49   23   83 1    
    50   24   25 am   BACKBONE|DICT|INTERRES
    51   24   84 1    
    52   25   26 2    
    53   27   28 2    
    54   27   29 am   BACKBONE|DICT|INTERRES
    55   29   30 1    
    56   29   85 1    
    57   30   31 1    
    58   30   32 1    
    59   30   86 1    
    60   31   87 1    
    61   31   88 1    
    62   31   89 1    
    63   32   33 2    
    64   32   34 am   BACKBONE|DICT|INTERRES
    65   34   35 1    
    66   34   90 1    
    67   35   36 1    
    68   35   37 1    
    69   35   91 1    
    70   36   92 1    
    71   36   93 1    
    72   36   94 1    
    73   37   38 2    
    74   37   39 am   BACKBONE|DICT|INTERRES
    75   39   40 1    
    76   39   95 1    
    77   40   41 1    
    78   40   42 1    
    79   40   96 1    
    80   41   97 1    
    81   41   98 1    
    82   41   99 1    
    83   42   43 2    
    84   42   44 am   BACKBONE|DICT|INTERRES
    85   44   45 1    
    86   44  100 1    
    87   45   46 1    
    88   45   47 1    
    89   45  101 1    
    90   46  102 1    
    91   46  103 1    
    92   46  104 1    
    93   47   48 2    
    94   47   49 am   BACKBONE|DICT|INTERRES
    95   49   50 1    
    96   49  105 1    
    97   50   51 1    
    98   50   52 1    
    99   50  106 1    
   100   51  107 1    
   101   51  108 1    
   102   51  109 1    
   103   52   53 2    
   104   52   54 am   BACKBONE|DICT|INTERRES
   105   54   55 1    
   106   54  110 1    
   107   55   56 1    
   108   55   59 1    
   109   55  111 1    
   110   56   57 am   BACKBONE|DICT|INTERRES
   111   56   58 2    
   112   57  112 1    
   113   57  113 1    
   114   59   60 1    
   115   59  114 1    
   116   59  115 1    
   117   60   61 1    
   118   61  116 1    
   119   61  117 1    
@<TRIPOS>SUBSTRUCTURE
     1 UNK         1 GROUP             0       ****    0 ROOT    
