@<TRIPOS>MOLECULE
3R8
117   119    1
SMALL
USER_CHARGES


@<TRIPOS>ATOM
      1 CA         18.7322  -26.7460  -41.8121 C.3       0 UNK        -0.2013 
      2 C          17.7543  -26.4108  -42.9262 C.2       0 UNK         0.4866 
      3 O          17.2170  -25.3037  -42.9503 O.2       0 UNK        -0.5176 
      4 N          17.5228  -27.3522  -43.8528 N.am      1 UNK        -0.4884 
      5 CA         16.6363  -27.1799  -45.0155 C.3       1 UNK         0.0853 
      6 C6         16.3714  -28.5098  -45.7624 C.3       10 UNK        -0.0849 
      7 S7         15.5985  -29.7718  -44.6978 S.3       10 UNK        -0.2776 
      8 C8         16.8775  -31.0695  -44.6708 C.3       10 UNK         0.0316 
      9 C9         18.0852  -30.6800  -43.8292 C.ar      10 UNK        -0.0863 
     10 C10        17.9594  -30.5766  -42.4416 C.ar      10 UNK        -0.1009 
     11 C11        19.0735  -30.2968  -41.6466 C.ar      10 UNK        -0.0712 
     12 C12        20.3181  -30.0898  -42.2509 C.ar      10 UNK        -0.0894 
     13 C13        20.4586  -30.1925  -43.6379 C.ar      10 UNK        -0.0745 
     14 C14        19.3371  -30.4841  -44.4224 C.ar      10 UNK        -0.0972 
     15 C15        21.8325  -30.0647  -44.2831 C.3       10 UNK         0.0209 
     16 S16        21.9901  -28.5725  -45.3117 S.3       10 UNK        -0.2568 
     17 C17        22.2643  -27.2857  -44.0498 C.3       10 UNK        -0.0983 
     18 CA         22.2445  -25.8529  -44.6441 C.3       3 UNK         0.0876 
     19 N          20.9643  -25.5455  -45.2768 N.am      3 UNK        -0.4424 
     20 C          20.7594  -25.3777  -46.5887 C.2       2 UNK         0.4918 
     21 O          21.6577  -25.3753  -47.4318 O.2       2 UNK        -0.4875 
     22 CA         19.2905  -25.2498  -47.0242 C.3       2 UNK         0.0481 
     23 CB         19.0821  -25.4852  -48.5342 C.3       2 UNK        -0.1831 
     24 N          18.4964  -26.1947  -46.2421 N.am      2 UNK        -0.4498 
     25 C          17.1841  -26.1248  -45.9969 C.2       1 UNK         0.5027 
     26 O          16.4312  -25.2784  -46.4808 O.2       1 UNK        -0.4969 
     27 C          22.4863  -24.8088  -43.5438 C.2       3 UNK         0.5005 
     28 O          21.5300  -24.3699  -42.8985 O.2       3 UNK        -0.5279 
     29 N          23.7579  -24.4434  -43.3348 N.am      4 UNK        -0.4463 
     30 CA         24.1876  -23.4738  -42.3200 C.3       4 UNK         0.0283 
     31 CB         25.5736  -22.9296  -42.7051 C.3       4 UNK        -0.1875 
     32 C          24.2178  -24.0467  -40.8901 C.2       4 UNK         0.4949 
     33 O          24.2935  -23.2726  -39.9354 O.2       4 UNK        -0.5039 
     34 N          24.1752  -25.3766  -40.7619 N.am      5 UNK        -0.4663 
     35 CA         24.1907  -26.1200  -39.5073 C.3       5 UNK         0.0242 
     36 CB         25.6483  -26.3344  -39.0556 C.3       5 UNK        -0.1982 
     37 C          23.4725  -27.4576  -39.7197 C.2       5 UNK         0.5017 
     38 O          23.1877  -27.8315  -40.8623 O.2       5 UNK        -0.5012 
     39 N          23.2264  -28.1790  -38.6196 N.am      6 UNK        -0.4439 
     40 CA         22.6068  -29.5075  -38.5866 C.3       6 UNK         0.0297 
     41 CB         22.0597  -29.7590  -37.1683 C.3       6 UNK        -0.2006 
     42 C          23.5693  -30.6199  -39.0580 C.2       6 UNK         0.4892 
     43 O          23.8701  -31.5438  -38.3003 O.2       6 UNK        -0.5089 
     44 N          24.0758  -30.4778  -40.2883 N.am      7 UNK        -0.4243 
     45 CA         25.1336  -31.3081  -40.8628 C.3       7 UNK         0.0196 
     46 CB         25.7691  -30.5577  -42.0450 C.3       7 UNK        -0.2007 
     47 C          24.6683  -32.7045  -41.3038 C.2       7 UNK         0.5020 
     48 O          25.4429  -33.6545  -41.1859 O.2       7 UNK        -0.5147 
     49 N          23.4409  -32.8099  -41.8287 N.am      8 UNK        -0.4734 
     50 CA         22.9082  -34.0312  -42.4372 C.3       8 UNK         0.0238 
     51 CB         23.5574  -34.2652  -43.8201 C.3       8 UNK        -0.1912 
     52 C          21.3777  -33.9556  -42.5114 C.2       8 UNK         0.5038 
     53 O          20.8153  -33.9660  -43.6077 O.2       8 UNK        -0.5046 
     54 N          20.7324  -33.8528  -41.3430 N.am      9 UNK        -0.4200 
     55 CA         19.2686  -33.7273  -41.2186 C.3       9 UNK         0.0839 
     56 C          18.4647  -35.0278  -41.5104 C.2       9 UNK         0.5513 
     57 N          19.0946  -36.1913  -41.6217 N.am      9 UNK        -0.7519 
     58 O          17.2441  -34.9785  -41.6384 O.2       9 UNK        -0.4960 
     59 C59        18.8274  -33.1007  -39.8659 C.3       10 UNK        -0.0876 
     60 S60        19.8083  -31.6515  -39.3460 S.3       10 UNK        -0.2414 
     61 C61        18.9379  -30.2583  -40.1326 C.3       10 UNK         0.0169 
     62 H62        19.4454  -27.5041  -42.1254 H         1 UNK         0.0903 
     63 H63        19.2989  -25.8604  -41.5242 H         1 UNK         0.0903 
     64 H64        18.1977  -27.1120  -40.9361 H         1 UNK         0.0903 
     65 H65        17.9434  -28.2677  -43.7538 H         1 UNK         0.3096 
     66 H66        15.6798  -26.8037  -44.6451 H         1 UNK         0.1121 
     67 H67        17.2949  -28.9041  -46.1909 H         1 UNK         0.0849 
     68 H68        15.6985  -28.3418  -46.6059 H         1 UNK         0.0849 
     69 H69        17.1713  -31.3157  -45.6924 H         1 UNK         0.0865 
     70 H70        16.4418  -31.9802  -44.2570 H         1 UNK         0.0865 
     71 H71        16.9964  -30.7485  -41.9798 H         1 UNK         0.1346 
     72 H72        21.1807  -29.8767  -41.6353 H         1 UNK         0.1412 
     73 H73        19.4504  -30.5856  -45.4933 H         1 UNK         0.1426 
     74 H74        22.0079  -30.9410  -44.9089 H         1 UNK         0.0716 
     75 H75        22.6219  -30.0677  -43.5303 H         1 UNK         0.0716 
     76 H76        23.2262  -27.4877  -43.5752 H         1 UNK         0.0695 
     77 H77        21.5086  -27.3935  -43.2704 H         1 UNK         0.0695 
     78 H78        23.0515  -25.7667  -45.3754 H         1 UNK         0.0983 
     79 H79        20.1956  -25.4097  -44.6354 H         1 UNK         0.3095 
     80 H80        18.9729  -24.2343  -46.7796 H         1 UNK         0.0454 
     81 H81        19.3955  -26.4870  -48.8299 H         1 UNK         0.0851 
     82 H82        19.6592  -24.7731  -49.1251 H         1 UNK         0.0851 
     83 H83        18.0371  -25.3635  -48.8185 H         1 UNK         0.0851 
     84 H84        19.0236  -26.9350  -45.7978 H         1 UNK         0.2976 
     85 H85        24.4872  -24.8536  -43.9019 H         1 UNK         0.3116 
     86 H86        23.4844  -22.6379  -42.3194 H         1 UNK         0.0646 
     87 H87        26.3278  -23.7174  -42.7217 H         1 UNK         0.0847 
     88 H88        25.9088  -22.1750  -41.9919 H         1 UNK         0.0847 
     89 H89        25.5573  -22.4568  -43.6872 H         1 UNK         0.0847 
     90 H90        24.0371  -25.9517  -41.5828 H         1 UNK         0.3040 
     91 H91        23.6434  -25.5591  -38.7461 H         1 UNK         0.1015 
     92 H92        26.2139  -26.9135  -39.7869 H         1 UNK         0.0786 
     93 H93        25.6977  -26.8688  -38.1063 H         1 UNK         0.0786 
     94 H94        26.1633  -25.3840  -38.9135 H         1 UNK         0.0786 
     95 H95        23.5295  -27.8112  -37.7290 H         1 UNK         0.3172 
     96 H96        21.7623  -29.5002  -39.2758 H         1 UNK         0.0595 
     97 H97        21.3109  -29.0157  -36.8942 H         1 UNK         0.0839 
     98 H98        22.8514  -29.7338  -36.4186 H         1 UNK         0.0839 
     99 H99        21.5806  -30.7362  -37.0982 H         1 UNK         0.0839 
    100 H100       23.7986  -29.6496  -40.8079 H         1 UNK         0.2998 
    101 H101       25.9035  -31.4473  -40.1004 H         1 UNK         0.0822 
    102 H102       26.5851  -31.1358  -42.4811 H         1 UNK         0.0787 
    103 H103       25.0465  -30.3641  -42.8387 H         1 UNK         0.0787 
    104 H104       26.1844  -29.6002  -41.7297 H         1 UNK         0.0787 
    105 H105       22.8434  -31.9957  -41.8551 H         1 UNK         0.3055 
    106 H106       23.1506  -34.8832  -41.7977 H         1 UNK         0.1106 
    107 H107       23.1497  -35.1568  -44.2985 H         1 UNK         0.0828 
    108 H108       23.3835  -33.4243  -44.4925 H         1 UNK         0.0828 
    109 H109       24.6344  -34.4121  -43.7407 H         1 UNK         0.0828 
    110 H110       21.2584  -33.8323  -40.4817 H         1 UNK         0.2931 
    111 H111       18.9591  -33.0373  -42.0022 H         1 UNK         0.0412 
    112 H112       20.0950  -36.2441  -41.5179 H         1 UNK         0.3472 
    113 H113       18.5618  -37.0254  -41.8131 H         1 UNK         0.3472 
    114 H114       18.9068  -33.8421  -39.0686 H         1 UNK         0.0970 
    115 H115       17.7740  -32.8169  -39.9048 H         1 UNK         0.0970 
    116 H116       19.3562  -29.3226  -39.7599 H         1 UNK         0.0612 
    117 H117       17.8900  -30.2688  -39.8289 H         1 UNK         0.0612 
@<TRIPOS>BOND
     1    1    2 1    
     2    1   62 1    
     3    1   63 1    
     4    1   64 1    
     5    2    3 2    
     6    2    4 am   BACKBONE|DICT|INTERRES
     7    4    5 1    
     8    4   65 1    
     9    5    6 1    
    10    5   25 1    
    11    5   66 1    
    12    6    7 1    
    13    6   67 1    
    14    6   68 1    
    15    7    8 1    
    16    8    9 1    
    17    8   69 1    
    18    8   70 1    
    19    9   10 ar   
    20    9   14 ar   
    21   10   11 ar   
    22   10   71 1    
    23   11   12 ar   
    24   11   61 1    
    25   12   13 ar   
    26   12   72 1    
    27   13   14 ar   
    28   13   15 1    
    29   14   73 1    
    30   15   16 1    
    31   15   74 1    
    32   15   75 1    
    33   16   17 1    
    34   17   18 1    
    35   17   76 1    
    36   17   77 1    
    37   18   19 1    
    38   18   27 1    
    39   18   78 1    
    40   19   20 am   BACKBONE|DICT|INTERRES
    41   19   79 1    
    42   20   21 2    
    43   20   22 1    
    44   22   23 1    
    45   22   24 1    
    46   22   80 1    
    47   23   81 1    
    48   23   82 1    
    49   23   83 1    
    50   24   25 am   BACKBONE|DICT|INTERRES
    51   24   84 1    
    52   25   26 2    
    53   27   28 2    
    54   27   29 am   BACKBONE|DICT|INTERRES
    55   29   30 1    
    56   29   85 1    
    57   30   31 1    
    58   30   32 1    
    59   30   86 1    
    60   31   87 1    
    61   31   88 1    
    62   31   89 1    
    63   32   33 2    
    64   32   34 am   BACKBONE|DICT|INTERRES
    65   34   35 1    
    66   34   90 1    
    67   35   36 1    
    68   35   37 1    
    69   35   91 1    
    70   36   92 1    
    71   36   93 1    
    72   36   94 1    
    73   37   38 2    
    74   37   39 am   BACKBONE|DICT|INTERRES
    75   39   40 1    
    76   39   95 1    
    77   40   41 1    
    78   40   42 1    
    79   40   96 1    
    80   41   97 1    
    81   41   98 1    
    82   41   99 1    
    83   42   43 2    
    84   42   44 am   BACKBONE|DICT|INTERRES
    85   44   45 1    
    86   44  100 1    
    87   45   46 1    
    88   45   47 1    
    89   45  101 1    
    90   46  102 1    
    91   46  103 1    
    92   46  104 1    
    93   47   48 2    
    94   47   49 am   BACKBONE|DICT|INTERRES
    95   49   50 1    
    96   49  105 1    
    97   50   51 1    
    98   50   52 1    
    99   50  106 1    
   100   51  107 1    
   101   51  108 1    
   102   51  109 1    
   103   52   53 2    
   104   52   54 am   BACKBONE|DICT|INTERRES
   105   54   55 1    
   106   54  110 1    
   107   55   56 1    
   108   55   59 1    
   109   55  111 1    
   110   56   57 am   BACKBONE|DICT|INTERRES
   111   56   58 2    
   112   57  112 1    
   113   57  113 1    
   114   59   60 1    
   115   59  114 1    
   116   59  115 1    
   117   60   61 1    
   118   61  116 1    
   119   61  117 1    
@<TRIPOS>SUBSTRUCTURE
     1 UNK         1 GROUP             0       ****    0 ROOT    
