@<TRIPOS>MOLECULE
3R8
117   119    1
SMALL
USER_CHARGES


@<TRIPOS>ATOM
      1 CA         17.8259  -27.1923  -41.6194 C.3       0 UNK        -0.2013 
      2 C          17.1486  -26.6954  -42.8865 C.2       0 UNK         0.4866 
      3 O          16.7398  -25.5357  -42.9451 O.2       0 UNK        -0.5176 
      4 N          17.0197  -27.5615  -43.9013 N.am      1 UNK        -0.4884 
      5 CA         16.3535  -27.2588  -45.1781 C.3       1 UNK         0.0853 
      6 C6         16.0386  -28.5342  -46.0017 C.3       10 UNK        -0.0849 
      7 S7         15.0542  -29.7724  -45.0895 S.3       10 UNK        -0.2776 
      8 C8         16.1869  -31.2002  -45.0496 C.3       10 UNK         0.0316 
      9 C9         17.2799  -31.0212  -44.0067 C.ar      10 UNK        -0.0863 
     10 C10        17.0485  -31.4076  -42.6836 C.ar      10 UNK        -0.1009 
     11 C11        18.0432  -31.2521  -41.7151 C.ar      10 UNK        -0.0712 
     12 C12        19.2707  -30.6893  -42.0767 C.ar      10 UNK        -0.0894 
     13 C13        19.5157  -30.2954  -43.3966 C.ar      10 UNK        -0.0745 
     14 C14        18.5197  -30.4792  -44.3602 C.ar      10 UNK        -0.0972 
     15 C15        20.8503  -29.6730  -43.7864 C.3       10 UNK         0.0209 
     16 S16        21.2396  -28.2232  -42.7571 S.3       10 UNK        -0.2568 
     17 C17        22.6612  -27.4995  -43.6494 C.3       10 UNK        -0.0983 
     18 CA         22.3656  -26.1056  -44.2661 C.3       3 UNK         0.0876 
     19 N          21.1465  -26.1226  -45.0791 N.am      3 UNK        -0.4424 
     20 C          20.7297  -25.1327  -45.8810 C.2       2 UNK         0.4918 
     21 O          21.3663  -24.0967  -46.0756 O.2       2 UNK        -0.4875 
     22 CA         19.3888  -25.3281  -46.6048 C.3       2 UNK         0.0481 
     23 CB         19.6241  -25.9008  -48.0164 C.3       2 UNK        -0.1831 
     24 N          18.4645  -26.1787  -45.8482 N.am      2 UNK        -0.4498 
     25 C          17.1435  -26.2631  -46.0565 C.2       1 UNK         0.5027 
     26 O          16.5435  -25.6127  -46.9140 O.2       1 UNK        -0.4969 
     27 C          22.3269  -24.9955  -43.1907 C.2       3 UNK         0.5005 
     28 O          21.2949  -24.8024  -42.5422 O.2       3 UNK        -0.5279 
     29 N          23.4539  -24.2911  -43.0225 N.am      4 UNK        -0.4463 
     30 CA         23.6140  -23.2132  -42.0411 C.3       4 UNK         0.0283 
     31 CB         24.5788  -22.1587  -42.6090 C.3       4 UNK        -0.1875 
     32 C          24.1239  -23.7151  -40.6791 C.2       4 UNK         0.4949 
     33 O          23.9271  -23.0276  -39.6767 O.2       4 UNK        -0.5039 
     34 N          24.7819  -24.8800  -40.6601 N.am      5 UNK        -0.4663 
     35 CA         25.4054  -25.4971  -39.4917 C.3       5 UNK         0.0242 
     36 CB         26.7186  -24.7627  -39.1484 C.3       5 UNK        -0.1982 
     37 C          25.6638  -26.9804  -39.7900 C.2       5 UNK         0.5017 
     38 O          25.4745  -27.4170  -40.9295 O.2       5 UNK        -0.5012 
     39 N          26.0950  -27.7231  -38.7603 N.am      6 UNK        -0.4439 
     40 CA         26.4910  -29.1423  -38.7382 C.3       6 UNK         0.0297 
     41 CB         27.6576  -29.4206  -39.7070 C.3       6 UNK        -0.2006 
     42 C          25.3455  -30.1513  -38.9502 C.2       6 UNK         0.4892 
     43 O          25.3147  -31.1617  -38.2464 O.2       6 UNK        -0.5089 
     44 N          24.4333  -29.8449  -39.8822 N.am      7 UNK        -0.4243 
     45 CA         23.2640  -30.6127  -40.3256 C.3       7 UNK         0.0196 
     46 CB         22.3276  -30.9502  -39.1468 C.3       7 UNK        -0.2007 
     47 C          23.6203  -31.8633  -41.1515 C.2       7 UNK         0.5020 
     48 O          24.7489  -32.3569  -41.1121 O.2       7 UNK        -0.5147 
     49 N          22.6288  -32.3475  -41.9056 N.am      8 UNK        -0.4734 
     50 CA         22.7111  -33.5025  -42.7997 C.3       8 UNK         0.0238 
     51 CB         23.5231  -33.1533  -44.0664 C.3       8 UNK        -0.1912 
     52 C          21.2800  -33.9602  -43.1149 C.2       8 UNK         0.5038 
     53 O          20.8715  -33.9585  -44.2771 O.2       8 UNK        -0.5046 
     54 N          20.5244  -34.2765  -42.0556 N.am      9 UNK        -0.4200 
     55 CA         19.0788  -34.5564  -42.1070 C.3       9 UNK         0.0839 
     56 C          18.6787  -35.8974  -42.7887 C.2       9 UNK         0.5513 
     57 N          19.6037  -36.8111  -43.0570 N.am      9 UNK        -0.7519 
     58 O          17.5042  -36.1120  -43.0770 O.2       9 UNK        -0.4960 
     59 C59        18.3999  -34.4272  -40.7132 C.3       10 UNK        -0.0876 
     60 S60        18.9372  -32.9820  -39.7309 S.3       10 UNK        -0.2414 
     61 C61        17.7878  -31.6793  -40.2766 C.3       10 UNK         0.0169 
     62 H62        17.9790  -28.2696  -41.6380 H         1 UNK         0.0903 
     63 H63        18.7963  -26.7105  -41.4996 H         1 UNK         0.0903 
     64 H64        17.2165  -26.9553  -40.7479 H         1 UNK         0.0903 
     65 H65        17.3283  -28.5187  -43.7847 H         1 UNK         0.3096 
     66 H66        15.4033  -26.7745  -44.9405 H         1 UNK         0.1121 
     67 H67        15.4669  -28.2691  -46.8937 H         1 UNK         0.0849 
     68 H68        16.9575  -28.9907  -46.3714 H         1 UNK         0.0849 
     69 H69        15.6097  -32.0978  -44.8223 H         1 UNK         0.0865 
     70 H70        16.6173  -31.3661  -46.0385 H         1 UNK         0.0865 
     71 H71        16.0918  -31.8315  -42.4098 H         1 UNK         0.1346 
     72 H72        20.0299  -30.5442  -41.3221 H         1 UNK         0.1412 
     73 H73        18.7078  -30.1946  -45.3863 H         1 UNK         0.1426 
     74 H74        20.8386  -29.3723  -44.8351 H         1 UNK         0.0716 
     75 H75        21.6432  -30.4138  -43.6869 H         1 UNK         0.0716 
     76 H76        22.9721  -28.1848  -44.4393 H         1 UNK         0.0695 
     77 H77        23.5096  -27.4497  -42.9641 H         1 UNK         0.0695 
     78 H78        23.1865  -25.8709  -44.9477 H         1 UNK         0.0983 
     79 H79        20.5898  -26.9544  -44.9802 H         1 UNK         0.3095 
     80 H80        18.9364  -24.3389  -46.7016 H         1 UNK         0.0454 
     81 H81        20.3395  -25.2922  -48.5714 H         1 UNK         0.0851 
     82 H82        18.7047  -25.9221  -48.6011 H         1 UNK         0.0851 
     83 H83        20.0200  -26.9161  -47.9779 H         1 UNK         0.0851 
     84 H84        18.8375  -26.6825  -45.0582 H         1 UNK         0.2976 
     85 H85        24.2556  -24.4972  -43.6022 H         1 UNK         0.3116 
     86 H86        22.6504  -22.7271  -41.8727 H         1 UNK         0.0646 
     87 H87        25.5715  -22.5721  -42.7912 H         1 UNK         0.0847 
     88 H88        24.2081  -21.7458  -43.5474 H         1 UNK         0.0847 
     89 H89        24.6969  -21.3249  -41.9153 H         1 UNK         0.0847 
     90 H90        24.8552  -25.4331  -41.5047 H         1 UNK         0.3040 
     91 H91        24.7142  -25.4358  -38.6480 H         1 UNK         0.1015 
     92 H92        27.2032  -25.1962  -38.2729 H         1 UNK         0.0786 
     93 H93        26.5424  -23.7109  -38.9223 H         1 UNK         0.0786 
     94 H94        27.4310  -24.8105  -39.9730 H         1 UNK         0.0786 
     95 H95        26.1728  -27.2598  -37.8648 H         1 UNK         0.3172 
     96 H96        26.8674  -29.3158  -37.7285 H         1 UNK         0.0595 
     97 H97        27.3651  -29.2900  -40.7493 H         1 UNK         0.0839 
     98 H98        28.0127  -30.4465  -39.6002 H         1 UNK         0.0839 
     99 H99        28.5038  -28.7625  -39.5102 H         1 UNK         0.0839 
    100 H100       24.6231  -28.9989  -40.4142 H         1 UNK         0.2998 
    101 H101       22.7263  -29.9396  -40.9920 H         1 UNK         0.0822 
    102 H102       22.0896  -30.0618  -38.5618 H         1 UNK         0.0787 
    103 H103       22.7649  -31.6888  -38.4747 H         1 UNK         0.0787 
    104 H104       21.3841  -31.3629  -39.4999 H         1 UNK         0.0787 
    105 H105       21.7210  -31.9054  -41.8644 H         1 UNK         0.3055 
    106 H106       23.2105  -34.3233  -42.2800 H         1 UNK         0.1106 
    107 H107       23.0800  -32.3200  -44.6127 H         1 UNK         0.0828 
    108 H108       24.5512  -32.8849  -43.8240 H         1 UNK         0.0828 
    109 H109       23.5677  -34.0039  -44.7477 H         1 UNK         0.0828 
    110 H110       20.9329  -34.2491  -41.1329 H         1 UNK         0.2931 
    111 H111       18.6479  -33.7814  -42.7420 H         1 UNK         0.0412 
    112 H112       19.3325  -37.6750  -43.5002 H         1 UNK         0.3472 
    113 H113       20.5699  -36.6424  -42.8275 H         1 UNK         0.3472 
    114 H114       17.3142  -34.3958  -40.8230 H         1 UNK         0.0970 
    115 H115       18.6115  -35.3141  -40.1130 H         1 UNK         0.0970 
    116 H116       17.9082  -30.8118  -39.6264 H         1 UNK         0.0612 
    117 H117       16.7618  -32.0252  -40.1422 H         1 UNK         0.0612 
@<TRIPOS>BOND
     1    1    2 1    
     2    1   62 1    
     3    1   63 1    
     4    1   64 1    
     5    2    3 2    
     6    2    4 am   BACKBONE|DICT|INTERRES
     7    4    5 1    
     8    4   65 1    
     9    5    6 1    
    10    5   25 1    
    11    5   66 1    
    12    6    7 1    
    13    6   67 1    
    14    6   68 1    
    15    7    8 1    
    16    8    9 1    
    17    8   69 1    
    18    8   70 1    
    19    9   10 ar   
    20    9   14 ar   
    21   10   11 ar   
    22   10   71 1    
    23   11   12 ar   
    24   11   61 1    
    25   12   13 ar   
    26   12   72 1    
    27   13   14 ar   
    28   13   15 1    
    29   14   73 1    
    30   15   16 1    
    31   15   74 1    
    32   15   75 1    
    33   16   17 1    
    34   17   18 1    
    35   17   76 1    
    36   17   77 1    
    37   18   19 1    
    38   18   27 1    
    39   18   78 1    
    40   19   20 am   BACKBONE|DICT|INTERRES
    41   19   79 1    
    42   20   21 2    
    43   20   22 1    
    44   22   23 1    
    45   22   24 1    
    46   22   80 1    
    47   23   81 1    
    48   23   82 1    
    49   23   83 1    
    50   24   25 am   BACKBONE|DICT|INTERRES
    51   24   84 1    
    52   25   26 2    
    53   27   28 2    
    54   27   29 am   BACKBONE|DICT|INTERRES
    55   29   30 1    
    56   29   85 1    
    57   30   31 1    
    58   30   32 1    
    59   30   86 1    
    60   31   87 1    
    61   31   88 1    
    62   31   89 1    
    63   32   33 2    
    64   32   34 am   BACKBONE|DICT|INTERRES
    65   34   35 1    
    66   34   90 1    
    67   35   36 1    
    68   35   37 1    
    69   35   91 1    
    70   36   92 1    
    71   36   93 1    
    72   36   94 1    
    73   37   38 2    
    74   37   39 am   BACKBONE|DICT|INTERRES
    75   39   40 1    
    76   39   95 1    
    77   40   41 1    
    78   40   42 1    
    79   40   96 1    
    80   41   97 1    
    81   41   98 1    
    82   41   99 1    
    83   42   43 2    
    84   42   44 am   BACKBONE|DICT|INTERRES
    85   44   45 1    
    86   44  100 1    
    87   45   46 1    
    88   45   47 1    
    89   45  101 1    
    90   46  102 1    
    91   46  103 1    
    92   46  104 1    
    93   47   48 2    
    94   47   49 am   BACKBONE|DICT|INTERRES
    95   49   50 1    
    96   49  105 1    
    97   50   51 1    
    98   50   52 1    
    99   50  106 1    
   100   51  107 1    
   101   51  108 1    
   102   51  109 1    
   103   52   53 2    
   104   52   54 am   BACKBONE|DICT|INTERRES
   105   54   55 1    
   106   54  110 1    
   107   55   56 1    
   108   55   59 1    
   109   55  111 1    
   110   56   57 am   BACKBONE|DICT|INTERRES
   111   56   58 2    
   112   57  112 1    
   113   57  113 1    
   114   59   60 1    
   115   59  114 1    
   116   59  115 1    
   117   60   61 1    
   118   61  116 1    
   119   61  117 1    
@<TRIPOS>SUBSTRUCTURE
     1 UNK         1 GROUP             0       ****    0 ROOT    
