@<TRIPOS>MOLECULE
3R8
117   119    1
SMALL
USER_CHARGES


@<TRIPOS>ATOM
      1 CA         15.0033  -24.9648  -48.0703 C.3       0 UNK        -0.2013 
      2 C          16.3028  -25.7427  -47.9255 C.2       0 UNK         0.4866 
      3 O          16.7389  -26.3903  -48.8775 O.2       0 UNK        -0.5176 
      4 N          16.9248  -25.6838  -46.7442 N.am      1 UNK        -0.4884 
      5 CA         18.1921  -26.3336  -46.4180 C.3       1 UNK         0.0853 
      6 C6         17.9843  -27.8103  -45.9917 C.3       10 UNK        -0.0849 
      7 S7         19.4558  -28.8602  -46.2530 S.3       10 UNK        -0.2776 
      8 C8         20.1994  -28.9753  -44.5930 C.3       10 UNK         0.0316 
      9 C9         19.2831  -29.6359  -43.5716 C.ar      10 UNK        -0.0863 
     10 C10        19.1635  -31.0273  -43.5078 C.ar      10 UNK        -0.1009 
     11 C11        18.3655  -31.6261  -42.5263 C.ar      10 UNK        -0.0712 
     12 C12        17.6874  -30.8212  -41.6045 C.ar      10 UNK        -0.0894 
     13 C13        17.7888  -29.4274  -41.6664 C.ar      10 UNK        -0.0745 
     14 C14        18.5758  -28.8468  -42.6630 C.ar      10 UNK        -0.0972 
     15 C15        17.0335  -28.5526  -40.6727 C.3       10 UNK         0.0209 
     16 S16        18.1503  -27.6430  -39.5499 S.3       10 UNK        -0.2568 
     17 C17        18.5252  -26.1305  -40.5040 C.3       10 UNK        -0.0983 
     18 CA         19.9874  -26.0982  -41.0238 C.3       3 UNK         0.0876 
     19 N          20.0736  -25.4106  -42.3173 N.am      3 UNK        -0.4424 
     20 C          21.1730  -25.2815  -43.0700 C.2       2 UNK         0.4918 
     21 O          22.2770  -25.7226  -42.7542 O.2       2 UNK        -0.4875 
     22 CA         20.9925  -24.5687  -44.4238 C.3       2 UNK         0.0481 
     23 CB         22.3407  -24.2348  -45.0899 C.3       2 UNK        -0.1831 
     24 N          20.1868  -25.3628  -45.3577 N.am      2 UNK        -0.4498 
     25 C          18.8538  -25.4882  -45.3168 C.2       1 UNK         0.5027 
     26 O          18.1455  -24.9627  -44.4516 O.2       1 UNK        -0.4969 
     27 C          20.9497  -25.5065  -39.9735 C.2       3 UNK         0.5005 
     28 O          21.2041  -24.2988  -39.9835 O.2       3 UNK        -0.5279 
     29 N          21.4780  -26.3760  -39.1011 N.am      4 UNK        -0.4463 
     30 CA         22.4784  -26.1353  -38.0494 C.3       4 UNK         0.0283 
     31 CB         22.0169  -25.0651  -37.0408 C.3       4 UNK        -0.1875 
     32 C          23.8905  -25.8325  -38.5843 C.2       4 UNK         0.4949 
     33 O          24.8613  -26.3354  -38.0183 O.2       4 UNK        -0.5039 
     34 N          23.9907  -25.0544  -39.6699 N.am      5 UNK        -0.4663 
     35 CA         25.2267  -24.8173  -40.4204 C.3       5 UNK         0.0242 
     36 CB         25.0158  -23.6472  -41.3948 C.3       5 UNK        -0.1982 
     37 C          25.6980  -26.0749  -41.1720 C.2       5 UNK         0.5017 
     38 O          26.9026  -26.3188  -41.2520 O.2       5 UNK        -0.5012 
     39 N          24.7401  -26.8547  -41.6828 N.am      6 UNK        -0.4439 
     40 CA         24.9246  -28.1450  -42.3317 C.3       6 UNK         0.0297 
     41 CB         25.0813  -27.9315  -43.8481 C.3       6 UNK        -0.2006 
     42 C          23.7087  -29.0285  -42.0220 C.2       6 UNK         0.4892 
     43 O          22.6636  -28.5224  -41.6045 O.2       6 UNK        -0.5089 
     44 N          23.8624  -30.3343  -42.2553 N.am      7 UNK        -0.4243 
     45 CA         22.8042  -31.3320  -42.1545 C.3       7 UNK         0.0196 
     46 CB         22.5042  -31.6753  -40.6827 C.3       7 UNK        -0.2007 
     47 C          23.2480  -32.5722  -42.9329 C.2       7 UNK         0.5020 
     48 O          24.3122  -33.1194  -42.6389 O.2       7 UNK        -0.5147 
     49 N          22.4344  -32.9950  -43.9076 N.am      8 UNK        -0.4734 
     50 CA         22.6150  -34.2578  -44.6348 C.3       8 UNK         0.0238 
     51 CB         21.9031  -34.1649  -45.9945 C.3       8 UNK        -0.1912 
     52 C          22.0890  -35.4626  -43.8331 C.2       8 UNK         0.5038 
     53 O          22.5834  -36.5768  -44.0075 O.2       8 UNK        -0.5046 
     54 N          21.0936  -35.2055  -42.9781 N.am      9 UNK        -0.4200 
     55 CA         20.5125  -36.1324  -42.0032 C.3       9 UNK         0.0839 
     56 C          21.4728  -36.4385  -40.8203 C.2       9 UNK         0.5513 
     57 N          21.3120  -37.5888  -40.1803 N.am      9 UNK        -0.7519 
     58 O          22.3359  -35.6411  -40.4589 O.2       9 UNK        -0.4960 
     59 C59        19.1246  -35.6259  -41.5171 C.3       10 UNK        -0.0876 
     60 S60        19.0991  -33.8551  -41.0493 S.3       10 UNK        -0.2414 
     61 C61        18.2173  -33.1396  -42.4727 C.3       10 UNK         0.0169 
     62 H62        15.0956  -24.2241  -48.8641 H         1 UNK         0.0903 
     63 H63        14.1883  -25.6407  -48.3278 H         1 UNK         0.0903 
     64 H64        14.7345  -24.4450  -47.1509 H         1 UNK         0.0903 
     65 H65        16.5591  -25.1097  -45.9930 H         1 UNK         0.3096 
     66 H66        18.8285  -26.2959  -47.3056 H         1 UNK         0.1121 
     67 H67        17.2001  -28.2571  -46.6049 H         1 UNK         0.0849 
     68 H68        17.6111  -27.8843  -44.9710 H         1 UNK         0.0849 
     69 H69        21.1266  -29.5454  -44.6662 H         1 UNK         0.0865 
     70 H70        20.4952  -27.9828  -44.2530 H         1 UNK         0.0865 
     71 H71        19.6853  -31.6398  -44.2285 H         1 UNK         0.1346 
     72 H72        17.0754  -31.2855  -40.8432 H         1 UNK         0.1412 
     73 H73        18.6423  -27.7728  -42.7340 H         1 UNK         0.1426 
     74 H74        16.3723  -29.1679  -40.0607 H         1 UNK         0.0716 
     75 H75        16.3826  -27.8603  -41.2081 H         1 UNK         0.0716 
     76 H76        18.3020  -25.2595  -39.8842 H         1 UNK         0.0695 
     77 H77        17.8211  -26.0668  -41.3348 H         1 UNK         0.0695 
     78 H78        20.3204  -27.1197  -41.2206 H         1 UNK         0.0983 
     79 H79        19.2119  -25.0278  -42.6889 H         1 UNK         0.3095 
     80 H80        20.4787  -23.6246  -44.2305 H         1 UNK         0.0454 
     81 H81        22.9093  -25.1343  -45.3297 H         1 UNK         0.0851 
     82 H82        22.9606  -23.6257  -44.4306 H         1 UNK         0.0851 
     83 H83        22.2002  -23.6700  -46.0114 H         1 UNK         0.0851 
     84 H84        20.6973  -25.8533  -46.0785 H         1 UNK         0.2976 
     85 H85        21.2163  -27.3472  -39.2120 H         1 UNK         0.3116 
     86 H86        22.5515  -27.0785  -37.5055 H         1 UNK         0.0646 
     87 H87        21.9660  -24.0721  -37.4880 H         1 UNK         0.0847 
     88 H88        22.7099  -25.0023  -36.2010 H         1 UNK         0.0847 
     89 H89        21.0341  -25.3010  -36.6330 H         1 UNK         0.0847 
     90 H90        23.1311  -24.6624  -40.0440 H         1 UNK         0.3040 
     91 H91        26.0104  -24.5404  -39.7118 H         1 UNK         0.1015 
     92 H92        24.2279  -23.8608  -42.1180 H         1 UNK         0.0786 
     93 H93        25.9272  -23.4390  -41.9569 H         1 UNK         0.0786 
     94 H94        24.7456  -22.7337  -40.8648 H         1 UNK         0.0786 
     95 H95        23.7669  -26.5692  -41.6054 H         1 UNK         0.3172 
     96 H96        25.8152  -28.6343  -41.9317 H         1 UNK         0.0595 
     97 H97        25.2259  -28.8782  -44.3698 H         1 UNK         0.0839 
     98 H98        25.9440  -27.3041  -44.0726 H         1 UNK         0.0839 
     99 H99        24.1997  -27.4519  -44.2762 H         1 UNK         0.0839 
    100 H100       24.7499  -30.6846  -42.5932 H         1 UNK         0.2998 
    101 H101       21.8981  -30.9275  -42.6088 H         1 UNK         0.0822 
    102 H102       21.7662  -32.4748  -40.6112 H         1 UNK         0.0787 
    103 H103       23.3990  -32.0113  -40.1576 H         1 UNK         0.0787 
    104 H104       22.1012  -30.8164  -40.1460 H         1 UNK         0.0787 
    105 H105       21.6112  -32.4563  -44.1291 H         1 UNK         0.3055 
    106 H106       23.6805  -34.4206  -44.8149 H         1 UNK         0.1106 
    107 H107       22.0401  -35.0825  -46.5684 H         1 UNK         0.0828 
    108 H108       20.8293  -34.0090  -45.8828 H         1 UNK         0.0828 
    109 H109       22.3011  -33.3473  -46.5958 H         1 UNK         0.0828 
    110 H110       20.8008  -34.2475  -42.8691 H         1 UNK         0.2931 
    111 H111       20.3489  -37.0769  -42.5264 H         1 UNK         0.0412 
    112 H112       21.9160  -37.8043  -39.4020 H         1 UNK         0.3472 
    113 H113       20.6054  -38.2507  -40.4630 H         1 UNK         0.3472 
    114 H114       18.7688  -36.2144  -40.6693 H         1 UNK         0.0970 
    115 H115       18.3876  -35.7949  -42.3036 H         1 UNK         0.0970 
    116 H116       17.1604  -33.4021  -42.4082 H         1 UNK         0.0612 
    117 H117       18.5899  -33.5869  -43.3956 H         1 UNK         0.0612 
@<TRIPOS>BOND
     1    1    2 1    
     2    1   62 1    
     3    1   63 1    
     4    1   64 1    
     5    2    3 2    
     6    2    4 am   BACKBONE|DICT|INTERRES
     7    4    5 1    
     8    4   65 1    
     9    5    6 1    
    10    5   25 1    
    11    5   66 1    
    12    6    7 1    
    13    6   67 1    
    14    6   68 1    
    15    7    8 1    
    16    8    9 1    
    17    8   69 1    
    18    8   70 1    
    19    9   10 ar   
    20    9   14 ar   
    21   10   11 ar   
    22   10   71 1    
    23   11   12 ar   
    24   11   61 1    
    25   12   13 ar   
    26   12   72 1    
    27   13   14 ar   
    28   13   15 1    
    29   14   73 1    
    30   15   16 1    
    31   15   74 1    
    32   15   75 1    
    33   16   17 1    
    34   17   18 1    
    35   17   76 1    
    36   17   77 1    
    37   18   19 1    
    38   18   27 1    
    39   18   78 1    
    40   19   20 am   BACKBONE|DICT|INTERRES
    41   19   79 1    
    42   20   21 2    
    43   20   22 1    
    44   22   23 1    
    45   22   24 1    
    46   22   80 1    
    47   23   81 1    
    48   23   82 1    
    49   23   83 1    
    50   24   25 am   BACKBONE|DICT|INTERRES
    51   24   84 1    
    52   25   26 2    
    53   27   28 2    
    54   27   29 am   BACKBONE|DICT|INTERRES
    55   29   30 1    
    56   29   85 1    
    57   30   31 1    
    58   30   32 1    
    59   30   86 1    
    60   31   87 1    
    61   31   88 1    
    62   31   89 1    
    63   32   33 2    
    64   32   34 am   BACKBONE|DICT|INTERRES
    65   34   35 1    
    66   34   90 1    
    67   35   36 1    
    68   35   37 1    
    69   35   91 1    
    70   36   92 1    
    71   36   93 1    
    72   36   94 1    
    73   37   38 2    
    74   37   39 am   BACKBONE|DICT|INTERRES
    75   39   40 1    
    76   39   95 1    
    77   40   41 1    
    78   40   42 1    
    79   40   96 1    
    80   41   97 1    
    81   41   98 1    
    82   41   99 1    
    83   42   43 2    
    84   42   44 am   BACKBONE|DICT|INTERRES
    85   44   45 1    
    86   44  100 1    
    87   45   46 1    
    88   45   47 1    
    89   45  101 1    
    90   46  102 1    
    91   46  103 1    
    92   46  104 1    
    93   47   48 2    
    94   47   49 am   BACKBONE|DICT|INTERRES
    95   49   50 1    
    96   49  105 1    
    97   50   51 1    
    98   50   52 1    
    99   50  106 1    
   100   51  107 1    
   101   51  108 1    
   102   51  109 1    
   103   52   53 2    
   104   52   54 am   BACKBONE|DICT|INTERRES
   105   54   55 1    
   106   54  110 1    
   107   55   56 1    
   108   55   59 1    
   109   55  111 1    
   110   56   57 am   BACKBONE|DICT|INTERRES
   111   56   58 2    
   112   57  112 1    
   113   57  113 1    
   114   59   60 1    
   115   59  114 1    
   116   59  115 1    
   117   60   61 1    
   118   61  116 1    
   119   61  117 1    
@<TRIPOS>SUBSTRUCTURE
     1 UNK         1 GROUP             0       ****    0 ROOT    
