@<TRIPOS>MOLECULE
3R8
117   119    1
SMALL
USER_CHARGES


@<TRIPOS>ATOM
      1 CA         13.5597  -23.1047  -46.0667 C.3       0 UNK        -0.2013 
      2 C          14.8110  -23.9546  -45.9094 C.2       0 UNK         0.4866 
      3 O          15.6498  -23.9859  -46.8103 O.2       0 UNK        -0.5176 
      4 N          14.9583  -24.6322  -44.7641 N.am      1 UNK        -0.4884 
      5 CA         16.0654  -25.5410  -44.4274 C.3       1 UNK         0.0853 
      6 C6         15.6334  -26.5787  -43.3577 C.3       10 UNK        -0.0849 
      7 S7         14.3591  -27.7121  -44.0101 S.3       10 UNK        -0.2776 
      8 C8         14.9187  -29.3331  -43.3741 C.3       10 UNK         0.0316 
      9 C9         16.3214  -29.7695  -43.8050 C.ar      10 UNK        -0.0863 
     10 C10        17.0374  -30.6375  -42.9750 C.ar      10 UNK        -0.1009 
     11 C11        18.3145  -31.0811  -43.3297 C.ar      10 UNK        -0.0712 
     12 C12        18.8939  -30.6307  -44.5199 C.ar      10 UNK        -0.0894 
     13 C13        18.1894  -29.7681  -45.3663 C.ar      10 UNK        -0.0745 
     14 C14        16.9006  -29.3553  -45.0113 C.ar      10 UNK        -0.0972 
     15 C15        18.7949  -29.3127  -46.6872 C.3       10 UNK         0.0209 
     16 S16        19.1141  -27.5203  -46.7194 S.3       10 UNK        -0.2568 
     17 C17        20.6595  -27.4044  -45.7580 C.3       10 UNK        -0.0983 
     18 CA         21.2109  -25.9554  -45.7376 C.3       3 UNK         0.0876 
     19 N          20.2571  -25.0356  -45.1138 N.am      3 UNK        -0.4424 
     20 C          20.1674  -23.7231  -45.3543 C.2       2 UNK         0.4918 
     21 O          20.9555  -23.1085  -46.0745 O.2       2 UNK        -0.4875 
     22 CA         18.9729  -22.9925  -44.7029 C.3       2 UNK         0.0481 
     23 CB         18.7411  -21.5919  -45.2987 C.3       2 UNK        -0.1831 
     24 N          17.7333  -23.7684  -44.8223 N.am      2 UNK        -0.4498 
     25 C          17.3569  -24.7842  -44.0349 C.2       1 UNK         0.5027 
     26 O          18.0205  -25.1469  -43.0618 O.2       1 UNK        -0.4969 
     27 C          22.5961  -25.9078  -45.0636 C.2       3 UNK         0.5005 
     28 O          23.5794  -26.2975  -45.6950 O.2       3 UNK        -0.5279 
     29 N          22.6469  -25.4593  -43.7965 N.am      4 UNK        -0.4463 
     30 CA         23.8236  -25.4102  -42.9132 C.3       4 UNK         0.0283 
     31 CB         24.8705  -24.4057  -43.4394 C.3       4 UNK        -0.1875 
     32 C          24.4299  -26.8002  -42.6234 C.2       4 UNK         0.4949 
     33 O          25.6178  -26.9082  -42.3142 O.2       4 UNK        -0.5039 
     34 N          23.5967  -27.8451  -42.7083 N.am      5 UNK        -0.4663 
     35 CA         23.9493  -29.2561  -42.5471 C.3       5 UNK         0.0242 
     36 CB         22.9268  -30.0966  -43.3364 C.3       5 UNK        -0.1982 
     37 C          24.0686  -29.6625  -41.0645 C.2       5 UNK         0.5017 
     38 O          23.4265  -30.6192  -40.6268 O.2       5 UNK        -0.5012 
     39 N          24.8964  -28.9213  -40.3147 N.am      6 UNK        -0.4439 
     40 CA         25.2230  -29.1594  -38.9070 C.3       6 UNK         0.0297 
     41 CB         26.1801  -28.0637  -38.4121 C.3       6 UNK        -0.2006 
     42 C          25.8379  -30.5537  -38.7101 C.2       6 UNK         0.4892 
     43 O          26.7642  -30.9128  -39.4404 O.2       6 UNK        -0.5089 
     44 N          25.2654  -31.3266  -37.7774 N.am      7 UNK        -0.4243 
     45 CA         25.5149  -32.7475  -37.4828 C.3       7 UNK         0.0196 
     46 CB         26.9800  -33.0023  -37.0769 C.3       7 UNK        -0.2007 
     47 C          25.0680  -33.7195  -38.5940 C.2       7 UNK         0.5020 
     48 O          24.5912  -34.8081  -38.2742 O.2       7 UNK        -0.5147 
     49 N          25.1902  -33.3193  -39.8663 N.am      8 UNK        -0.4734 
     50 CA         24.7874  -34.0823  -41.0522 C.3       8 UNK         0.0238 
     51 CB         25.2770  -33.3587  -42.3161 C.3       8 UNK        -0.1912 
     52 C          23.2785  -34.3824  -41.1287 C.2       8 UNK         0.5038 
     53 O          22.9103  -35.4194  -41.6827 O.2       8 UNK        -0.5046 
     54 N          22.4406  -33.5139  -40.5433 N.am      9 UNK        -0.4200 
     55 CA         21.0120  -33.7821  -40.2985 C.3       9 UNK         0.0839 
     56 C          20.7266  -34.9095  -39.2587 C.2       9 UNK         0.5513 
     57 N          21.6968  -35.3948  -38.4924 N.am      9 UNK        -0.7519 
     58 O          19.5891  -35.3599  -39.1490 O.2       9 UNK        -0.4960 
     59 C59        20.2217  -32.4983  -39.9245 C.3       10 UNK        -0.0876 
     60 S60        20.1380  -31.2521  -41.2515 S.3       10 UNK        -0.2414 
     61 C61        19.0411  -32.0794  -42.4411 C.3       10 UNK         0.0169 
     62 H62        12.9097  -23.1697  -45.1943 H         1 UNK         0.0903 
     63 H63        13.8317  -22.0593  -46.2105 H         1 UNK         0.0903 
     64 H64        12.9919  -23.4321  -46.9373 H         1 UNK         0.0903 
     65 H65        14.2425  -24.5523  -44.0554 H         1 UNK         0.3096 
     66 H66        16.3295  -26.0977  -45.3300 H         1 UNK         0.1121 
     67 H67        15.2481  -26.0816  -42.4657 H         1 UNK         0.0849 
     68 H68        16.4871  -27.1715  -43.0251 H         1 UNK         0.0849 
     69 H69        14.8590  -29.3035  -42.2848 H         1 UNK         0.0865 
     70 H70        14.2081  -30.0943  -43.6984 H         1 UNK         0.0865 
     71 H71        16.5937  -30.9835  -42.0511 H         1 UNK         0.1346 
     72 H72        19.8839  -30.9692  -44.7940 H         1 UNK         0.1412 
     73 H73        16.3555  -28.7047  -45.6808 H         1 UNK         0.1426 
     74 H74        18.1015  -29.5568  -47.4932 H         1 UNK         0.0716 
     75 H75        19.7175  -29.8523  -46.9063 H         1 UNK         0.0716 
     76 H76        21.3869  -28.0859  -46.2040 H         1 UNK         0.0695 
     77 H77        20.4722  -27.7676  -44.7454 H         1 UNK         0.0695 
     78 H78        21.3609  -25.6390  -46.7727 H         1 UNK         0.0983 
     79 H79        19.5661  -25.4483  -44.4997 H         1 UNK         0.3095 
     80 H80        19.2118  -22.8668  -43.6450 H         1 UNK         0.0454 
     81 H81        18.5214  -21.6395  -46.3660 H         1 UNK         0.0851 
     82 H82        19.6219  -20.9607  -45.1736 H         1 UNK         0.0851 
     83 H83        17.9106  -21.0845  -44.8078 H         1 UNK         0.0851 
     84 H84        17.1539  -23.5861  -45.6374 H         1 UNK         0.2976 
     85 H85        21.7767  -25.1564  -43.3806 H         1 UNK         0.3116 
     86 H86        23.4656  -25.0357  -41.9530 H         1 UNK         0.0646 
     87 H87        25.3354  -24.7506  -44.3634 H         1 UNK         0.0847 
     88 H88        25.6697  -24.2562  -42.7124 H         1 UNK         0.0847 
     89 H89        24.4239  -23.4304  -43.6320 H         1 UNK         0.0847 
     90 H90        22.6286  -27.6524  -42.9170 H         1 UNK         0.3040 
     91 H91        24.9313  -29.4279  -42.9938 H         1 UNK         0.1015 
     92 H92        21.9052  -29.8683  -43.0355 H         1 UNK         0.0786 
     93 H93        23.0768  -31.1663  -43.1909 H         1 UNK         0.0786 
     94 H94        23.0044  -29.9042  -44.4067 H         1 UNK         0.0786 
     95 H95        25.3894  -28.1679  -40.7840 H         1 UNK         0.3172 
     96 H96        24.2938  -29.0918  -38.3373 H         1 UNK         0.0595 
     97 H97        26.4249  -28.2059  -37.3586 H         1 UNK         0.0839 
     98 H98        25.7361  -27.0729  -38.5103 H         1 UNK         0.0839 
     99 H99        27.1189  -28.0675  -38.9680 H         1 UNK         0.0839 
    100 H100       24.4926  -30.9250  -37.2636 H         1 UNK         0.2998 
    101 H101       24.8952  -32.9748  -36.6137 H         1 UNK         0.0822 
    102 H102       27.1139  -34.0308  -36.7390 H         1 UNK         0.0787 
    103 H103       27.6698  -32.8454  -37.9066 H         1 UNK         0.0787 
    104 H104       27.2845  -32.3501  -36.2585 H         1 UNK         0.0787 
    105 H105       25.6229  -32.4145  -40.0233 H         1 UNK         0.3055 
    106 H106       25.2935  -35.0489  -41.0008 H         1 UNK         0.1106 
    107 H107       24.9599  -33.8832  -43.2186 H         1 UNK         0.0828 
    108 H108       24.8905  -32.3428  -42.3732 H         1 UNK         0.0828 
    109 H109       26.3653  -33.3016  -42.3411 H         1 UNK         0.0828 
    110 H110       22.8101  -32.6373  -40.1937 H         1 UNK         0.2931 
    111 H111       20.6004  -34.1553  -41.2376 H         1 UNK         0.0412 
    112 H112       22.6530  -35.0647  -38.5674 H         1 UNK         0.3472 
    113 H113       21.4768  -36.1252  -37.8340 H         1 UNK         0.3472 
    114 H114       19.1945  -32.7371  -39.6411 H         1 UNK         0.0970 
    115 H115       20.6676  -32.0287  -39.0460 H         1 UNK         0.0970 
    116 H116       19.6304  -32.7650  -43.0519 H         1 UNK         0.0612 
    117 H117       18.3134  -32.6931  -41.9078 H         1 UNK         0.0612 
@<TRIPOS>BOND
     1    1    2 1    
     2    1   62 1    
     3    1   63 1    
     4    1   64 1    
     5    2    3 2    
     6    2    4 am   BACKBONE|DICT|INTERRES
     7    4    5 1    
     8    4   65 1    
     9    5    6 1    
    10    5   25 1    
    11    5   66 1    
    12    6    7 1    
    13    6   67 1    
    14    6   68 1    
    15    7    8 1    
    16    8    9 1    
    17    8   69 1    
    18    8   70 1    
    19    9   10 ar   
    20    9   14 ar   
    21   10   11 ar   
    22   10   71 1    
    23   11   12 ar   
    24   11   61 1    
    25   12   13 ar   
    26   12   72 1    
    27   13   14 ar   
    28   13   15 1    
    29   14   73 1    
    30   15   16 1    
    31   15   74 1    
    32   15   75 1    
    33   16   17 1    
    34   17   18 1    
    35   17   76 1    
    36   17   77 1    
    37   18   19 1    
    38   18   27 1    
    39   18   78 1    
    40   19   20 am   BACKBONE|DICT|INTERRES
    41   19   79 1    
    42   20   21 2    
    43   20   22 1    
    44   22   23 1    
    45   22   24 1    
    46   22   80 1    
    47   23   81 1    
    48   23   82 1    
    49   23   83 1    
    50   24   25 am   BACKBONE|DICT|INTERRES
    51   24   84 1    
    52   25   26 2    
    53   27   28 2    
    54   27   29 am   BACKBONE|DICT|INTERRES
    55   29   30 1    
    56   29   85 1    
    57   30   31 1    
    58   30   32 1    
    59   30   86 1    
    60   31   87 1    
    61   31   88 1    
    62   31   89 1    
    63   32   33 2    
    64   32   34 am   BACKBONE|DICT|INTERRES
    65   34   35 1    
    66   34   90 1    
    67   35   36 1    
    68   35   37 1    
    69   35   91 1    
    70   36   92 1    
    71   36   93 1    
    72   36   94 1    
    73   37   38 2    
    74   37   39 am   BACKBONE|DICT|INTERRES
    75   39   40 1    
    76   39   95 1    
    77   40   41 1    
    78   40   42 1    
    79   40   96 1    
    80   41   97 1    
    81   41   98 1    
    82   41   99 1    
    83   42   43 2    
    84   42   44 am   BACKBONE|DICT|INTERRES
    85   44   45 1    
    86   44  100 1    
    87   45   46 1    
    88   45   47 1    
    89   45  101 1    
    90   46  102 1    
    91   46  103 1    
    92   46  104 1    
    93   47   48 2    
    94   47   49 am   BACKBONE|DICT|INTERRES
    95   49   50 1    
    96   49  105 1    
    97   50   51 1    
    98   50   52 1    
    99   50  106 1    
   100   51  107 1    
   101   51  108 1    
   102   51  109 1    
   103   52   53 2    
   104   52   54 am   BACKBONE|DICT|INTERRES
   105   54   55 1    
   106   54  110 1    
   107   55   56 1    
   108   55   59 1    
   109   55  111 1    
   110   56   57 am   BACKBONE|DICT|INTERRES
   111   56   58 2    
   112   57  112 1    
   113   57  113 1    
   114   59   60 1    
   115   59  114 1    
   116   59  115 1    
   117   60   61 1    
   118   61  116 1    
   119   61  117 1    
@<TRIPOS>SUBSTRUCTURE
     1 UNK         1 GROUP             0       ****    0 ROOT    
