@<TRIPOS>MOLECULE
3R8
117   119    1
SMALL
USER_CHARGES


@<TRIPOS>ATOM
      1 CA         14.1749  -25.2063  -44.2141 C.3       0 UNK        -0.2013 
      2 C          15.3861  -26.1259  -44.2401 C.2       0 UNK         0.4866 
      3 O          16.4631  -25.7092  -44.6681 O.2       0 UNK        -0.5176 
      4 N          15.2232  -27.3738  -43.7825 N.am      1 UNK        -0.4884 
      5 CA         16.2717  -28.3982  -43.7197 C.3       1 UNK         0.0853 
      6 C6         15.6766  -29.8290  -43.6806 C.3       10 UNK        -0.0849 
      7 S7         15.0309  -30.3001  -45.3194 S.3       10 UNK        -0.2776 
      8 C8         16.3712  -31.3685  -45.9489 C.3       10 UNK         0.0316 
      9 C9         17.7368  -30.6892  -45.9138 C.ar      10 UNK        -0.0863 
     10 C10        18.7260  -31.1426  -45.0338 C.ar      10 UNK        -0.1009 
     11 C11        19.9831  -30.5325  -45.0055 C.ar      10 UNK        -0.0712 
     12 C12        20.2492  -29.4668  -45.8661 C.ar      10 UNK        -0.0894 
     13 C13        19.2678  -28.9915  -46.7411 C.ar      10 UNK        -0.0745 
     14 C14        18.0148  -29.6140  -46.7650 C.ar      10 UNK        -0.0972 
     15 C15        19.5671  -27.8345  -47.6866 C.3       10 UNK         0.0209 
     16 S16        19.5637  -26.2178  -46.8416 S.3       10 UNK        -0.2568 
     17 C17        21.2869  -26.1039  -46.2431 C.3       10 UNK        -0.0983 
     18 CA         21.4213  -25.6520  -44.7640 C.3       3 UNK         0.0876 
     19 N          20.4772  -26.3155  -43.8541 N.am      3 UNK        -0.4424 
     20 C          20.2911  -25.9988  -42.5615 C.2       2 UNK         0.4918 
     21 O          20.9768  -25.1696  -41.9619 O.2       2 UNK        -0.4875 
     22 CA         19.1430  -26.6953  -41.8119 C.3       2 UNK         0.0481 
     23 CB         18.5488  -25.8223  -40.6889 C.3       2 UNK        -0.1831 
     24 N          18.0885  -27.1123  -42.7329 N.am      2 UNK        -0.4498 
     25 C          17.2398  -28.1292  -42.5528 C.2       1 UNK         0.5027 
     26 O          17.1945  -28.8241  -41.5349 O.2       1 UNK        -0.4969 
     27 C          22.8726  -25.8172  -44.2681 C.2       3 UNK         0.5005 
     28 O          23.4231  -26.9178  -44.3549 O.2       3 UNK        -0.5279 
     29 N          23.4272  -24.7429  -43.6827 N.am      4 UNK        -0.4463 
     30 CA         24.7408  -24.6569  -43.0238 C.3       4 UNK         0.0283 
     31 CB         25.8703  -24.7890  -44.0675 C.3       4 UNK        -0.1875 
     32 C          24.9353  -25.6387  -41.8451 C.2       4 UNK         0.4949 
     33 O          26.0724  -25.8438  -41.4187 O.2       4 UNK        -0.5039 
     34 N          23.8369  -26.2420  -41.3594 N.am      5 UNK        -0.4663 
     35 CA         23.7751  -27.3660  -40.4157 C.3       5 UNK         0.0242 
     36 CB         24.1041  -26.8867  -38.9869 C.3       5 UNK        -0.1982 
     37 C          24.6287  -28.5769  -40.8562 C.2       5 UNK         0.5017 
     38 O          25.2588  -29.2155  -40.0100 O.2       5 UNK        -0.5012 
     39 N          24.6552  -28.8532  -42.1705 N.am      6 UNK        -0.4439 
     40 CA         25.4285  -29.9183  -42.8170 C.3       6 UNK         0.0297 
     41 CB         25.2608  -29.7971  -44.3415 C.3       6 UNK        -0.2006 
     42 C          25.0336  -31.3189  -42.3124 C.2       6 UNK         0.4892 
     43 O          24.0441  -31.8816  -42.7805 O.2       6 UNK        -0.5089 
     44 N          25.8050  -31.8320  -41.3424 N.am      7 UNK        -0.4243 
     45 CA         25.5346  -33.0367  -40.5460 C.3       7 UNK         0.0196 
     46 CB         25.5548  -34.3106  -41.4189 C.3       7 UNK        -0.2007 
     47 C          24.2519  -32.8945  -39.7003 C.2       7 UNK         0.5020 
     48 O          23.4623  -33.8349  -39.6072 O.2       7 UNK        -0.5147 
     49 N          24.0605  -31.7001  -39.1196 N.am      8 UNK        -0.4734 
     50 CA         22.9624  -31.2435  -38.2529 C.3       8 UNK         0.0238 
     51 CB         22.8213  -32.1292  -36.9991 C.3       8 UNK        -0.1912 
     52 C          21.6038  -31.0530  -38.9527 C.2       8 UNK         0.5038 
     53 O          20.8419  -30.1862  -38.5230 O.2       8 UNK        -0.5046 
     54 N          21.3299  -31.8302  -40.0066 N.am      9 UNK        -0.4200 
     55 CA         20.0890  -31.8294  -40.7956 C.3       9 UNK         0.0839 
     56 C          18.8579  -32.2806  -39.9518 C.2       9 UNK         0.5513 
     57 N          17.7061  -31.6258  -40.0551 N.am      9 UNK        -0.7519 
     58 O          18.9301  -33.2721  -39.2289 O.2       9 UNK        -0.4960 
     59 C59        19.8603  -30.5122  -41.5896 C.3       10 UNK        -0.0876 
     60 S60        21.2700  -29.9729  -42.6079 S.3       10 UNK        -0.2414 
     61 C61        21.0757  -31.0345  -44.0737 C.3       10 UNK         0.0169 
     62 H62        14.3796  -24.3347  -43.5930 H         1 UNK         0.0903 
     63 H63        13.9458  -24.8606  -45.2217 H         1 UNK         0.0903 
     64 H64        13.2910  -25.7058  -43.8178 H         1 UNK         0.0903 
     65 H65        14.3189  -27.6575  -43.4325 H         1 UNK         0.3096 
     66 H66        16.8748  -28.3152  -44.6258 H         1 UNK         0.1121 
     67 H67        16.4212  -30.5664  -43.3752 H         1 UNK         0.0849 
     68 H68        14.8747  -29.8977  -42.9436 H         1 UNK         0.0849 
     69 H69        16.3852  -32.2944  -45.3715 H         1 UNK         0.0865 
     70 H70        16.1407  -31.6568  -46.9755 H         1 UNK         0.0865 
     71 H71        18.5218  -31.9758  -44.3753 H         1 UNK         0.1346 
     72 H72        21.2317  -29.0208  -45.8468 H         1 UNK         0.1412 
     73 H73        17.2497  -29.2612  -47.4436 H         1 UNK         0.1426 
     74 H74        18.8211  -27.8020  -48.4821 H         1 UNK         0.0716 
     75 H75        20.5239  -27.9965  -48.1852 H         1 UNK         0.0716 
     76 H76        21.8064  -25.3911  -46.8860 H         1 UNK         0.0695 
     77 H77        21.7941  -27.0517  -46.4134 H         1 UNK         0.0695 
     78 H78        21.1711  -24.5891  -44.7375 H         1 UNK         0.0983 
     79 H79        19.9140  -27.0439  -44.2675 H         1 UNK         0.3095 
     80 H80        19.5858  -27.5769  -41.3532 H         1 UNK         0.0454 
     81 H81        18.1125  -24.9048  -41.0848 H         1 UNK         0.0851 
     82 H82        19.3119  -25.5374  -39.9636 H         1 UNK         0.0851 
     83 H83        17.7715  -26.3537  -40.1397 H         1 UNK         0.0851 
     84 H84        17.9528  -26.5337  -43.5581 H         1 UNK         0.2976 
     85 H85        22.8586  -23.9101  -43.6024 H         1 UNK         0.3116 
     86 H86        24.8004  -23.6560  -42.5939 H         1 UNK         0.0646 
     87 H87        25.9138  -25.7936  -44.4899 H         1 UNK         0.0847 
     88 H88        26.8443  -24.5828  -43.6223 H         1 UNK         0.0847 
     89 H89        25.7378  -24.0850  -44.8888 H         1 UNK         0.0847 
     90 H90        22.9469  -25.9526  -41.7502 H         1 UNK         0.3040 
     91 H91        22.7408  -27.7149  -40.4181 H         1 UNK         0.1015 
     92 H92        25.1426  -26.5660  -38.8987 H         1 UNK         0.0786 
     93 H93        23.9457  -27.6835  -38.2592 H         1 UNK         0.0786 
     94 H94        23.4685  -26.0514  -38.6932 H         1 UNK         0.0786 
     95 H95        24.1094  -28.2651  -42.7921 H         1 UNK         0.3172 
     96 H96        26.4821  -29.7509  -42.5845 H         1 UNK         0.0595 
     97 H97        25.8048  -30.5871  -44.8604 H         1 UNK         0.0839 
     98 H98        25.6421  -28.8435  -44.7075 H         1 UNK         0.0839 
     99 H99        24.2137  -29.8701  -44.6382 H         1 UNK         0.0839 
    100 H100       26.5751  -31.2633  -41.0158 H         1 UNK         0.2998 
    101 H101       26.3553  -33.1197  -39.8318 H         1 UNK         0.0822 
    102 H102       25.4950  -35.2065  -40.7998 H         1 UNK         0.0787 
    103 H103       24.7152  -34.3431  -42.1138 H         1 UNK         0.0787 
    104 H104       26.4744  -34.3793  -41.9998 H         1 UNK         0.0787 
    105 H105       24.7263  -30.9667  -39.3534 H         1 UNK         0.3055 
    106 H106       23.2630  -30.2502  -37.9145 H         1 UNK         0.1106 
    107 H107       22.0916  -31.7068  -36.3070 H         1 UNK         0.0828 
    108 H108       22.4836  -33.1362  -37.2453 H         1 UNK         0.0828 
    109 H109       23.7662  -32.2121  -36.4622 H         1 UNK         0.0828 
    110 H110       22.0019  -32.5535  -40.2341 H         1 UNK         0.2931 
    111 H111       20.2236  -32.6234  -41.5301 H         1 UNK         0.0412 
    112 H112       17.6211  -30.7827  -40.6084 H         1 UNK         0.3472 
    113 H113       16.9172  -31.9460  -39.5159 H         1 UNK         0.3472 
    114 H114       19.6304  -29.7114  -40.8886 H         1 UNK         0.0970 
    115 H115       18.9941  -30.6105  -42.2429 H         1 UNK         0.0970 
    116 H116       20.8846  -32.0627  -43.7648 H         1 UNK         0.0612 
    117 H117       22.0242  -31.0563  -44.6117 H         1 UNK         0.0612 
@<TRIPOS>BOND
     1    1    2 1    
     2    1   62 1    
     3    1   63 1    
     4    1   64 1    
     5    2    3 2    
     6    2    4 am   BACKBONE|DICT|INTERRES
     7    4    5 1    
     8    4   65 1    
     9    5    6 1    
    10    5   25 1    
    11    5   66 1    
    12    6    7 1    
    13    6   67 1    
    14    6   68 1    
    15    7    8 1    
    16    8    9 1    
    17    8   69 1    
    18    8   70 1    
    19    9   10 ar   
    20    9   14 ar   
    21   10   11 ar   
    22   10   71 1    
    23   11   12 ar   
    24   11   61 1    
    25   12   13 ar   
    26   12   72 1    
    27   13   14 ar   
    28   13   15 1    
    29   14   73 1    
    30   15   16 1    
    31   15   74 1    
    32   15   75 1    
    33   16   17 1    
    34   17   18 1    
    35   17   76 1    
    36   17   77 1    
    37   18   19 1    
    38   18   27 1    
    39   18   78 1    
    40   19   20 am   BACKBONE|DICT|INTERRES
    41   19   79 1    
    42   20   21 2    
    43   20   22 1    
    44   22   23 1    
    45   22   24 1    
    46   22   80 1    
    47   23   81 1    
    48   23   82 1    
    49   23   83 1    
    50   24   25 am   BACKBONE|DICT|INTERRES
    51   24   84 1    
    52   25   26 2    
    53   27   28 2    
    54   27   29 am   BACKBONE|DICT|INTERRES
    55   29   30 1    
    56   29   85 1    
    57   30   31 1    
    58   30   32 1    
    59   30   86 1    
    60   31   87 1    
    61   31   88 1    
    62   31   89 1    
    63   32   33 2    
    64   32   34 am   BACKBONE|DICT|INTERRES
    65   34   35 1    
    66   34   90 1    
    67   35   36 1    
    68   35   37 1    
    69   35   91 1    
    70   36   92 1    
    71   36   93 1    
    72   36   94 1    
    73   37   38 2    
    74   37   39 am   BACKBONE|DICT|INTERRES
    75   39   40 1    
    76   39   95 1    
    77   40   41 1    
    78   40   42 1    
    79   40   96 1    
    80   41   97 1    
    81   41   98 1    
    82   41   99 1    
    83   42   43 2    
    84   42   44 am   BACKBONE|DICT|INTERRES
    85   44   45 1    
    86   44  100 1    
    87   45   46 1    
    88   45   47 1    
    89   45  101 1    
    90   46  102 1    
    91   46  103 1    
    92   46  104 1    
    93   47   48 2    
    94   47   49 am   BACKBONE|DICT|INTERRES
    95   49   50 1    
    96   49  105 1    
    97   50   51 1    
    98   50   52 1    
    99   50  106 1    
   100   51  107 1    
   101   51  108 1    
   102   51  109 1    
   103   52   53 2    
   104   52   54 am   BACKBONE|DICT|INTERRES
   105   54   55 1    
   106   54  110 1    
   107   55   56 1    
   108   55   59 1    
   109   55  111 1    
   110   56   57 am   BACKBONE|DICT|INTERRES
   111   56   58 2    
   112   57  112 1    
   113   57  113 1    
   114   59   60 1    
   115   59  114 1    
   116   59  115 1    
   117   60   61 1    
   118   61  116 1    
   119   61  117 1    
@<TRIPOS>SUBSTRUCTURE
     1 UNK         1 GROUP             0       ****    0 ROOT    
