@<TRIPOS>MOLECULE
3R8
117   119    1
SMALL
USER_CHARGES


@<TRIPOS>ATOM
      1 CA         21.6532  -26.8170  -48.6850 C.3       0 UNK        -0.2013 
      2 C          20.7506  -27.0995  -47.4943 C.2       0 UNK         0.4866 
      3 O          21.1761  -27.7539  -46.5429 O.2       0 UNK        -0.5176 
      4 N          19.5107  -26.5956  -47.5231 N.am      1 UNK        -0.4884 
      5 CA         18.4757  -26.7996  -46.4977 C.3       1 UNK         0.0853 
      6 C6         17.0472  -26.6732  -47.0942 C.3       10 UNK        -0.0849 
      7 S7         16.7384  -27.9043  -48.4093 S.3       10 UNK        -0.2776 
      8 C8         15.7524  -29.1652  -47.5325 C.3       10 UNK         0.0316 
      9 C9         16.4691  -29.7000  -46.2997 C.ar      10 UNK        -0.0863 
     10 C10        17.6214  -30.4785  -46.4348 C.ar      10 UNK        -0.1009 
     11 C11        18.3153  -30.9396  -45.3112 C.ar      10 UNK        -0.0712 
     12 C12        17.8285  -30.6143  -44.0355 C.ar      10 UNK        -0.0894 
     13 C13        16.6774  -29.8339  -43.8852 C.ar      10 UNK        -0.0745 
     14 C14        15.9956  -29.3925  -45.0224 C.ar      10 UNK        -0.0972 
     15 C15        16.1671  -29.4644  -42.4971 C.3       10 UNK         0.0209 
     16 S16        16.1109  -27.6558  -42.2701 S.3       10 UNK        -0.2568 
     17 C17        17.0176  -27.4194  -40.7046 C.3       10 UNK        -0.0983 
     18 CA         18.5513  -27.3300  -40.9001 C.3       3 UNK         0.0876 
     19 N          18.9337  -26.3537  -41.9210 N.am      3 UNK        -0.4424 
     20 C          20.1761  -26.1611  -42.3762 C.2       2 UNK         0.4918 
     21 O          21.1620  -26.7873  -41.9776 O.2       2 UNK        -0.4875 
     22 CA         20.3070  -25.1519  -43.5254 C.3       2 UNK         0.0481 
     23 CB         21.7276  -24.5771  -43.6650 C.3       2 UNK        -0.1831 
     24 N          19.9282  -25.8256  -44.7646 N.am      2 UNK        -0.4498 
     25 C          18.6856  -25.8959  -45.2592 C.2       1 UNK         0.5027 
     26 O          17.7345  -25.2829  -44.7701 O.2       1 UNK        -0.4969 
     27 C          19.2608  -27.0337  -39.5635 C.2       3 UNK         0.5005 
     28 O          19.2229  -25.8933  -39.0950 O.2       3 UNK        -0.5279 
     29 N          19.9042  -28.0643  -39.0006 N.am      4 UNK        -0.4463 
     30 CA         20.7507  -28.0538  -37.8020 C.3       4 UNK         0.0283 
     31 CB         19.9757  -27.5693  -36.5574 C.3       4 UNK        -0.1875 
     32 C          22.0959  -27.3203  -37.9916 C.2       4 UNK         0.4949 
     33 O          22.7428  -26.9985  -36.9940 O.2       4 UNK        -0.5039 
     34 N          22.5161  -27.0961  -39.2459 N.am      5 UNK        -0.4663 
     35 CA         23.7890  -26.4543  -39.5901 C.3       5 UNK         0.0242 
     36 CB         23.5417  -24.9847  -39.9671 C.3       5 UNK        -0.1982 
     37 C          24.5426  -27.1905  -40.7079 C.2       5 UNK         0.5017 
     38 O          25.7705  -27.2682  -40.6414 O.2       5 UNK        -0.5012 
     39 N          23.8237  -27.7185  -41.7097 N.am      6 UNK        -0.4439 
     40 CA         24.3653  -28.4203  -42.8809 C.3       6 UNK         0.0297 
     41 CB         23.2892  -28.4498  -43.9833 C.3       6 UNK        -0.2006 
     42 C          24.9223  -29.8269  -42.5697 C.2       6 UNK         0.4892 
     43 O          24.4409  -30.8154  -43.1269 O.2       6 UNK        -0.5089 
     44 N          25.9348  -29.8945  -41.6938 N.am      7 UNK        -0.4243 
     45 CA         26.6566  -31.0950  -41.2536 C.3       7 UNK         0.0196 
     46 CB         27.5503  -31.6353  -42.3938 C.3       7 UNK        -0.2007 
     47 C          25.6954  -32.1407  -40.6590 C.2       7 UNK         0.5020 
     48 O          25.1340  -31.8943  -39.5915 O.2       7 UNK        -0.5147 
     49 N          25.4797  -33.2584  -41.3670 N.am      8 UNK        -0.4734 
     50 CA         24.5175  -34.3090  -41.0124 C.3       8 UNK         0.0238 
     51 CB         24.6908  -35.4985  -41.9706 C.3       8 UNK        -0.1912 
     52 C          23.0509  -33.8343  -41.0023 C.2       8 UNK         0.5038 
     53 O          22.2448  -34.4036  -40.2654 O.2       8 UNK        -0.5046 
     54 N          22.7422  -32.7975  -41.7918 N.am      9 UNK        -0.4200 
     55 CA         21.4667  -32.0695  -41.7683 C.3       9 UNK         0.0839 
     56 C          21.4136  -30.9501  -40.6906 C.2       9 UNK         0.5513 
     57 N          22.4623  -30.6933  -39.9170 N.am      9 UNK        -0.7519 
     58 O          20.3783  -30.3090  -40.5375 O.2       9 UNK        -0.4960 
     59 C59        21.1024  -31.5331  -43.1807 C.3       10 UNK        -0.0876 
     60 S60        20.1766  -32.7684  -44.1481 S.3       10 UNK        -0.2414 
     61 C61        19.5948  -31.7490  -45.5460 C.3       10 UNK         0.0169 
     62 H62        22.5401  -26.2725  -48.3620 H         1 UNK         0.0903 
     63 H63        21.9749  -27.7532  -49.1402 H         1 UNK         0.0903 
     64 H64        21.1489  -26.2242  -49.4479 H         1 UNK         0.0903 
     65 H65        19.2197  -26.0510  -48.3228 H         1 UNK         0.3096 
     66 H66        18.5788  -27.8187  -46.1196 H         1 UNK         0.1121 
     67 H67        16.8965  -25.6762  -47.5119 H         1 UNK         0.0849 
     68 H68        16.2865  -26.7898  -46.3200 H         1 UNK         0.0849 
     69 H69        14.7840  -28.7387  -47.2658 H         1 UNK         0.0865 
     70 H70        15.5436  -29.9908  -48.2144 H         1 UNK         0.0865 
     71 H71        17.9924  -30.7056  -47.4254 H         1 UNK         0.1346 
     72 H72        18.3358  -30.9607  -43.1481 H         1 UNK         0.1412 
     73 H73        15.1073  -28.7859  -44.9074 H         1 UNK         0.1426 
     74 H74        16.7903  -29.9200  -41.7262 H         1 UNK         0.0716 
     75 H75        15.1640  -29.8710  -42.3622 H         1 UNK         0.0716 
     76 H76        16.7613  -28.2272  -40.0166 H         1 UNK         0.0695 
     77 H77        16.6403  -26.5026  -40.2470 H         1 UNK         0.0695 
     78 H78        18.8918  -28.2998  -41.2676 H         1 UNK         0.0983 
     79 H79        18.1760  -25.8323  -42.3399 H         1 UNK         0.3095 
     80 H80        19.6322  -24.3152  -43.3324 H         1 UNK         0.0454 
     81 H81        22.4830  -25.3524  -43.7804 H         1 UNK         0.0851 
     82 H82        21.9934  -23.9915  -42.7853 H         1 UNK         0.0851 
     83 H83        21.8007  -23.9115  -44.5249 H         1 UNK         0.0851 
     84 H84        20.6321  -26.4104  -45.2063 H         1 UNK         0.2976 
     85 H85        19.9139  -28.9470  -39.5149 H         1 UNK         0.3116 
     86 H86        21.0106  -29.0983  -37.6252 H         1 UNK         0.0646 
     87 H87        19.7657  -26.5004  -36.5983 H         1 UNK         0.0847 
     88 H88        20.5487  -27.7483  -35.6468 H         1 UNK         0.0847 
     89 H89        19.0274  -28.0954  -36.4488 H         1 UNK         0.0847 
     90 H90        21.9102  -27.3504  -40.0164 H         1 UNK         0.3040 
     91 H91        24.4551  -26.4685  -38.7242 H         1 UNK         0.1015 
     92 H92        22.8448  -24.8973  -40.7993 H         1 UNK         0.0786 
     93 H93        24.4695  -24.4911  -40.2598 H         1 UNK         0.0786 
     94 H94        23.1280  -24.4273  -39.1267 H         1 UNK         0.0786 
     95 H95        22.8226  -27.5401  -41.7304 H         1 UNK         0.3172 
     96 H96        25.2044  -27.8371  -43.2657 H         1 UNK         0.0595 
     97 H97        23.6155  -29.0280  -44.8490 H         1 UNK         0.0839 
     98 H98        23.0652  -27.4495  -44.3474 H         1 UNK         0.0839 
     99 H99        22.3568  -28.8873  -43.6281 H         1 UNK         0.0839 
    100 H100       26.1991  -29.0219  -41.2431 H         1 UNK         0.2998 
    101 H101       27.3114  -30.7843  -40.4380 H         1 UNK         0.0822 
    102 H102       28.1132  -32.5127  -42.0722 H         1 UNK         0.0787 
    103 H103       26.9761  -31.9118  -43.2788 H         1 UNK         0.0787 
    104 H104       28.2800  -30.8862  -42.7015 H         1 UNK         0.0787 
    105 H105       25.9618  -33.3605  -42.2487 H         1 UNK         0.3055 
    106 H106       24.7520  -34.6450  -39.9997 H         1 UNK         0.1106 
    107 H107       24.0066  -36.3088  -41.7141 H         1 UNK         0.0828 
    108 H108       24.4883  -35.2170  -43.0047 H         1 UNK         0.0828 
    109 H109       25.7015  -35.9043  -41.9228 H         1 UNK         0.0828 
    110 H110       23.4811  -32.3567  -42.3315 H         1 UNK         0.2931 
    111 H111       20.6828  -32.7650  -41.4620 H         1 UNK         0.0412 
    112 H112       23.3160  -31.2359  -39.9864 H         1 UNK         0.3472 
    113 H113       22.3954  -29.9808  -39.2128 H         1 UNK         0.3472 
    114 H114       21.9965  -31.2619  -43.7415 H         1 UNK         0.0970 
    115 H115       20.5126  -30.6172  -43.1320 H         1 UNK         0.0970 
    116 H116       20.3919  -31.0687  -45.8502 H         1 UNK         0.0612 
    117 H117       19.4326  -32.4243  -46.3875 H         1 UNK         0.0612 
@<TRIPOS>BOND
     1    1    2 1    
     2    1   62 1    
     3    1   63 1    
     4    1   64 1    
     5    2    3 2    
     6    2    4 am   BACKBONE|DICT|INTERRES
     7    4    5 1    
     8    4   65 1    
     9    5    6 1    
    10    5   25 1    
    11    5   66 1    
    12    6    7 1    
    13    6   67 1    
    14    6   68 1    
    15    7    8 1    
    16    8    9 1    
    17    8   69 1    
    18    8   70 1    
    19    9   10 ar   
    20    9   14 ar   
    21   10   11 ar   
    22   10   71 1    
    23   11   12 ar   
    24   11   61 1    
    25   12   13 ar   
    26   12   72 1    
    27   13   14 ar   
    28   13   15 1    
    29   14   73 1    
    30   15   16 1    
    31   15   74 1    
    32   15   75 1    
    33   16   17 1    
    34   17   18 1    
    35   17   76 1    
    36   17   77 1    
    37   18   19 1    
    38   18   27 1    
    39   18   78 1    
    40   19   20 am   BACKBONE|DICT|INTERRES
    41   19   79 1    
    42   20   21 2    
    43   20   22 1    
    44   22   23 1    
    45   22   24 1    
    46   22   80 1    
    47   23   81 1    
    48   23   82 1    
    49   23   83 1    
    50   24   25 am   BACKBONE|DICT|INTERRES
    51   24   84 1    
    52   25   26 2    
    53   27   28 2    
    54   27   29 am   BACKBONE|DICT|INTERRES
    55   29   30 1    
    56   29   85 1    
    57   30   31 1    
    58   30   32 1    
    59   30   86 1    
    60   31   87 1    
    61   31   88 1    
    62   31   89 1    
    63   32   33 2    
    64   32   34 am   BACKBONE|DICT|INTERRES
    65   34   35 1    
    66   34   90 1    
    67   35   36 1    
    68   35   37 1    
    69   35   91 1    
    70   36   92 1    
    71   36   93 1    
    72   36   94 1    
    73   37   38 2    
    74   37   39 am   BACKBONE|DICT|INTERRES
    75   39   40 1    
    76   39   95 1    
    77   40   41 1    
    78   40   42 1    
    79   40   96 1    
    80   41   97 1    
    81   41   98 1    
    82   41   99 1    
    83   42   43 2    
    84   42   44 am   BACKBONE|DICT|INTERRES
    85   44   45 1    
    86   44  100 1    
    87   45   46 1    
    88   45   47 1    
    89   45  101 1    
    90   46  102 1    
    91   46  103 1    
    92   46  104 1    
    93   47   48 2    
    94   47   49 am   BACKBONE|DICT|INTERRES
    95   49   50 1    
    96   49  105 1    
    97   50   51 1    
    98   50   52 1    
    99   50  106 1    
   100   51  107 1    
   101   51  108 1    
   102   51  109 1    
   103   52   53 2    
   104   52   54 am   BACKBONE|DICT|INTERRES
   105   54   55 1    
   106   54  110 1    
   107   55   56 1    
   108   55   59 1    
   109   55  111 1    
   110   56   57 am   BACKBONE|DICT|INTERRES
   111   56   58 2    
   112   57  112 1    
   113   57  113 1    
   114   59   60 1    
   115   59  114 1    
   116   59  115 1    
   117   60   61 1    
   118   61  116 1    
   119   61  117 1    
@<TRIPOS>SUBSTRUCTURE
     1 UNK         1 GROUP             0       ****    0 ROOT    
