@<TRIPOS>MOLECULE
3R8
117   119    1
SMALL
USER_CHARGES


@<TRIPOS>ATOM
      1 CA         20.7023  -29.7266  -49.8371 C.3       0 UNK        -0.2013 
      2 C          20.4555  -29.4902  -48.3547 C.2       0 UNK         0.4866 
      3 O          21.2676  -29.9020  -47.5267 O.2       0 UNK        -0.5176 
      4 N          19.3362  -28.8395  -48.0145 N.am      1 UNK        -0.4884 
      5 CA         18.9528  -28.4834  -46.6437 C.3       1 UNK         0.0853 
      6 C6         17.4643  -28.0716  -46.5565 C.3       10 UNK        -0.0849 
      7 S7         16.3830  -29.4955  -46.9272 S.3       10 UNK        -0.2776 
      8 C8         15.2212  -29.4981  -45.5191 C.3       10 UNK         0.0316 
      9 C9         15.8815  -29.5940  -44.1444 C.ar      10 UNK        -0.0863 
     10 C10        16.9348  -30.4819  -43.8945 C.ar      10 UNK        -0.1009 
     11 C11        17.5060  -30.5666  -42.6202 C.ar      10 UNK        -0.0712 
     12 C12        16.9966  -29.7786  -41.5838 C.ar      10 UNK        -0.0894 
     13 C13        15.9370  -28.8962  -41.8148 C.ar      10 UNK        -0.0745 
     14 C14        15.3919  -28.8057  -43.0986 C.ar      10 UNK        -0.0972 
     15 C15        15.3452  -28.0590  -40.6836 C.3       10 UNK         0.0209 
     16 S16        16.5859  -27.1547  -39.6984 S.3       10 UNK        -0.2568 
     17 C17        17.4835  -26.2109  -40.9750 C.3       10 UNK        -0.0983 
     18 CA         18.9924  -26.5663  -40.9684 C.3       3 UNK         0.0876 
     19 N          19.5832  -26.4554  -42.3061 N.am      3 UNK        -0.4424 
     20 C          20.8698  -26.6650  -42.6237 C.2       2 UNK         0.4918 
     21 O          21.7559  -26.9153  -41.8062 O.2       2 UNK        -0.4875 
     22 CA         21.1984  -26.6302  -44.1215 C.3       2 UNK         0.0481 
     23 CB         22.6589  -27.0200  -44.4279 C.3       2 UNK        -0.1831 
     24 N          20.2855  -27.5296  -44.8254 N.am      2 UNK        -0.4498 
     25 C          19.8735  -27.3788  -46.0891 C.2       1 UNK         0.5027 
     26 O          20.1769  -26.4200  -46.8038 O.2       1 UNK        -0.4969 
     27 C          19.7528  -25.7291  -39.9197 C.2       3 UNK         0.5005 
     28 O          19.9580  -24.5325  -40.1373 O.2       3 UNK        -0.5279 
     29 N          20.1936  -26.3849  -38.8359 N.am      4 UNK        -0.4463 
     30 CA         21.0112  -25.8798  -37.7206 C.3       4 UNK         0.0283 
     31 CB         20.3007  -24.7321  -36.9760 C.3       4 UNK        -0.1875 
     32 C          22.4574  -25.4868  -38.0889 C.2       4 UNK         0.4949 
     33 O          23.3308  -25.5697  -37.2252 O.2       4 UNK        -0.5039 
     34 N          22.6987  -25.0786  -39.3405 N.am      5 UNK        -0.4663 
     35 CA         24.0071  -24.7059  -39.8774 C.3       5 UNK         0.0242 
     36 CB         23.8190  -23.9842  -41.2218 C.3       5 UNK        -0.1982 
     37 C          24.9591  -25.9025  -40.0331 C.2       5 UNK         0.5017 
     38 O          26.1593  -25.7396  -39.8078 O.2       5 UNK        -0.5012 
     39 N          24.4232  -27.0727  -40.4033 N.am      6 UNK        -0.4439 
     40 CA         25.1751  -28.3152  -40.5551 C.3       6 UNK         0.0297 
     41 CB         25.8020  -28.3730  -41.9615 C.3       6 UNK        -0.2006 
     42 C          24.2546  -29.5176  -40.3230 C.2       6 UNK         0.4892 
     43 O          23.0465  -29.4211  -40.5379 O.2       6 UNK        -0.5089 
     44 N          24.8578  -30.6484  -39.9370 N.am      7 UNK        -0.4243 
     45 CA         24.1924  -31.9537  -39.8451 C.3       7 UNK         0.0196 
     46 CB         24.8896  -32.7915  -38.7600 C.3       7 UNK        -0.2007 
     47 C          24.1877  -32.7096  -41.1889 C.2       7 UNK         0.5020 
     48 O          23.5291  -33.7443  -41.2979 O.2       7 UNK        -0.5147 
     49 N          24.9248  -32.1931  -42.1845 N.am      8 UNK        -0.4734 
     50 CA         25.1486  -32.7869  -43.5082 C.3       8 UNK         0.0238 
     51 CB         26.1505  -31.9123  -44.2807 C.3       8 UNK        -0.1912 
     52 C          23.8797  -33.0155  -44.3494 C.2       8 UNK         0.5038 
     53 O          23.9134  -33.8436  -45.2608 O.2       8 UNK        -0.5046 
     54 N          22.7935  -32.2997  -44.0321 N.am      9 UNK        -0.4200 
     55 CA         21.4604  -32.5153  -44.6096 C.3       9 UNK         0.0839 
     56 C          20.7622  -33.8345  -44.1631 C.2       9 UNK         0.5513 
     57 N          21.2301  -34.5251  -43.1287 N.am      9 UNK        -0.7519 
     58 O          19.7793  -34.2415  -44.7767 O.2       9 UNK        -0.4960 
     59 C59        20.5482  -31.2746  -44.4291 C.3       10 UNK        -0.0876 
     60 S60        20.2736  -30.7825  -42.6908 S.3       10 UNK        -0.2414 
     61 C61        18.6494  -31.5309  -42.3428 C.3       10 UNK         0.0169 
     62 H62        19.8991  -29.3241  -50.4542 H         1 UNK         0.0903 
     63 H63        21.6347  -29.2520  -50.1417 H         1 UNK         0.0903 
     64 H64        20.7817  -30.7946  -50.0381 H         1 UNK         0.0903 
     65 H65        18.7085  -28.5180  -48.7375 H         1 UNK         0.3096 
     66 H66        19.0885  -29.3720  -46.0266 H         1 UNK         0.1121 
     67 H67        17.2273  -27.6849  -45.5636 H         1 UNK         0.0849 
     68 H68        17.2405  -27.2638  -47.2559 H         1 UNK         0.0849 
     69 H69        14.6076  -28.5982  -45.5870 H         1 UNK         0.0865 
     70 H70        14.5384  -30.3409  -45.6334 H         1 UNK         0.0865 
     71 H71        17.3037  -31.1118  -44.6915 H         1 UNK         0.1346 
     72 H72        17.4217  -29.8562  -40.5924 H         1 UNK         0.1412 
     73 H73        14.5664  -28.1306  -43.2799 H         1 UNK         0.1426 
     74 H74        14.7839  -28.7172  -40.0192 H         1 UNK         0.0716 
     75 H75        14.6285  -27.3349  -41.0742 H         1 UNK         0.0716 
     76 H76        17.3125  -25.1434  -40.8209 H         1 UNK         0.0695 
     77 H77        17.0435  -26.4317  -41.9481 H         1 UNK         0.0695 
     78 H78        19.1017  -27.6221  -40.7095 H         1 UNK         0.0983 
     79 H79        18.9444  -26.2260  -43.0521 H         1 UNK         0.3095 
     80 H80        21.0346  -25.6035  -44.4551 H         1 UNK         0.0454 
     81 H81        22.8738  -28.0411  -44.1103 H         1 UNK         0.0851 
     82 H82        23.3586  -26.3622  -43.9110 H         1 UNK         0.0851 
     83 H83        22.8750  -26.9486  -45.4937 H         1 UNK         0.0851 
     84 H84        19.9686  -28.3262  -44.2879 H         1 UNK         0.2976 
     85 H85        19.9950  -27.3752  -38.7870 H         1 UNK         0.3116 
     86 H86        21.0939  -26.7155  -37.0238 H         1 UNK         0.0646 
     87 H87        20.2115  -23.8374  -37.5927 H         1 UNK         0.0847 
     88 H88        20.8548  -24.4500  -36.0798 H         1 UNK         0.0847 
     89 H89        19.2994  -25.0233  -36.6592 H         1 UNK         0.0847 
     90 H90        21.9046  -25.0069  -39.9677 H         1 UNK         0.3040 
     91 H91        24.4704  -24.0078  -39.1766 H         1 UNK         0.1015 
     92 H92        23.2045  -23.0908  -41.1097 H         1 UNK         0.0786 
     93 H93        23.3432  -24.6273  -41.9627 H         1 UNK         0.0786 
     94 H94        24.7789  -23.6682  -41.6325 H         1 UNK         0.0786 
     95 H95        23.4252  -27.1393  -40.5949 H         1 UNK         0.3172 
     96 H96        25.9671  -28.3478  -39.8036 H         1 UNK         0.0595 
     97 H97        25.0386  -28.3724  -42.7406 H         1 UNK         0.0839 
     98 H98        26.4049  -29.2720  -42.0916 H         1 UNK         0.0839 
     99 H99        26.4589  -27.5215  -42.1398 H         1 UNK         0.0839 
    100 H100       25.8529  -30.6361  -39.7596 H         1 UNK         0.2998 
    101 H101       23.1505  -31.8110  -39.5491 H         1 UNK         0.0822 
    102 H102       24.8603  -32.2903  -37.7923 H         1 UNK         0.0787 
    103 H103       24.3986  -33.7580  -38.6366 H         1 UNK         0.0787 
    104 H104       25.9341  -32.9862  -39.0070 H         1 UNK         0.0787 
    105 H105       25.4202  -31.3360  -41.9940 H         1 UNK         0.3055 
    106 H106       25.5995  -33.7691  -43.3504 H         1 UNK         0.1106 
    107 H107       26.3673  -32.3386  -45.2613 H         1 UNK         0.0828 
    108 H108       25.7656  -30.9045  -44.4426 H         1 UNK         0.0828 
    109 H109       27.0999  -31.8301  -43.7512 H         1 UNK         0.0828 
    110 H110       22.8427  -31.6585  -43.2541 H         1 UNK         0.2931 
    111 H111       21.6073  -32.6233  -45.6864 H         1 UNK         0.0412 
    112 H112       22.0314  -34.1975  -42.6001 H         1 UNK         0.3472 
    113 H113       20.7686  -35.3788  -42.8580 H         1 UNK         0.3472 
    114 H114       21.0129  -30.4278  -44.9344 H         1 UNK         0.0970 
    115 H115       19.5944  -31.4303  -44.9335 H         1 UNK         0.0970 
    116 H116       18.6305  -31.8343  -41.2950 H         1 UNK         0.0612 
    117 H117       18.5169  -32.4467  -42.9192 H         1 UNK         0.0612 
@<TRIPOS>BOND
     1    1    2 1    
     2    1   62 1    
     3    1   63 1    
     4    1   64 1    
     5    2    3 2    
     6    2    4 am   BACKBONE|DICT|INTERRES
     7    4    5 1    
     8    4   65 1    
     9    5    6 1    
    10    5   25 1    
    11    5   66 1    
    12    6    7 1    
    13    6   67 1    
    14    6   68 1    
    15    7    8 1    
    16    8    9 1    
    17    8   69 1    
    18    8   70 1    
    19    9   10 ar   
    20    9   14 ar   
    21   10   11 ar   
    22   10   71 1    
    23   11   12 ar   
    24   11   61 1    
    25   12   13 ar   
    26   12   72 1    
    27   13   14 ar   
    28   13   15 1    
    29   14   73 1    
    30   15   16 1    
    31   15   74 1    
    32   15   75 1    
    33   16   17 1    
    34   17   18 1    
    35   17   76 1    
    36   17   77 1    
    37   18   19 1    
    38   18   27 1    
    39   18   78 1    
    40   19   20 am   BACKBONE|DICT|INTERRES
    41   19   79 1    
    42   20   21 2    
    43   20   22 1    
    44   22   23 1    
    45   22   24 1    
    46   22   80 1    
    47   23   81 1    
    48   23   82 1    
    49   23   83 1    
    50   24   25 am   BACKBONE|DICT|INTERRES
    51   24   84 1    
    52   25   26 2    
    53   27   28 2    
    54   27   29 am   BACKBONE|DICT|INTERRES
    55   29   30 1    
    56   29   85 1    
    57   30   31 1    
    58   30   32 1    
    59   30   86 1    
    60   31   87 1    
    61   31   88 1    
    62   31   89 1    
    63   32   33 2    
    64   32   34 am   BACKBONE|DICT|INTERRES
    65   34   35 1    
    66   34   90 1    
    67   35   36 1    
    68   35   37 1    
    69   35   91 1    
    70   36   92 1    
    71   36   93 1    
    72   36   94 1    
    73   37   38 2    
    74   37   39 am   BACKBONE|DICT|INTERRES
    75   39   40 1    
    76   39   95 1    
    77   40   41 1    
    78   40   42 1    
    79   40   96 1    
    80   41   97 1    
    81   41   98 1    
    82   41   99 1    
    83   42   43 2    
    84   42   44 am   BACKBONE|DICT|INTERRES
    85   44   45 1    
    86   44  100 1    
    87   45   46 1    
    88   45   47 1    
    89   45  101 1    
    90   46  102 1    
    91   46  103 1    
    92   46  104 1    
    93   47   48 2    
    94   47   49 am   BACKBONE|DICT|INTERRES
    95   49   50 1    
    96   49  105 1    
    97   50   51 1    
    98   50   52 1    
    99   50  106 1    
   100   51  107 1    
   101   51  108 1    
   102   51  109 1    
   103   52   53 2    
   104   52   54 am   BACKBONE|DICT|INTERRES
   105   54   55 1    
   106   54  110 1    
   107   55   56 1    
   108   55   59 1    
   109   55  111 1    
   110   56   57 am   BACKBONE|DICT|INTERRES
   111   56   58 2    
   112   57  112 1    
   113   57  113 1    
   114   59   60 1    
   115   59  114 1    
   116   59  115 1    
   117   60   61 1    
   118   61  116 1    
   119   61  117 1    
@<TRIPOS>SUBSTRUCTURE
     1 UNK         1 GROUP             0       ****    0 ROOT    
