@<TRIPOS>MOLECULE
3R8
117   119    1
SMALL
USER_CHARGES


@<TRIPOS>ATOM
      1 CA         17.5119  -26.6800  -49.6543 C.3       0 UNK        -0.2013 
      2 C          17.4369  -26.3471  -48.1715 C.2       0 UNK         0.4866 
      3 O          17.2072  -25.1896  -47.8214 O.2       0 UNK        -0.5176 
      4 N          17.6280  -27.3566  -47.3101 N.am      1 UNK        -0.4884 
      5 CA         17.6092  -27.2836  -45.8423 C.3       1 UNK         0.0853 
      6 C6         16.2061  -26.9816  -45.2435 C.3       10 UNK        -0.0849 
      7 S7         15.0669  -28.3903  -45.4640 S.3       10 UNK        -0.2776 
      8 C8         14.9313  -29.0454  -43.7594 C.3       10 UNK         0.0316 
      9 C9         16.2735  -29.4308  -43.1396 C.ar      10 UNK        -0.0863 
     10 C10        17.1760  -30.2381  -43.8405 C.ar      10 UNK        -0.1009 
     11 C11        18.4198  -30.5564  -43.2911 C.ar      10 UNK        -0.0712 
     12 C12        18.7448  -30.0965  -42.0134 C.ar      10 UNK        -0.0894 
     13 C13        17.8382  -29.3276  -41.2770 C.ar      10 UNK        -0.0745 
     14 C14        16.6045  -28.9945  -41.8501 C.ar      10 UNK        -0.0972 
     15 C15        18.1913  -28.9241  -39.8459 C.3       10 UNK         0.0209 
     16 S16        17.8723  -27.1749  -39.4178 S.3       10 UNK        -0.2568 
     17 C17        18.5205  -26.2141  -40.8263 C.3       10 UNK        -0.0983 
     18 CA         19.9891  -26.5093  -41.2194 C.3       3 UNK         0.0876 
     19 N          20.1951  -26.1959  -42.6297 N.am      3 UNK        -0.4424 
     20 C          21.2690  -26.4894  -43.3677 C.2       2 UNK         0.4918 
     21 O          22.2768  -27.0328  -42.9148 O.2       2 UNK        -0.4875 
     22 CA         21.1642  -26.1481  -44.8714 C.3       2 UNK         0.0481 
     23 CB         22.4126  -26.5857  -45.6590 C.3       2 UNK        -0.1831 
     24 N          19.9731  -26.7524  -45.4859 N.am      2 UNK        -0.4498 
     25 C          18.7068  -26.3501  -45.2959 C.2       1 UNK         0.5027 
     26 O          18.4074  -25.3252  -44.6778 O.2       1 UNK        -0.4969 
     27 C          21.0075  -25.7721  -40.3281 C.2       3 UNK         0.5005 
     28 O          21.4235  -24.6594  -40.6637 O.2       3 UNK        -0.5279 
     29 N          21.4258  -26.4277  -39.2362 N.am      4 UNK        -0.4463 
     30 CA         22.5019  -26.0565  -38.3035 C.3       4 UNK         0.0283 
     31 CB         22.2492  -24.6906  -37.6353 C.3       4 UNK        -0.1875 
     32 C          23.9133  -26.1286  -38.9192 C.2       4 UNK         0.4949 
     33 O          24.8111  -26.6820  -38.2853 O.2       4 UNK        -0.5039 
     34 N          24.0850  -25.5962  -40.1366 N.am      5 UNK        -0.4663 
     35 CA         25.3304  -25.6172  -40.9092 C.3       5 UNK         0.0242 
     36 CB         25.1856  -24.7008  -42.1355 C.3       5 UNK        -0.1982 
     37 C          25.7414  -27.0367  -41.3344 C.2       5 UNK         0.5017 
     38 O          26.9038  -27.4082  -41.1693 O.2       5 UNK        -0.5012 
     39 N          24.7741  -27.8031  -41.8486 N.am      6 UNK        -0.4439 
     40 CA         24.9034  -29.2035  -42.2340 C.3       6 UNK         0.0297 
     41 CB         25.0848  -29.3057  -43.7601 C.3       6 UNK        -0.2006 
     42 C          23.6613  -29.9445  -41.7257 C.2       6 UNK         0.4892 
     43 O          22.8898  -30.4852  -42.5185 O.2       6 UNK        -0.5089 
     44 N          23.4817  -29.9411  -40.3966 N.am      7 UNK        -0.4243 
     45 CA         22.3293  -30.5156  -39.6902 C.3       7 UNK         0.0196 
     46 CB         22.4619  -30.2231  -38.1875 C.3       7 UNK        -0.2007 
     47 C          22.1082  -32.0228  -39.9238 C.2       7 UNK         0.5020 
     48 O          20.9741  -32.4868  -39.8155 O.2       7 UNK        -0.5147 
     49 N          23.1833  -32.7525  -40.2510 N.am      8 UNK        -0.4734 
     50 CA         23.1521  -34.1697  -40.6262 C.3       8 UNK         0.0238 
     51 CB         24.5509  -34.7699  -40.4034 C.3       8 UNK        -0.1912 
     52 C          22.6827  -34.4176  -42.0746 C.2       8 UNK         0.5038 
     53 O          22.4419  -35.5730  -42.4272 O.2       8 UNK        -0.5046 
     54 N          22.5806  -33.3541  -42.8853 N.am      9 UNK        -0.4200 
     55 CA         22.1744  -33.3596  -44.3012 C.3       9 UNK         0.0839 
     56 C          23.1968  -34.0247  -45.2714 C.2       9 UNK         0.5513 
     57 N          24.4454  -34.2370  -44.8728 N.am      9 UNK        -0.7519 
     58 O          22.8659  -34.3262  -46.4156 O.2       9 UNK        -0.4960 
     59 C59        20.7157  -33.8564  -44.5356 C.3       10 UNK        -0.0876 
     60 S60        19.4723  -33.0984  -43.4337 S.3       10 UNK        -0.2414 
     61 C61        19.4175  -31.3971  -44.0707 C.3       10 UNK         0.0169 
     62 H62        16.5689  -26.4335  -50.1416 H         1 UNK         0.0903 
     63 H63        18.3026  -26.1001  -50.1295 H         1 UNK         0.0903 
     64 H64        17.7159  -27.7365  -49.8274 H         1 UNK         0.0903 
     65 H65        17.8051  -28.2786  -47.6851 H         1 UNK         0.3096 
     66 H66        17.8992  -28.2748  -45.4965 H         1 UNK         0.1121 
     67 H67        15.7684  -26.0933  -45.7011 H         1 UNK         0.0849 
     68 H68        16.2736  -26.7614  -44.1761 H         1 UNK         0.0849 
     69 H69        14.4221  -28.3026  -43.1432 H         1 UNK         0.0865 
     70 H70        14.2869  -29.9254  -43.7717 H         1 UNK         0.0865 
     71 H71        16.9169  -30.6003  -44.8262 H         1 UNK         0.1346 
     72 H72        19.6995  -30.3714  -41.5873 H         1 UNK         0.1412 
     73 H73        15.9005  -28.3987  -41.2850 H         1 UNK         0.1426 
     74 H74        19.2364  -29.1450  -39.6294 H         1 UNK         0.0716 
     75 H75        17.6129  -29.5499  -39.1651 H         1 UNK         0.0716 
     76 H76        18.3801  -25.1517  -40.6169 H         1 UNK         0.0695 
     77 H77        17.8582  -26.4258  -41.6675 H         1 UNK         0.0695 
     78 H78        20.1844  -27.5784  -41.1338 H         1 UNK         0.0983 
     79 H79        19.4330  -25.7200  -43.1020 H         1 UNK         0.3095 
     80 H80        21.0847  -25.0620  -44.9507 H         1 UNK         0.0454 
     81 H81        22.5450  -27.6678  -45.6354 H         1 UNK         0.0851 
     82 H82        23.3160  -26.1377  -45.2426 H         1 UNK         0.0851 
     83 H83        22.3523  -26.2769  -46.7026 H         1 UNK         0.0851 
     84 H84        20.1293  -27.6040  -46.0059 H         1 UNK         0.2976 
     85 H85        21.0020  -27.3244  -39.0454 H         1 UNK         0.3116 
     86 H86        22.4697  -26.8050  -37.5106 H         1 UNK         0.0646 
     87 H87        22.3152  -23.8646  -38.3437 H         1 UNK         0.0847 
     88 H88        22.9868  -24.5010  -36.8544 H         1 UNK         0.0847 
     89 H89        21.2656  -24.6535  -37.1674 H         1 UNK         0.0847 
     90 H90        23.2754  -25.1541  -40.5649 H         1 UNK         0.3040 
     91 H91        26.1255  -25.2196  -40.2745 H         1 UNK         0.1015 
     92 H92        24.3758  -25.0247  -42.7908 H         1 UNK         0.0786 
     93 H93        26.1019  -24.6928  -42.7275 H         1 UNK         0.0786 
     94 H94        24.9835  -23.6716  -41.8385 H         1 UNK         0.0786 
     95 H95        23.8481  -27.4029  -41.9958 H         1 UNK         0.3172 
     96 H96        25.7706  -29.6557  -41.7486 H         1 UNK         0.0595 
     97 H97        25.9865  -28.7880  -44.0872 H         1 UNK         0.0839 
     98 H98        24.2380  -28.8727  -44.2932 H         1 UNK         0.0839 
     99 H99        25.1732  -30.3462  -44.0751 H         1 UNK         0.0839 
    100 H100       24.1711  -29.4699  -39.8274 H         1 UNK         0.2998 
    101 H101       21.4429  -30.0008  -40.0613 H         1 UNK         0.0822 
    102 H102       22.5424  -29.1549  -37.9925 H         1 UNK         0.0787 
    103 H103       21.5908  -30.5867  -37.6401 H         1 UNK         0.0787 
    104 H104       23.3405  -30.7077  -37.7596 H         1 UNK         0.0787 
    105 H105       24.0776  -32.2862  -40.3004 H         1 UNK         0.3055 
    106 H106       22.4484  -34.6886  -39.9710 H         1 UNK         0.1106 
    107 H107       24.5614  -35.8357  -40.6367 H         1 UNK         0.0828 
    108 H108       25.3024  -34.2920  -41.0329 H         1 UNK         0.0828 
    109 H109       24.8664  -34.6667  -39.3650 H         1 UNK         0.0828 
    110 H110       22.7766  -32.4310  -42.5116 H         1 UNK         0.2931 
    111 H111       22.1975  -32.3092  -44.5902 H         1 UNK         0.0412 
    112 H112       25.1030  -34.6583  -45.5102 H         1 UNK         0.3472 
    113 H113       24.7337  -33.9848  -43.9416 H         1 UNK         0.3472 
    114 H114       20.4114  -33.6713  -45.5674 H         1 UNK         0.0970 
    115 H115       20.6632  -34.9379  -44.4006 H         1 UNK         0.0970 
    116 H116       20.4057  -30.9423  -43.9900 H         1 UNK         0.0612 
    117 H117       19.1642  -31.4138  -45.1318 H         1 UNK         0.0612 
@<TRIPOS>BOND
     1    1    2 1    
     2    1   62 1    
     3    1   63 1    
     4    1   64 1    
     5    2    3 2    
     6    2    4 am   BACKBONE|DICT|INTERRES
     7    4    5 1    
     8    4   65 1    
     9    5    6 1    
    10    5   25 1    
    11    5   66 1    
    12    6    7 1    
    13    6   67 1    
    14    6   68 1    
    15    7    8 1    
    16    8    9 1    
    17    8   69 1    
    18    8   70 1    
    19    9   10 ar   
    20    9   14 ar   
    21   10   11 ar   
    22   10   71 1    
    23   11   12 ar   
    24   11   61 1    
    25   12   13 ar   
    26   12   72 1    
    27   13   14 ar   
    28   13   15 1    
    29   14   73 1    
    30   15   16 1    
    31   15   74 1    
    32   15   75 1    
    33   16   17 1    
    34   17   18 1    
    35   17   76 1    
    36   17   77 1    
    37   18   19 1    
    38   18   27 1    
    39   18   78 1    
    40   19   20 am   BACKBONE|DICT|INTERRES
    41   19   79 1    
    42   20   21 2    
    43   20   22 1    
    44   22   23 1    
    45   22   24 1    
    46   22   80 1    
    47   23   81 1    
    48   23   82 1    
    49   23   83 1    
    50   24   25 am   BACKBONE|DICT|INTERRES
    51   24   84 1    
    52   25   26 2    
    53   27   28 2    
    54   27   29 am   BACKBONE|DICT|INTERRES
    55   29   30 1    
    56   29   85 1    
    57   30   31 1    
    58   30   32 1    
    59   30   86 1    
    60   31   87 1    
    61   31   88 1    
    62   31   89 1    
    63   32   33 2    
    64   32   34 am   BACKBONE|DICT|INTERRES
    65   34   35 1    
    66   34   90 1    
    67   35   36 1    
    68   35   37 1    
    69   35   91 1    
    70   36   92 1    
    71   36   93 1    
    72   36   94 1    
    73   37   38 2    
    74   37   39 am   BACKBONE|DICT|INTERRES
    75   39   40 1    
    76   39   95 1    
    77   40   41 1    
    78   40   42 1    
    79   40   96 1    
    80   41   97 1    
    81   41   98 1    
    82   41   99 1    
    83   42   43 2    
    84   42   44 am   BACKBONE|DICT|INTERRES
    85   44   45 1    
    86   44  100 1    
    87   45   46 1    
    88   45   47 1    
    89   45  101 1    
    90   46  102 1    
    91   46  103 1    
    92   46  104 1    
    93   47   48 2    
    94   47   49 am   BACKBONE|DICT|INTERRES
    95   49   50 1    
    96   49  105 1    
    97   50   51 1    
    98   50   52 1    
    99   50  106 1    
   100   51  107 1    
   101   51  108 1    
   102   51  109 1    
   103   52   53 2    
   104   52   54 am   BACKBONE|DICT|INTERRES
   105   54   55 1    
   106   54  110 1    
   107   55   56 1    
   108   55   59 1    
   109   55  111 1    
   110   56   57 am   BACKBONE|DICT|INTERRES
   111   56   58 2    
   112   57  112 1    
   113   57  113 1    
   114   59   60 1    
   115   59  114 1    
   116   59  115 1    
   117   60   61 1    
   118   61  116 1    
   119   61  117 1    
@<TRIPOS>SUBSTRUCTURE
     1 UNK         1 GROUP             0       ****    0 ROOT    
