@<TRIPOS>MOLECULE
3R8
117   119    1
SMALL
USER_CHARGES


@<TRIPOS>ATOM
      1 CA         14.6500  -22.8976  -43.3928 C.3       0 UNK        -0.2013 
      2 C          15.5566  -23.7565  -44.2616 C.2       0 UNK         0.4866 
      3 O          16.6196  -23.2964  -44.6781 O.2       0 UNK        -0.5176 
      4 N          15.1433  -25.0004  -44.5409 N.am      1 UNK        -0.4884 
      5 CA         15.8999  -25.9726  -45.3426 C.3       1 UNK         0.0853 
      6 C6         14.9849  -27.1357  -45.8102 C.3       10 UNK        -0.0849 
      7 S7         15.5962  -27.9636  -47.3179 S.3       10 UNK        -0.2776 
      8 C8         15.6608  -29.7138  -46.8065 C.3       10 UNK         0.0316 
      9 C9         16.8260  -30.0174  -45.8723 C.ar      10 UNK        -0.0863 
     10 C10        16.5942  -30.3688  -44.5378 C.ar      10 UNK        -0.1009 
     11 C11        17.6612  -30.6868  -43.6908 C.ar      10 UNK        -0.0712 
     12 C12        18.9662  -30.6396  -44.1874 C.ar      10 UNK        -0.0894 
     13 C13        19.2143  -30.2965  -45.5176 C.ar      10 UNK        -0.0745 
     14 C14        18.1386  -29.9877  -46.3560 C.ar      10 UNK        -0.0972 
     15 C15        20.6371  -30.2971  -46.0601 C.3       10 UNK         0.0209 
     16 S16        21.4663  -28.6893  -45.8425 S.3       10 UNK        -0.2568 
     17 C17        22.2108  -28.8376  -44.1812 C.3       10 UNK        -0.0983 
     18 CA         21.7167  -27.7401  -43.2031 C.3       3 UNK         0.0876 
     19 N          20.2716  -27.8322  -42.9736 N.am      3 UNK        -0.4424 
     20 C          19.4677  -26.8440  -42.5650 C.2       2 UNK         0.4918 
     21 O          19.8522  -25.6984  -42.3197 O.2       2 UNK        -0.4875 
     22 CA         17.9950  -27.2229  -42.3400 C.3       2 UNK         0.0481 
     23 CB         17.5704  -26.9109  -40.8954 C.3       2 UNK        -0.1831 
     24 N          17.0476  -26.5994  -43.2671 N.am      2 UNK        -0.4498 
     25 C          17.1484  -26.5022  -44.6036 C.2       1 UNK         0.5027 
     26 O          18.1456  -26.8082  -45.2557 O.2       1 UNK        -0.4969 
     27 C          22.4952  -27.7460  -41.8658 C.2       3 UNK         0.5005 
     28 O          23.3997  -28.5617  -41.6689 O.2       3 UNK        -0.5279 
     29 N          22.1319  -26.8263  -40.9609 N.am      4 UNK        -0.4463 
     30 CA         22.6809  -26.6812  -39.6097 C.3       4 UNK         0.0283 
     31 CB         21.8299  -25.6705  -38.8251 C.3       4 UNK        -0.1875 
     32 C          24.1644  -26.2774  -39.5774 C.2       4 UNK         0.4949 
     33 O          24.8520  -26.6075  -38.6124 O.2       4 UNK        -0.5039 
     34 N          24.6401  -25.6050  -40.6358 N.am      5 UNK        -0.4663 
     35 CA         26.0506  -25.2532  -40.8305 C.3       5 UNK         0.0242 
     36 CB         26.1717  -24.2488  -41.9878 C.3       5 UNK        -0.1982 
     37 C          26.9415  -26.4829  -41.0843 C.2       5 UNK         0.5017 
     38 O          28.0901  -26.4982  -40.6413 O.2       5 UNK        -0.5012 
     39 N          26.3887  -27.4919  -41.7723 N.am      6 UNK        -0.4439 
     40 CA         27.0181  -28.7973  -41.9856 C.3       6 UNK         0.0297 
     41 CB         26.5098  -29.3863  -43.3124 C.3       6 UNK        -0.2006 
     42 C          26.7315  -29.7755  -40.8321 C.2       6 UNK         0.4892 
     43 O          27.4717  -30.7472  -40.6780 O.2       6 UNK        -0.5089 
     44 N          25.6547  -29.5121  -40.0744 N.am      7 UNK        -0.4243 
     45 CA         25.0379  -30.3618  -39.0507 C.3       7 UNK         0.0196 
     46 CB         25.9838  -30.5763  -37.8501 C.3       7 UNK        -0.2007 
     47 C          24.5070  -31.6718  -39.6621 C.2       7 UNK         0.5020 
     48 O          24.7076  -32.7481  -39.0961 O.2       7 UNK        -0.5147 
     49 N          23.8623  -31.5502  -40.8288 N.am      8 UNK        -0.4734 
     50 CA         23.3595  -32.6608  -41.6344 C.3       8 UNK         0.0238 
     51 CB         24.0670  -32.6217  -43.0003 C.3       8 UNK        -0.1912 
     52 C          21.8435  -32.5377  -41.8238 C.2       8 UNK         0.5038 
     53 O          21.3062  -31.4316  -41.7430 O.2       8 UNK        -0.5046 
     54 N          21.2000  -33.6738  -42.1135 N.am      9 UNK        -0.4200 
     55 CA         19.7884  -33.8155  -42.5016 C.3       9 UNK         0.0839 
     56 C          19.5239  -35.2202  -43.1178 C.2       9 UNK         0.5513 
     57 N          20.4527  -35.7623  -43.8984 N.am      9 UNK        -0.7519 
     58 O          18.4911  -35.8422  -42.8836 O.2       9 UNK        -0.4960 
     59 C59        18.7920  -33.3979  -41.3786 C.3       10 UNK        -0.0876 
     60 S60        17.1697  -32.8505  -42.0225 S.3       10 UNK        -0.2414 
     61 C61        17.4032  -31.0565  -42.2357 C.3       10 UNK         0.0169 
     62 H62        14.3579  -21.9966  -43.9318 H         1 UNK         0.0903 
     63 H63        13.7428  -23.4261  -43.1003 H         1 UNK         0.0903 
     64 H64        15.1745  -22.5971  -42.4861 H         1 UNK         0.0903 
     65 H65        14.2518  -25.3168  -44.1846 H         1 UNK         0.3096 
     66 H66        16.2580  -25.4428  -46.2289 H         1 UNK         0.1121 
     67 H67        13.9941  -26.7513  -46.0580 H         1 UNK         0.0849 
     68 H68        14.8254  -27.8614  -45.0101 H         1 UNK         0.0849 
     69 H69        14.7094  -29.9945  -46.3517 H         1 UNK         0.0865 
     70 H70        15.7588  -30.3326  -47.6996 H         1 UNK         0.0865 
     71 H71        15.5824  -30.4040  -44.1574 H         1 UNK         0.1346 
     72 H72        19.7937  -30.8802  -43.5411 H         1 UNK         0.1412 
     73 H73        18.3213  -29.7213  -47.3881 H         1 UNK         0.1426 
     74 H74        21.2243  -31.0902  -45.5944 H         1 UNK         0.0716 
     75 H75        20.6187  -30.5302  -47.1258 H         1 UNK         0.0716 
     76 H76        23.2916  -28.7681  -44.3152 H         1 UNK         0.0695 
     77 H77        22.0225  -29.8302  -43.7715 H         1 UNK         0.0695 
     78 H78        21.9219  -26.7738  -43.6693 H         1 UNK         0.0983 
     79 H79        19.8593  -28.7300  -43.1794 H         1 UNK         0.3095 
     80 H80        17.8978  -28.2971  -42.4785 H         1 UNK         0.0454 
     81 H81        17.5656  -25.8378  -40.6999 H         1 UNK         0.0851 
     82 H82        16.5741  -27.2970  -40.6796 H         1 UNK         0.0851 
     83 H83        18.2541  -27.3687  -40.1789 H         1 UNK         0.0851 
     84 H84        16.1899  -26.2634  -42.8553 H         1 UNK         0.2976 
     85 H85        21.3754  -26.1989  -41.2208 H         1 UNK         0.3116 
     86 H86        22.5983  -27.6520  -39.1163 H         1 UNK         0.0646 
     87 H87        20.7897  -25.9907  -38.7622 H         1 UNK         0.0847 
     88 H88        22.1958  -25.5618  -37.8030 H         1 UNK         0.0847 
     89 H89        21.8499  -24.6818  -39.2853 H         1 UNK         0.0847 
     90 H90        23.9953  -25.3511  -41.3703 H         1 UNK         0.3040 
     91 H91        26.4095  -24.7713  -39.9180 H         1 UNK         0.1015 
     92 H92        25.8113  -24.6670  -42.9285 H         1 UNK         0.0786 
     93 H93        27.2110  -23.9536  -42.1397 H         1 UNK         0.0786 
     94 H94        25.6056  -23.3394  -41.7848 H         1 UNK         0.0786 
     95 H95        25.4299  -27.3976  -42.0782 H         1 UNK         0.3172 
     96 H96        28.1005  -28.6727  -42.0600 H         1 UNK         0.0595 
     97 H97        25.4340  -29.5635  -43.2907 H         1 UNK         0.0839 
     98 H98        26.9903  -30.3428  -43.5229 H         1 UNK         0.0839 
     99 H99        26.7258  -28.7245  -44.1512 H         1 UNK         0.0839 
    100 H100       25.0910  -28.7207  -40.3565 H         1 UNK         0.2998 
    101 H101       24.1643  -29.8176  -38.6886 H         1 UNK         0.0822 
    102 H102       25.4727  -31.1000  -37.0415 H         1 UNK         0.0787 
    103 H103       26.8572  -31.1708  -38.1194 H         1 UNK         0.0787 
    104 H104       26.3347  -29.6250  -37.4498 H         1 UNK         0.0787 
    105 H105       23.6604  -30.6198  -41.1837 H         1 UNK         0.3055 
    106 H106       23.5721  -33.6162  -41.1493 H         1 UNK         0.1106 
    107 H107       25.1486  -32.6987  -42.8864 H         1 UNK         0.0828 
    108 H108       23.7496  -33.4498  -43.6351 H         1 UNK         0.0828 
    109 H109       23.8547  -31.6970  -43.5388 H         1 UNK         0.0828 
    110 H110       21.7220  -34.5390  -42.1373 H         1 UNK         0.2931 
    111 H111       19.6460  -33.1349  -43.3391 H         1 UNK         0.0412 
    112 H112       20.2844  -36.6764  -44.2899 H         1 UNK         0.3472 
    113 H113       21.2826  -35.2542  -44.1598 H         1 UNK         0.3472 
    114 H114       18.6326  -34.2249  -40.6847 H         1 UNK         0.0970 
    115 H115       19.1983  -32.5945  -40.7649 H         1 UNK         0.0970 
    116 H116       16.5047  -30.5475  -41.8834 H         1 UNK         0.0612 
    117 H117       18.2167  -30.6973  -41.6037 H         1 UNK         0.0612 
@<TRIPOS>BOND
     1    1    2 1    
     2    1   62 1    
     3    1   63 1    
     4    1   64 1    
     5    2    3 2    
     6    2    4 am   BACKBONE|DICT|INTERRES
     7    4    5 1    
     8    4   65 1    
     9    5    6 1    
    10    5   25 1    
    11    5   66 1    
    12    6    7 1    
    13    6   67 1    
    14    6   68 1    
    15    7    8 1    
    16    8    9 1    
    17    8   69 1    
    18    8   70 1    
    19    9   10 ar   
    20    9   14 ar   
    21   10   11 ar   
    22   10   71 1    
    23   11   12 ar   
    24   11   61 1    
    25   12   13 ar   
    26   12   72 1    
    27   13   14 ar   
    28   13   15 1    
    29   14   73 1    
    30   15   16 1    
    31   15   74 1    
    32   15   75 1    
    33   16   17 1    
    34   17   18 1    
    35   17   76 1    
    36   17   77 1    
    37   18   19 1    
    38   18   27 1    
    39   18   78 1    
    40   19   20 am   BACKBONE|DICT|INTERRES
    41   19   79 1    
    42   20   21 2    
    43   20   22 1    
    44   22   23 1    
    45   22   24 1    
    46   22   80 1    
    47   23   81 1    
    48   23   82 1    
    49   23   83 1    
    50   24   25 am   BACKBONE|DICT|INTERRES
    51   24   84 1    
    52   25   26 2    
    53   27   28 2    
    54   27   29 am   BACKBONE|DICT|INTERRES
    55   29   30 1    
    56   29   85 1    
    57   30   31 1    
    58   30   32 1    
    59   30   86 1    
    60   31   87 1    
    61   31   88 1    
    62   31   89 1    
    63   32   33 2    
    64   32   34 am   BACKBONE|DICT|INTERRES
    65   34   35 1    
    66   34   90 1    
    67   35   36 1    
    68   35   37 1    
    69   35   91 1    
    70   36   92 1    
    71   36   93 1    
    72   36   94 1    
    73   37   38 2    
    74   37   39 am   BACKBONE|DICT|INTERRES
    75   39   40 1    
    76   39   95 1    
    77   40   41 1    
    78   40   42 1    
    79   40   96 1    
    80   41   97 1    
    81   41   98 1    
    82   41   99 1    
    83   42   43 2    
    84   42   44 am   BACKBONE|DICT|INTERRES
    85   44   45 1    
    86   44  100 1    
    87   45   46 1    
    88   45   47 1    
    89   45  101 1    
    90   46  102 1    
    91   46  103 1    
    92   46  104 1    
    93   47   48 2    
    94   47   49 am   BACKBONE|DICT|INTERRES
    95   49   50 1    
    96   49  105 1    
    97   50   51 1    
    98   50   52 1    
    99   50  106 1    
   100   51  107 1    
   101   51  108 1    
   102   51  109 1    
   103   52   53 2    
   104   52   54 am   BACKBONE|DICT|INTERRES
   105   54   55 1    
   106   54  110 1    
   107   55   56 1    
   108   55   59 1    
   109   55  111 1    
   110   56   57 am   BACKBONE|DICT|INTERRES
   111   56   58 2    
   112   57  112 1    
   113   57  113 1    
   114   59   60 1    
   115   59  114 1    
   116   59  115 1    
   117   60   61 1    
   118   61  116 1    
   119   61  117 1    
@<TRIPOS>SUBSTRUCTURE
     1 UNK         1 GROUP             0       ****    0 ROOT    
