@<TRIPOS>MOLECULE
3R8
117   119    1
SMALL
USER_CHARGES


@<TRIPOS>ATOM
      1 CA         18.2884  -28.7457  -42.4485 C.3       0 UNK        -0.2013 
      2 C          17.3845  -27.7142  -43.0955 C.2       0 UNK         0.4866 
      3 O          17.0060  -26.7367  -42.4498 O.2       0 UNK        -0.5176 
      4 N          17.0490  -27.9104  -44.3755 N.am      1 UNK        -0.4884 
      5 CA         16.1385  -27.0672  -45.1607 C.3       1 UNK         0.0853 
      6 C6         15.5029  -27.8440  -46.3461 C.3       10 UNK        -0.0849 
      7 S7         14.8090  -29.4633  -45.8551 S.3       10 UNK        -0.2776 
      8 C8         15.8413  -30.6275  -46.8083 C.3       10 UNK         0.0316 
      9 C9         17.2891  -30.6758  -46.3301 C.ar      10 UNK        -0.0863 
     10 C10        17.6645  -31.5372  -45.2927 C.ar      10 UNK        -0.1009 
     11 C11        19.0051  -31.6386  -44.9031 C.ar      10 UNK        -0.0712 
     12 C12        19.9674  -30.8479  -45.5387 C.ar      10 UNK        -0.0894 
     13 C13        19.6028  -29.9711  -46.5638 C.ar      10 UNK        -0.0745 
     14 C14        18.2661  -29.9005  -46.9637 C.ar      10 UNK        -0.0972 
     15 C15        20.6550  -29.1226  -47.2644 C.3       10 UNK         0.0209 
     16 S16        20.5617  -27.3721  -46.7731 S.3       10 UNK        -0.2568 
     17 C17        21.0982  -27.4640  -45.0353 C.3       10 UNK        -0.0983 
     18 CA         21.1911  -26.0665  -44.3605 C.3       3 UNK         0.0876 
     19 N          19.8949  -25.3929  -44.3124 N.am      3 UNK        -0.4424 
     20 C          19.5655  -24.2560  -44.9374 C.2       2 UNK         0.4918 
     21 O          20.3371  -23.6045  -45.6435 O.2       2 UNK        -0.4875 
     22 CA         18.1114  -23.7796  -44.7274 C.3       2 UNK         0.0481 
     23 CB         17.6563  -22.7249  -45.7587 C.3       2 UNK        -0.1831 
     24 N          17.1755  -24.9103  -44.6469 N.am      2 UNK        -0.4498 
     25 C          16.8682  -25.7845  -45.6181 C.2       1 UNK         0.5027 
     26 O          17.1889  -25.6435  -46.7993 O.2       1 UNK        -0.4969 
     27 C          21.7252  -26.1045  -42.9152 C.2       3 UNK         0.5005 
     28 O          21.9906  -25.0377  -42.3563 O.2       3 UNK        -0.5279 
     29 N          21.8489  -27.3097  -42.3338 N.am      4 UNK        -0.4463 
     30 CA         22.3816  -27.6179  -40.9988 C.3       4 UNK         0.0283 
     31 CB         21.5711  -26.9016  -39.8951 C.3       4 UNK        -0.1875 
     32 C          23.8961  -27.3491  -40.8858 C.2       4 UNK         0.4949 
     33 O          24.5488  -27.0348  -41.8845 O.2       4 UNK        -0.5039 
     34 N          24.4405  -27.5344  -39.6739 N.am      5 UNK        -0.4663 
     35 CA         25.8440  -27.3828  -39.2505 C.3       5 UNK         0.0242 
     36 CB         26.3542  -25.9443  -39.4674 C.3       5 UNK        -0.1982 
     37 C          26.8014  -28.4194  -39.8658 C.2       5 UNK         0.5017 
     38 O          27.5142  -29.0993  -39.1276 O.2       5 UNK        -0.5012 
     39 N          26.7721  -28.5491  -41.1968 N.am      6 UNK        -0.4439 
     40 CA         27.4530  -29.5915  -41.9695 C.3       6 UNK         0.0297 
     41 CB         27.6011  -29.1133  -43.4232 C.3       6 UNK        -0.2006 
     42 C          26.7171  -30.9456  -41.9190 C.2       6 UNK         0.4892 
     43 O          27.2921  -31.9582  -42.3200 O.2       6 UNK        -0.5089 
     44 N          25.4702  -30.9405  -41.4352 N.am      7 UNK        -0.4243 
     45 CA         24.6164  -32.0999  -41.2156 C.3       7 UNK         0.0196 
     46 CB         23.6650  -32.2633  -42.4125 C.3       7 UNK        -0.2007 
     47 C          23.8413  -31.8773  -39.9113 C.2       7 UNK         0.5020 
     48 O          23.6744  -30.7314  -39.4859 O.2       7 UNK        -0.5147 
     49 N          23.3812  -32.9762  -39.3019 N.am      8 UNK        -0.4734 
     50 CA         22.6731  -32.9782  -38.0152 C.3       8 UNK         0.0238 
     51 CB         22.7877  -34.3788  -37.3891 C.3       8 UNK        -0.1912 
     52 C          21.1961  -32.5486  -38.1032 C.2       8 UNK         0.5038 
     53 O          20.5883  -32.2922  -37.0625 O.2       8 UNK        -0.5046 
     54 N          20.6398  -32.5057  -39.3198 N.am      9 UNK        -0.4200 
     55 CA         19.2741  -32.0545  -39.6197 C.3       9 UNK         0.0839 
     56 C          19.0233  -30.5562  -39.2869 C.2       9 UNK         0.5513 
     57 N          17.7767  -30.1849  -39.0269 N.am      9 UNK        -0.7519 
     58 O          19.9301  -29.7281  -39.2906 O.2       9 UNK        -0.4960 
     59 C59        18.8699  -32.4076  -41.0768 C.3       10 UNK        -0.0876 
     60 S60        20.0495  -31.8093  -42.3359 S.3       10 UNK        -0.2414 
     61 C61        19.4318  -32.6363  -43.8347 C.3       10 UNK         0.0169 
     62 H62        17.6950  -29.4319  -41.8464 H         1 UNK         0.0903 
     63 H63        18.8238  -29.3258  -43.1969 H         1 UNK         0.0903 
     64 H64        19.0213  -28.2675  -41.7993 H         1 UNK         0.0903 
     65 H65        17.3930  -28.7286  -44.8625 H         1 UNK         0.3096 
     66 H66        15.3188  -26.7557  -44.5087 H         1 UNK         0.1121 
     67 H67        16.2204  -27.9913  -47.1525 H         1 UNK         0.0849 
     68 H68        14.6960  -27.2525  -46.7824 H         1 UNK         0.0849 
     69 H69        15.4017  -31.6232  -46.7318 H         1 UNK         0.0865 
     70 H70        15.7984  -30.3665  -47.8670 H         1 UNK         0.0865 
     71 H71        16.9158  -32.1511  -44.8103 H         1 UNK         0.1346 
     72 H72        21.0035  -30.9256  -45.2380 H         1 UNK         0.1412 
     73 H73        17.9954  -29.2437  -47.7789 H         1 UNK         0.1426 
     74 H74        20.5126  -29.1921  -48.3438 H         1 UNK         0.0716 
     75 H75        21.6586  -29.5019  -47.0652 H         1 UNK         0.0716 
     76 H76        22.0689  -27.9636  -45.0167 H         1 UNK         0.0695 
     77 H77        20.3961  -28.1066  -44.5041 H         1 UNK         0.0695 
     78 H78        21.9046  -25.4661  -44.9293 H         1 UNK         0.0983 
     79 H79        19.2011  -25.8185  -43.7167 H         1 UNK         0.3095 
     80 H80        18.0894  -23.3037  -43.7460 H         1 UNK         0.0454 
     81 H81        17.7450  -23.0884  -46.7826 H         1 UNK         0.0851 
     82 H82        18.2657  -21.8235  -45.6854 H         1 UNK         0.0851 
     83 H83        16.6205  -22.4289  -45.5947 H         1 UNK         0.0851 
     84 H84        16.8976  -25.1776  -43.7064 H         1 UNK         0.2976 
     85 H85        21.6343  -28.1202  -42.8961 H         1 UNK         0.3116 
     86 H86        22.2443  -28.6927  -40.8665 H         1 UNK         0.0646 
     87 H87        20.4989  -27.0106  -40.0574 H         1 UNK         0.0847 
     88 H88        21.7962  -25.8358  -39.8469 H         1 UNK         0.0847 
     89 H89        21.7820  -27.3241  -38.9125 H         1 UNK         0.0847 
     90 H90        23.8226  -27.8733  -38.9483 H         1 UNK         0.3040 
     91 H91        25.8460  -27.5656  -38.1743 H         1 UNK         0.1015 
     92 H92        26.3959  -25.6751  -40.5231 H         1 UNK         0.0786 
     93 H93        27.3609  -25.8251  -39.0646 H         1 UNK         0.0786 
     94 H94        25.7161  -25.2187  -38.9630 H         1 UNK         0.0786 
     95 H95        26.1161  -27.9501  -41.6968 H         1 UNK         0.3172 
     96 H96        28.4511  -29.7419  -41.5531 H         1 UNK         0.0595 
     97 H97        26.6312  -28.9425  -43.8925 H         1 UNK         0.0839 
     98 H98        28.1301  -29.8524  -44.0265 H         1 UNK         0.0839 
     99 H99        28.1695  -28.1847  -43.4796 H         1 UNK         0.0839 
    100 H100       25.1045  -30.0803  -41.0487 H         1 UNK         0.2998 
    101 H101       25.2292  -32.9974  -41.1052 H         1 UNK         0.0822 
    102 H102       24.2185  -32.4375  -43.3353 H         1 UNK         0.0787 
    103 H103       22.9942  -33.1118  -42.2730 H         1 UNK         0.0787 
    104 H104       23.0483  -31.3755  -42.5577 H         1 UNK         0.0787 
    105 H105       23.5541  -33.8782  -39.7238 H         1 UNK         0.3055 
    106 H106       23.1677  -32.2668  -37.3494 H         1 UNK         0.1106 
    107 H107       22.3118  -35.1394  -38.0093 H         1 UNK         0.0828 
    108 H108       22.3071  -34.4108  -36.4101 H         1 UNK         0.0828 
    109 H109       23.8293  -34.6654  -37.2434 H         1 UNK         0.0828 
    110 H110       21.2251  -32.6899  -40.1201 H         1 UNK         0.2931 
    111 H111       18.6184  -32.6280  -38.9612 H         1 UNK         0.0412 
    112 H112       17.0221  -30.8532  -39.0153 H         1 UNK         0.3472 
    113 H113       17.5915  -29.2173  -38.8145 H         1 UNK         0.3472 
    114 H114       17.8743  -32.0268  -41.3121 H         1 UNK         0.0970 
    115 H115       18.7986  -33.4925  -41.1687 H         1 UNK         0.0970 
    116 H116       20.2261  -33.2680  -44.2347 H         1 UNK         0.0612 
    117 H117       18.6085  -33.3074  -43.5861 H         1 UNK         0.0612 
@<TRIPOS>BOND
     1    1    2 1    
     2    1   62 1    
     3    1   63 1    
     4    1   64 1    
     5    2    3 2    
     6    2    4 am   BACKBONE|DICT|INTERRES
     7    4    5 1    
     8    4   65 1    
     9    5    6 1    
    10    5   25 1    
    11    5   66 1    
    12    6    7 1    
    13    6   67 1    
    14    6   68 1    
    15    7    8 1    
    16    8    9 1    
    17    8   69 1    
    18    8   70 1    
    19    9   10 ar   
    20    9   14 ar   
    21   10   11 ar   
    22   10   71 1    
    23   11   12 ar   
    24   11   61 1    
    25   12   13 ar   
    26   12   72 1    
    27   13   14 ar   
    28   13   15 1    
    29   14   73 1    
    30   15   16 1    
    31   15   74 1    
    32   15   75 1    
    33   16   17 1    
    34   17   18 1    
    35   17   76 1    
    36   17   77 1    
    37   18   19 1    
    38   18   27 1    
    39   18   78 1    
    40   19   20 am   BACKBONE|DICT|INTERRES
    41   19   79 1    
    42   20   21 2    
    43   20   22 1    
    44   22   23 1    
    45   22   24 1    
    46   22   80 1    
    47   23   81 1    
    48   23   82 1    
    49   23   83 1    
    50   24   25 am   BACKBONE|DICT|INTERRES
    51   24   84 1    
    52   25   26 2    
    53   27   28 2    
    54   27   29 am   BACKBONE|DICT|INTERRES
    55   29   30 1    
    56   29   85 1    
    57   30   31 1    
    58   30   32 1    
    59   30   86 1    
    60   31   87 1    
    61   31   88 1    
    62   31   89 1    
    63   32   33 2    
    64   32   34 am   BACKBONE|DICT|INTERRES
    65   34   35 1    
    66   34   90 1    
    67   35   36 1    
    68   35   37 1    
    69   35   91 1    
    70   36   92 1    
    71   36   93 1    
    72   36   94 1    
    73   37   38 2    
    74   37   39 am   BACKBONE|DICT|INTERRES
    75   39   40 1    
    76   39   95 1    
    77   40   41 1    
    78   40   42 1    
    79   40   96 1    
    80   41   97 1    
    81   41   98 1    
    82   41   99 1    
    83   42   43 2    
    84   42   44 am   BACKBONE|DICT|INTERRES
    85   44   45 1    
    86   44  100 1    
    87   45   46 1    
    88   45   47 1    
    89   45  101 1    
    90   46  102 1    
    91   46  103 1    
    92   46  104 1    
    93   47   48 2    
    94   47   49 am   BACKBONE|DICT|INTERRES
    95   49   50 1    
    96   49  105 1    
    97   50   51 1    
    98   50   52 1    
    99   50  106 1    
   100   51  107 1    
   101   51  108 1    
   102   51  109 1    
   103   52   53 2    
   104   52   54 am   BACKBONE|DICT|INTERRES
   105   54   55 1    
   106   54  110 1    
   107   55   56 1    
   108   55   59 1    
   109   55  111 1    
   110   56   57 am   BACKBONE|DICT|INTERRES
   111   56   58 2    
   112   57  112 1    
   113   57  113 1    
   114   59   60 1    
   115   59  114 1    
   116   59  115 1    
   117   60   61 1    
   118   61  116 1    
   119   61  117 1    
@<TRIPOS>SUBSTRUCTURE
     1 UNK         1 GROUP             0       ****    0 ROOT    
