@<TRIPOS>MOLECULE
3R8
117   119    1
SMALL
USER_CHARGES


@<TRIPOS>ATOM
      1 CA         12.5655  -23.5333  -42.9011 C.3       0 UNK        -0.2013 
      2 C          13.4575  -23.6959  -44.1230 C.2       0 UNK         0.4866 
      3 O          13.6993  -22.7231  -44.8388 O.2       0 UNK        -0.5176 
      4 N          13.9396  -24.9194  -44.3724 N.am      1 UNK        -0.4884 
      5 CA         14.8743  -25.2519  -45.4529 C.3       1 UNK         0.0853 
      6 C6         14.7645  -26.7473  -45.8504 C.3       10 UNK        -0.0849 
      7 S7         15.0683  -27.9157  -44.4789 S.3       10 UNK        -0.2776 
      8 C8         16.6217  -28.6836  -45.0352 C.3       10 UNK         0.0316 
      9 C9         17.4492  -29.2244  -43.8795 C.ar      10 UNK        -0.0863 
     10 C10        17.9239  -30.5403  -43.9049 C.ar      10 UNK        -0.1009 
     11 C11        18.7700  -31.0060  -42.8938 C.ar      10 UNK        -0.0712 
     12 C12        19.1354  -30.1504  -41.8528 C.ar      10 UNK        -0.0894 
     13 C13        18.6716  -28.8339  -41.8194 C.ar      10 UNK        -0.0745 
     14 C14        17.8120  -28.3821  -42.8232 C.ar      10 UNK        -0.0972 
     15 C15        19.1533  -27.8867  -40.7336 C.3       10 UNK         0.0209 
     16 S16        20.7851  -27.1958  -41.1570 S.3       10 UNK        -0.2568 
     17 C17        20.3673  -25.9867  -42.4623 C.3       10 UNK        -0.0983 
     18 CA         20.4301  -26.5497  -43.9165 C.3       3 UNK         0.0876 
     19 N          19.5014  -25.8610  -44.8254 N.am      3 UNK        -0.4424 
     20 C          19.5021  -24.5505  -45.1067 C.2       2 UNK         0.4918 
     21 O          20.2682  -23.7334  -44.5935 O.2       2 UNK        -0.4875 
     22 CA         18.4787  -24.0498  -46.1445 C.3       2 UNK         0.0481 
     23 CB         19.0868  -24.1125  -47.5552 C.3       2 UNK        -0.1831 
     24 N          17.1677  -24.7158  -46.1541 N.am      2 UNK        -0.4498 
     25 C          16.3170  -24.7954  -45.1184 C.2       1 UNK         0.5027 
     26 O          16.6204  -24.4987  -43.9594 O.2       1 UNK        -0.4969 
     27 C          21.8595  -26.6471  -44.5010 C.2       3 UNK         0.5005 
     28 O          22.0845  -26.3159  -45.6690 O.2       3 UNK        -0.5279 
     29 N          22.7934  -27.1564  -43.6936 N.am      4 UNK        -0.4463 
     30 CA         24.1892  -27.4086  -44.0323 C.3       4 UNK         0.0283 
     31 CB         24.3036  -28.7100  -44.8505 C.3       4 UNK        -0.1875 
     32 C          24.9917  -27.5133  -42.7320 C.2       4 UNK         0.4949 
     33 O          24.4078  -27.7289  -41.6668 O.2       4 UNK        -0.5039 
     34 N          26.3232  -27.4153  -42.8469 N.am      5 UNK        -0.4663 
     35 CA         27.2835  -27.4906  -41.7349 C.3       5 UNK         0.0242 
     36 CB         28.6950  -27.2017  -42.2718 C.3       5 UNK        -0.1982 
     37 C          27.2674  -28.8198  -40.9533 C.2       5 UNK         0.5017 
     38 O          27.7224  -28.8507  -39.8097 O.2       5 UNK        -0.5012 
     39 N          26.7262  -29.8803  -41.5696 N.am      6 UNK        -0.4439 
     40 CA         26.4647  -31.1810  -40.9503 C.3       6 UNK         0.0297 
     41 CB         26.0895  -32.1909  -42.0476 C.3       6 UNK        -0.2006 
     42 C          25.3713  -31.1460  -39.8641 C.2       6 UNK         0.4892 
     43 O          25.3376  -32.0585  -39.0380 O.2       6 UNK        -0.5089 
     44 N          24.4916  -30.1297  -39.8944 N.am      7 UNK        -0.4243 
     45 CA         23.3896  -29.8179  -38.9685 C.3       7 UNK         0.0196 
     46 CB         23.9206  -29.5275  -37.5518 C.3       7 UNK        -0.2007 
     47 C          22.2421  -30.8450  -38.9238 C.2       7 UNK         0.5020 
     48 O          21.0799  -30.4436  -38.9097 O.2       7 UNK        -0.5147 
     49 N          22.5755  -32.1382  -38.8973 N.am      8 UNK        -0.4734 
     50 CA         21.6391  -33.2661  -38.9003 C.3       8 UNK         0.0238 
     51 CB         22.0192  -34.2173  -37.7523 C.3       8 UNK        -0.1912 
     52 C          21.6312  -34.0186  -40.2433 C.2       8 UNK         0.5038 
     53 O          20.8403  -34.9499  -40.3966 O.2       8 UNK        -0.5046 
     54 N          22.5083  -33.6221  -41.1775 N.am      9 UNK        -0.4200 
     55 CA         22.7267  -34.2443  -42.4978 C.3       9 UNK         0.0839 
     56 C          23.3338  -35.6804  -42.4432 C.2       9 UNK         0.5513 
     57 N          23.9440  -36.0972  -41.3399 N.am      9 UNK        -0.7519 
     58 O          23.2837  -36.4195  -43.4232 O.2       9 UNK        -0.4960 
     59 C59        21.4923  -34.1474  -43.4417 C.3       10 UNK        -0.0876 
     60 S60        20.9686  -32.4241  -43.7303 S.3       10 UNK        -0.2414 
     61 C61        19.3315  -32.4165  -42.9394 C.3       10 UNK         0.0169 
     62 H62        11.5860  -23.1593  -43.1981 H         1 UNK         0.0903 
     63 H63        12.4226  -24.4755  -42.3723 H         1 UNK         0.0903 
     64 H64        13.0076  -22.8189  -42.2071 H         1 UNK         0.0903 
     65 H65        13.7414  -25.6774  -43.7339 H         1 UNK         0.3096 
     66 H66        14.5715  -24.6709  -46.3276 H         1 UNK         0.1121 
     67 H67        13.7559  -26.9413  -46.2193 H         1 UNK         0.0849 
     68 H68        15.4173  -26.9724  -46.6954 H         1 UNK         0.0849 
     69 H69        16.3861  -29.4707  -45.7534 H         1 UNK         0.0865 
     70 H70        17.2294  -27.9521  -45.5678 H         1 UNK         0.0865 
     71 H71        17.6636  -31.1943  -44.7261 H         1 UNK         0.1346 
     72 H72        19.8137  -30.5000  -41.0881 H         1 UNK         0.1412 
     73 H73        17.4669  -27.3564  -42.8117 H         1 UNK         0.1426 
     74 H74        18.4355  -27.0818  -40.5682 H         1 UNK         0.0716 
     75 H75        19.2337  -28.4252  -39.7881 H         1 UNK         0.0716 
     76 H76        19.3647  -25.6112  -42.2511 H         1 UNK         0.0695 
     77 H77        21.0246  -25.1220  -42.3547 H         1 UNK         0.0695 
     78 H78        20.0871  -27.5829  -43.9003 H         1 UNK         0.0983 
     79 H79        18.8611  -26.4508  -45.3332 H         1 UNK         0.3095 
     80 H80        18.2887  -22.9994  -45.9144 H         1 UNK         0.0454 
     81 H81        19.2542  -25.1409  -47.8776 H         1 UNK         0.0851 
     82 H82        18.4438  -23.6282  -48.2901 H         1 UNK         0.0851 
     83 H83        20.0509  -23.6025  -47.5883 H         1 UNK         0.0851 
     84 H84        16.8333  -24.9992  -47.0643 H         1 UNK         0.2976 
     85 H85        22.5552  -27.3645  -42.7278 H         1 UNK         0.3116 
     86 H86        24.5759  -26.5677  -44.6118 H         1 UNK         0.0646 
     87 H87        25.3403  -28.9267  -45.1106 H         1 UNK         0.0847 
     88 H88        23.7493  -28.6417  -45.7867 H         1 UNK         0.0847 
     89 H89        23.9171  -29.5679  -44.2983 H         1 UNK         0.0847 
     90 H90        26.7154  -27.2496  -43.7636 H         1 UNK         0.3040 
     91 H91        27.0200  -26.7054  -41.0226 H         1 UNK         0.1015 
     92 H92        28.7506  -26.2166  -42.7356 H         1 UNK         0.0786 
     93 H93        29.0048  -27.9410  -43.0116 H         1 UNK         0.0786 
     94 H94        29.4312  -27.2187  -41.4666 H         1 UNK         0.0786 
     95 H95        26.4030  -29.7517  -42.5169 H         1 UNK         0.3172 
     96 H96        27.3870  -31.5188  -40.4731 H         1 UNK         0.0595 
     97 H97        25.8963  -33.1778  -41.6241 H         1 UNK         0.0839 
     98 H98        26.8961  -32.3070  -42.7719 H         1 UNK         0.0839 
     99 H99        25.1941  -31.8844  -42.5896 H         1 UNK         0.0839 
    100 H100       24.6057  -29.4392  -40.6309 H         1 UNK         0.2998 
    101 H101       22.9540  -28.8914  -39.3477 H         1 UNK         0.0822 
    102 H102       24.6684  -28.7345  -37.5656 H         1 UNK         0.0787 
    103 H103       23.1141  -29.2019  -36.8935 H         1 UNK         0.0787 
    104 H104       24.3745  -30.4085  -37.0969 H         1 UNK         0.0787 
    105 H105       23.5715  -32.3541  -38.8671 H         1 UNK         0.3055 
    106 H106       20.6193  -32.9134  -38.7303 H         1 UNK         0.1106 
    107 H107       21.3325  -35.0633  -37.6978 H         1 UNK         0.0828 
    108 H108       23.0252  -34.6200  -37.8765 H         1 UNK         0.0828 
    109 H109       21.9791  -33.7088  -36.7889 H         1 UNK         0.0828 
    110 H110       23.0992  -32.8354  -40.9591 H         1 UNK         0.2931 
    111 H111       23.5140  -33.6481  -42.9591 H         1 UNK         0.0412 
    112 H112       24.3429  -37.0227  -41.3176 H         1 UNK         0.3472 
    113 H113       24.0057  -35.5016  -40.5304 H         1 UNK         0.3472 
    114 H114       20.6607  -34.7382  -43.0549 H         1 UNK         0.0970 
    115 H115       21.7266  -34.5720  -44.4194 H         1 UNK         0.0970 
    116 H116       19.4094  -32.8157  -41.9273 H         1 UNK         0.0612 
    117 H117       18.6594  -33.0792  -43.4868 H         1 UNK         0.0612 
@<TRIPOS>BOND
     1    1    2 1    
     2    1   62 1    
     3    1   63 1    
     4    1   64 1    
     5    2    3 2    
     6    2    4 am   BACKBONE|DICT|INTERRES
     7    4    5 1    
     8    4   65 1    
     9    5    6 1    
    10    5   25 1    
    11    5   66 1    
    12    6    7 1    
    13    6   67 1    
    14    6   68 1    
    15    7    8 1    
    16    8    9 1    
    17    8   69 1    
    18    8   70 1    
    19    9   10 ar   
    20    9   14 ar   
    21   10   11 ar   
    22   10   71 1    
    23   11   12 ar   
    24   11   61 1    
    25   12   13 ar   
    26   12   72 1    
    27   13   14 ar   
    28   13   15 1    
    29   14   73 1    
    30   15   16 1    
    31   15   74 1    
    32   15   75 1    
    33   16   17 1    
    34   17   18 1    
    35   17   76 1    
    36   17   77 1    
    37   18   19 1    
    38   18   27 1    
    39   18   78 1    
    40   19   20 am   BACKBONE|DICT|INTERRES
    41   19   79 1    
    42   20   21 2    
    43   20   22 1    
    44   22   23 1    
    45   22   24 1    
    46   22   80 1    
    47   23   81 1    
    48   23   82 1    
    49   23   83 1    
    50   24   25 am   BACKBONE|DICT|INTERRES
    51   24   84 1    
    52   25   26 2    
    53   27   28 2    
    54   27   29 am   BACKBONE|DICT|INTERRES
    55   29   30 1    
    56   29   85 1    
    57   30   31 1    
    58   30   32 1    
    59   30   86 1    
    60   31   87 1    
    61   31   88 1    
    62   31   89 1    
    63   32   33 2    
    64   32   34 am   BACKBONE|DICT|INTERRES
    65   34   35 1    
    66   34   90 1    
    67   35   36 1    
    68   35   37 1    
    69   35   91 1    
    70   36   92 1    
    71   36   93 1    
    72   36   94 1    
    73   37   38 2    
    74   37   39 am   BACKBONE|DICT|INTERRES
    75   39   40 1    
    76   39   95 1    
    77   40   41 1    
    78   40   42 1    
    79   40   96 1    
    80   41   97 1    
    81   41   98 1    
    82   41   99 1    
    83   42   43 2    
    84   42   44 am   BACKBONE|DICT|INTERRES
    85   44   45 1    
    86   44  100 1    
    87   45   46 1    
    88   45   47 1    
    89   45  101 1    
    90   46  102 1    
    91   46  103 1    
    92   46  104 1    
    93   47   48 2    
    94   47   49 am   BACKBONE|DICT|INTERRES
    95   49   50 1    
    96   49  105 1    
    97   50   51 1    
    98   50   52 1    
    99   50  106 1    
   100   51  107 1    
   101   51  108 1    
   102   51  109 1    
   103   52   53 2    
   104   52   54 am   BACKBONE|DICT|INTERRES
   105   54   55 1    
   106   54  110 1    
   107   55   56 1    
   108   55   59 1    
   109   55  111 1    
   110   56   57 am   BACKBONE|DICT|INTERRES
   111   56   58 2    
   112   57  112 1    
   113   57  113 1    
   114   59   60 1    
   115   59  114 1    
   116   59  115 1    
   117   60   61 1    
   118   61  116 1    
   119   61  117 1    
@<TRIPOS>SUBSTRUCTURE
     1 UNK         1 GROUP             0       ****    0 ROOT    
