@<TRIPOS>MOLECULE
3R8
117   119    1
SMALL
USER_CHARGES


@<TRIPOS>ATOM
      1 CA         15.3861  -28.4508  -39.1372 C.3       0 UNK        -0.2013 
      2 C          15.4164  -27.4023  -40.2384 C.2       0 UNK         0.4866 
      3 O          15.0088  -26.2631  -40.0116 O.2       0 UNK        -0.5176 
      4 N          15.8944  -27.7769  -41.4313 N.am      1 UNK        -0.4884 
      5 CA         15.9985  -26.8995  -42.6069 C.3       1 UNK         0.0853 
      6 C6         16.0010  -27.7152  -43.9251 C.3       10 UNK        -0.0849 
      7 S7         17.3466  -28.9415  -43.9878 S.3       10 UNK        -0.2776 
      8 C8         17.2346  -29.5441  -45.6992 C.3       10 UNK         0.0316 
      9 C9         18.4513  -30.4071  -45.9706 C.ar      10 UNK        -0.0863 
     10 C10        18.4722  -31.7371  -45.5494 C.ar      10 UNK        -0.1009 
     11 C11        19.6547  -32.4773  -45.6115 C.ar      10 UNK        -0.0712 
     12 C12        20.8141  -31.8856  -46.1219 C.ar      10 UNK        -0.0894 
     13 C13        20.8040  -30.5543  -46.5518 C.ar      10 UNK        -0.0745 
     14 C14        19.6025  -29.8364  -46.5156 C.ar      10 UNK        -0.0972 
     15 C15        22.1136  -29.8985  -46.9882 C.3       10 UNK         0.0209 
     16 S16        22.2686  -28.1269  -46.5531 S.3       10 UNK        -0.2568 
     17 C17        21.8913  -28.0948  -44.7639 C.3       10 UNK        -0.0983 
     18 CA         21.7931  -26.6434  -44.2232 C.3       3 UNK         0.0876 
     19 N          20.8312  -26.5395  -43.1197 N.am      3 UNK        -0.4424 
     20 C          20.3110  -25.3902  -42.6698 C.2       2 UNK         0.4918 
     21 O          20.5106  -24.2947  -43.1977 O.2       2 UNK        -0.4875 
     22 CA         19.4254  -25.5019  -41.4142 C.3       2 UNK         0.0481 
     23 CB         19.1263  -24.1336  -40.7663 C.3       2 UNK        -0.1831 
     24 N          18.1836  -26.2411  -41.6714 N.am      2 UNK        -0.4498 
     25 C          17.1997  -25.9278  -42.5319 C.2       1 UNK         0.5027 
     26 O          17.1985  -24.9247  -43.2469 O.2       1 UNK        -0.4969 
     27 C          23.1879  -26.1187  -43.8238 C.2       3 UNK         0.5005 
     28 O          23.9352  -25.6568  -44.6873 O.2       3 UNK        -0.5279 
     29 N          23.5302  -26.2431  -42.5313 N.am      4 UNK        -0.4463 
     30 CA         24.8108  -25.9293  -41.8818 C.3       4 UNK         0.0283 
     31 CB         25.2498  -24.4696  -42.1079 C.3       4 UNK        -0.1875 
     32 C          25.9214  -26.9258  -42.2499 C.2       4 UNK         0.4949 
     33 O          26.5576  -27.4709  -41.3494 O.2       4 UNK        -0.5039 
     34 N          26.0789  -27.2168  -43.5482 N.am      5 UNK        -0.4663 
     35 CA         26.9777  -28.2425  -44.0927 C.3       5 UNK         0.0242 
     36 CB         26.9681  -28.1531  -45.6271 C.3       5 UNK        -0.1982 
     37 C          26.6252  -29.6716  -43.6363 C.2       5 UNK         0.5017 
     38 O          27.5226  -30.5037  -43.5035 O.2       5 UNK        -0.5012 
     39 N          25.3326  -29.9086  -43.3807 N.am      6 UNK        -0.4439 
     40 CA         24.7787  -31.1301  -42.7916 C.3       6 UNK         0.0297 
     41 CB         23.8214  -31.7836  -43.8061 C.3       6 UNK        -0.2006 
     42 C          24.0678  -30.8235  -41.4586 C.2       6 UNK         0.4892 
     43 O          23.2029  -31.5965  -41.0444 O.2       6 UNK        -0.5089 
     44 N          24.4170  -29.6919  -40.8221 N.am      7 UNK        -0.4243 
     45 CA         23.7476  -29.0924  -39.6619 C.3       7 UNK         0.0196 
     46 CB         23.9815  -29.9436  -38.3923 C.3       7 UNK        -0.2007 
     47 C          22.2662  -28.8025  -39.9789 C.2       7 UNK         0.5020 
     48 O          21.9850  -28.1878  -41.0104 O.2       7 UNK        -0.5147 
     49 N          21.3500  -29.2537  -39.1151 N.am      8 UNK        -0.4734 
     50 CA         19.9030  -29.2152  -39.3468 C.3       8 UNK         0.0238 
     51 CB         19.1871  -29.1432  -37.9882 C.3       8 UNK        -0.1912 
     52 C          19.3901  -30.4177  -40.1636 C.2       8 UNK         0.5038 
     53 O          18.2484  -30.3760  -40.6222 O.2       8 UNK        -0.5046 
     54 N          20.2231  -31.4594  -40.3070 N.am      9 UNK        -0.4200 
     55 CA         19.9352  -32.7416  -40.9703 C.3       9 UNK         0.0839 
     56 C          18.8233  -33.6021  -40.2932 C.2       9 UNK         0.5513 
     57 N          18.5101  -33.3838  -39.0212 N.am      9 UNK        -0.7519 
     58 O          18.2516  -34.4969  -40.9108 O.2       9 UNK        -0.4960 
     59 C59        19.7616  -32.5865  -42.5081 C.3       10 UNK        -0.0876 
     60 S60        20.5762  -33.9324  -43.4415 S.3       10 UNK        -0.2414 
     61 C61        19.6956  -33.8844  -45.0365 C.3       10 UNK         0.0169 
     62 H62        15.8767  -28.0699  -38.2421 H         1 UNK         0.0903 
     63 H63        14.3553  -28.6943  -38.8814 H         1 UNK         0.0903 
     64 H64        15.8882  -29.3708  -39.4367 H         1 UNK         0.0903 
     65 H65        16.2327  -28.7219  -41.5671 H         1 UNK         0.3096 
     66 H66        15.1080  -26.2664  -42.6266 H         1 UNK         0.1121 
     67 H67        15.0519  -28.2426  -44.0330 H         1 UNK         0.0849 
     68 H68        16.0748  -27.0520  -44.7894 H         1 UNK         0.0849 
     69 H69        16.3155  -30.1160  -45.8363 H         1 UNK         0.0865 
     70 H70        17.1953  -28.7029  -46.3931 H         1 UNK         0.0865 
     71 H71        17.5869  -32.1706  -45.1043 H         1 UNK         0.1346 
     72 H72        21.7364  -32.4505  -46.1327 H         1 UNK         0.1412 
     73 H73        19.5828  -28.8002  -46.8233 H         1 UNK         0.1426 
     74 H74        22.9617  -30.4251  -46.5481 H         1 UNK         0.0716 
     75 H75        22.2124  -30.0025  -48.0692 H         1 UNK         0.0716 
     76 H76        20.9396  -28.6012  -44.6063 H         1 UNK         0.0695 
     77 H77        22.6263  -28.6906  -44.2204 H         1 UNK         0.0695 
     78 H78        21.4233  -25.9957  -45.0216 H         1 UNK         0.0983 
     79 H79        20.6718  -27.3853  -42.5869 H         1 UNK         0.3095 
     80 H80        19.9907  -26.0833  -40.6849 H         1 UNK         0.0454 
     81 H81        18.5721  -23.4750  -41.4356 H         1 UNK         0.0851 
     82 H82        18.5443  -24.2472  -39.8518 H         1 UNK         0.0851 
     83 H83        20.0508  -23.6197  -40.5006 H         1 UNK         0.0851 
     84 H84        18.0627  -27.1007  -41.1561 H         1 UNK         0.2976 
     85 H85        22.8598  -26.7240  -41.9354 H         1 UNK         0.3116 
     86 H86        24.6264  -26.0437  -40.8126 H         1 UNK         0.0646 
     87 H87        26.1250  -24.2324  -41.5018 H         1 UNK         0.0847 
     88 H88        24.4619  -23.7709  -41.8270 H         1 UNK         0.0847 
     89 H89        25.5178  -24.2728  -43.1461 H         1 UNK         0.0847 
     90 H90        25.4970  -26.7065  -44.2086 H         1 UNK         0.3040 
     91 H91        27.9875  -28.0257  -43.7370 H         1 UNK         0.1015 
     92 H92        27.3003  -27.1727  -45.9692 H         1 UNK         0.0786 
     93 H93        25.9723  -28.3310  -46.0361 H         1 UNK         0.0786 
     94 H94        27.6392  -28.8927  -46.0665 H         1 UNK         0.0786 
     95 H95        24.6842  -29.1493  -43.5277 H         1 UNK         0.3172 
     96 H96        25.5769  -31.8397  -42.5658 H         1 UNK         0.0595 
     97 H97        24.3135  -31.9612  -44.7622 H         1 UNK         0.0839 
     98 H98        23.4679  -32.7492  -43.4427 H         1 UNK         0.0839 
     99 H99        22.9409  -31.1663  -43.9881 H         1 UNK         0.0839 
    100 H100       25.1751  -29.1443  -41.2106 H         1 UNK         0.2998 
    101 H101       24.2186  -28.1223  -39.4990 H         1 UNK         0.0822 
    102 H102       25.0470  -30.0990  -38.2221 H         1 UNK         0.0787 
    103 H103       23.5912  -29.4468  -37.5031 H         1 UNK         0.0787 
    104 H104       23.5164  -30.9278  -38.4590 H         1 UNK         0.0787 
    105 H105       21.6681  -29.7318  -38.2838 H         1 UNK         0.3055 
    106 H106       19.6516  -28.3164  -39.9111 H         1 UNK         0.1106 
    107 H107       18.1051  -29.1126  -38.1149 H         1 UNK         0.0828 
    108 H108       19.4147  -30.0072  -37.3629 H         1 UNK         0.0828 
    109 H109       19.4716  -28.2461  -37.4379 H         1 UNK         0.0828 
    110 H110       21.1660  -31.3713  -39.9531 H         1 UNK         0.2931 
    111 H111       20.8491  -33.3118  -40.8001 H         1 UNK         0.0412 
    112 H112       18.9774  -32.6638  -38.4949 H         1 UNK         0.3472 
    113 H113       17.7972  -33.9475  -38.5851 H         1 UNK         0.3472 
    114 H114       20.2137  -31.6538  -42.8505 H         1 UNK         0.0970 
    115 H115       18.7063  -32.5171  -42.7776 H         1 UNK         0.0970 
    116 H116       20.1927  -34.5540  -45.7397 H         1 UNK         0.0612 
    117 H117       18.6867  -34.2758  -44.8964 H         1 UNK         0.0612 
@<TRIPOS>BOND
     1    1    2 1    
     2    1   62 1    
     3    1   63 1    
     4    1   64 1    
     5    2    3 2    
     6    2    4 am   BACKBONE|DICT|INTERRES
     7    4    5 1    
     8    4   65 1    
     9    5    6 1    
    10    5   25 1    
    11    5   66 1    
    12    6    7 1    
    13    6   67 1    
    14    6   68 1    
    15    7    8 1    
    16    8    9 1    
    17    8   69 1    
    18    8   70 1    
    19    9   10 ar   
    20    9   14 ar   
    21   10   11 ar   
    22   10   71 1    
    23   11   12 ar   
    24   11   61 1    
    25   12   13 ar   
    26   12   72 1    
    27   13   14 ar   
    28   13   15 1    
    29   14   73 1    
    30   15   16 1    
    31   15   74 1    
    32   15   75 1    
    33   16   17 1    
    34   17   18 1    
    35   17   76 1    
    36   17   77 1    
    37   18   19 1    
    38   18   27 1    
    39   18   78 1    
    40   19   20 am   BACKBONE|DICT|INTERRES
    41   19   79 1    
    42   20   21 2    
    43   20   22 1    
    44   22   23 1    
    45   22   24 1    
    46   22   80 1    
    47   23   81 1    
    48   23   82 1    
    49   23   83 1    
    50   24   25 am   BACKBONE|DICT|INTERRES
    51   24   84 1    
    52   25   26 2    
    53   27   28 2    
    54   27   29 am   BACKBONE|DICT|INTERRES
    55   29   30 1    
    56   29   85 1    
    57   30   31 1    
    58   30   32 1    
    59   30   86 1    
    60   31   87 1    
    61   31   88 1    
    62   31   89 1    
    63   32   33 2    
    64   32   34 am   BACKBONE|DICT|INTERRES
    65   34   35 1    
    66   34   90 1    
    67   35   36 1    
    68   35   37 1    
    69   35   91 1    
    70   36   92 1    
    71   36   93 1    
    72   36   94 1    
    73   37   38 2    
    74   37   39 am   BACKBONE|DICT|INTERRES
    75   39   40 1    
    76   39   95 1    
    77   40   41 1    
    78   40   42 1    
    79   40   96 1    
    80   41   97 1    
    81   41   98 1    
    82   41   99 1    
    83   42   43 2    
    84   42   44 am   BACKBONE|DICT|INTERRES
    85   44   45 1    
    86   44  100 1    
    87   45   46 1    
    88   45   47 1    
    89   45  101 1    
    90   46  102 1    
    91   46  103 1    
    92   46  104 1    
    93   47   48 2    
    94   47   49 am   BACKBONE|DICT|INTERRES
    95   49   50 1    
    96   49  105 1    
    97   50   51 1    
    98   50   52 1    
    99   50  106 1    
   100   51  107 1    
   101   51  108 1    
   102   51  109 1    
   103   52   53 2    
   104   52   54 am   BACKBONE|DICT|INTERRES
   105   54   55 1    
   106   54  110 1    
   107   55   56 1    
   108   55   59 1    
   109   55  111 1    
   110   56   57 am   BACKBONE|DICT|INTERRES
   111   56   58 2    
   112   57  112 1    
   113   57  113 1    
   114   59   60 1    
   115   59  114 1    
   116   59  115 1    
   117   60   61 1    
   118   61  116 1    
   119   61  117 1    
@<TRIPOS>SUBSTRUCTURE
     1 UNK         1 GROUP             0       ****    0 ROOT    
