@<TRIPOS>MOLECULE
3R8
117   119    1
SMALL
USER_CHARGES


@<TRIPOS>ATOM
      1 CA         12.9254  -25.2452  -44.2981 C.3       0 UNK        -0.2013 
      2 C          14.3651  -25.0845  -44.7632 C.2       0 UNK         0.4866 
      3 O          14.8007  -23.9638  -45.0305 O.2       0 UNK        -0.5176 
      4 N          15.1037  -26.1958  -44.8709 N.am      1 UNK        -0.4884 
      5 CA         16.5191  -26.2251  -45.2544 C.3       1 UNK         0.0853 
      6 C6         16.9761  -27.6524  -45.6335 C.3       10 UNK        -0.0849 
      7 S7         16.2304  -28.2281  -47.1987 S.3       10 UNK        -0.2776 
      8 C8         16.0540  -30.0293  -46.9233 C.3       10 UNK         0.0316 
      9 C9         17.2764  -30.6858  -46.2838 C.ar      10 UNK        -0.0863 
     10 C10        17.1016  -31.6195  -45.2578 C.ar      10 UNK        -0.1009 
     11 C11        18.2045  -32.1772  -44.6041 C.ar      10 UNK        -0.0712 
     12 C12        19.4950  -31.7950  -44.9826 C.ar      10 UNK        -0.0894 
     13 C13        19.6833  -30.8712  -46.0147 C.ar      10 UNK        -0.0745 
     14 C14        18.5740  -30.3468  -46.6822 C.ar      10 UNK        -0.0972 
     15 C15        21.0807  -30.3949  -46.3789 C.3       10 UNK         0.0209 
     16 S16        21.3699  -28.6908  -45.7997 S.3       10 UNK        -0.2568 
     17 C17        21.2792  -28.9268  -43.9949 C.3       10 UNK        -0.0983 
     18 CA         21.5526  -27.6259  -43.2046 C.3       3 UNK         0.0876 
     19 N          20.5405  -26.6017  -43.4801 N.am      3 UNK        -0.4424 
     20 C          20.6889  -25.2844  -43.2904 C.2       2 UNK         0.4918 
     21 O          21.7270  -24.7807  -42.8574 O.2       2 UNK        -0.4875 
     22 CA         19.5001  -24.3692  -43.6517 C.3       2 UNK         0.0481 
     23 CB         19.9785  -23.0651  -44.3162 C.3       2 UNK        -0.1831 
     24 N          18.5203  -25.0116  -44.5354 N.am      2 UNK        -0.4498 
     25 C          17.4167  -25.6570  -44.1346 C.2       1 UNK         0.5027 
     26 O          17.1239  -25.8464  -42.9515 O.2       1 UNK        -0.4969 
     27 C          21.6663  -27.8883  -41.6872 C.2       3 UNK         0.5005 
     28 O          21.1910  -28.9140  -41.1927 O.2       3 UNK        -0.5279 
     29 N          22.2814  -26.9403  -40.9747 N.am      4 UNK        -0.4463 
     30 CA         22.6988  -27.0491  -39.5815 C.3       4 UNK         0.0283 
     31 CB         22.1552  -25.8485  -38.7916 C.3       4 UNK        -0.1875 
     32 C          24.2306  -27.0588  -39.5681 C.2       4 UNK         0.4949 
     33 O          24.8443  -26.2863  -40.3094 O.2       4 UNK        -0.5039 
     34 N          24.8160  -27.9366  -38.7419 N.am      5 UNK        -0.4663 
     35 CA         26.2474  -28.2635  -38.6340 C.3       5 UNK         0.0242 
     36 CB         27.0888  -27.0484  -38.1917 C.3       5 UNK        -0.1982 
     37 C          26.8070  -28.9224  -39.9088 C.2       5 UNK         0.5017 
     38 O          27.1913  -30.0916  -39.8675 O.2       5 UNK        -0.5012 
     39 N          26.8023  -28.1819  -41.0227 N.am      6 UNK        -0.4439 
     40 CA         27.1015  -28.6783  -42.3629 C.3       6 UNK         0.0297 
     41 CB         27.4098  -27.4901  -43.2891 C.3       6 UNK        -0.2006 
     42 C          25.9022  -29.4898  -42.8734 C.2       6 UNK         0.4892 
     43 O          24.8360  -28.9104  -43.0901 O.2       6 UNK        -0.5089 
     44 N          26.0963  -30.8111  -43.0085 N.am      7 UNK        -0.4243 
     45 CA         25.0881  -31.8178  -43.3767 C.3       7 UNK         0.0196 
     46 CB         24.6639  -31.6444  -44.8517 C.3       7 UNK        -0.2007 
     47 C          23.8874  -31.8423  -42.4061 C.2       7 UNK         0.5020 
     48 O          22.7501  -31.9914  -42.8528 O.2       7 UNK        -0.5147 
     49 N          24.1869  -31.6663  -41.1075 N.am      8 UNK        -0.4734 
     50 CA         23.2745  -31.4233  -39.9829 C.3       8 UNK         0.0238 
     51 CB         24.0397  -31.6406  -38.6650 C.3       8 UNK        -0.1912 
     52 C          21.9778  -32.2533  -39.9943 C.2       8 UNK         0.5038 
     53 O          22.0112  -33.4422  -39.6677 O.2       8 UNK        -0.5046 
     54 N          20.8692  -31.6010  -40.3610 N.am      9 UNK        -0.4200 
     55 CA         19.5186  -32.1778  -40.3649 C.3       9 UNK         0.0839 
     56 C          18.8809  -32.2974  -38.9483 C.2       9 UNK         0.5513 
     57 N          19.3714  -31.5851  -37.9399 N.am      9 UNK        -0.7519 
     58 O          17.9414  -33.0633  -38.7523 O.2       9 UNK        -0.4960 
     59 C59        18.6085  -31.4141  -41.3634 C.3       10 UNK        -0.0876 
     60 S60        17.2390  -32.4337  -42.0080 S.3       10 UNK        -0.2414 
     61 C61        17.9968  -33.1860  -43.4837 C.3       10 UNK         0.0169 
     62 H62        12.7650  -24.6872  -43.3759 H         1 UNK         0.0903 
     63 H63        12.2416  -24.8592  -45.0536 H         1 UNK         0.0903 
     64 H64        12.6705  -26.2883  -44.1118 H         1 UNK         0.0903 
     65 H65        14.6987  -27.0884  -44.6280 H         1 UNK         0.3096 
     66 H66        16.6364  -25.5814  -46.1297 H         1 UNK         0.1121 
     67 H67        18.0595  -27.6906  -45.7657 H         1 UNK         0.0849 
     68 H68        16.7436  -28.3530  -44.8287 H         1 UNK         0.0849 
     69 H69        15.8507  -30.5153  -47.8783 H         1 UNK         0.0865 
     70 H70        15.1708  -30.1898  -46.3029 H         1 UNK         0.0865 
     71 H71        16.1045  -31.8997  -44.9458 H         1 UNK         0.1346 
     72 H72        20.3527  -32.1985  -44.4600 H         1 UNK         0.1412 
     73 H73        18.7243  -29.6252  -47.4736 H         1 UNK         0.1426 
     74 H74        21.8388  -31.0557  -45.9561 H         1 UNK         0.0716 
     75 H75        21.2076  -30.4307  -47.4617 H         1 UNK         0.0716 
     76 H76        22.0142  -29.6867  -43.7294 H         1 UNK         0.0695 
     77 H77        20.3002  -29.3325  -43.7349 H         1 UNK         0.0695 
     78 H78        22.5246  -27.2488  -43.5326 H         1 UNK         0.0983 
     79 H79        19.6538  -26.9380  -43.8207 H         1 UNK         0.3095 
     80 H80        19.0155  -24.0993  -42.7112 H         1 UNK         0.0454 
     81 H81        20.5250  -23.2591  -45.2398 H         1 UNK         0.0851 
     82 H82        19.1404  -22.4093  -44.5526 H         1 UNK         0.0851 
     83 H83        20.6430  -22.5060  -43.6560 H         1 UNK         0.0851 
     84 H84        18.7060  -24.9353  -45.5263 H         1 UNK         0.2976 
     85 H85        22.6227  -26.1230  -41.4705 H         1 UNK         0.3116 
     86 H86        22.3213  -27.9704  -39.1329 H         1 UNK         0.0646 
     87 H87        21.0658  -25.8212  -38.8153 H         1 UNK         0.0847 
     88 H88        22.5217  -24.9014  -39.1903 H         1 UNK         0.0847 
     89 H89        22.4565  -25.9010  -37.7446 H         1 UNK         0.0847 
     90 H90        24.2111  -28.5043  -38.1645 H         1 UNK         0.3040 
     91 H91        26.3261  -29.0091  -37.8406 H         1 UNK         0.1015 
     92 H92        28.1306  -27.3342  -38.0405 H         1 UNK         0.0786 
     93 H93        26.7258  -26.6409  -37.2482 H         1 UNK         0.0786 
     94 H94        27.0804  -26.2431  -38.9263 H         1 UNK         0.0786 
     95 H95        26.3362  -27.2797  -40.9619 H         1 UNK         0.3172 
     96 H96        27.9867  -29.3166  -42.3188 H         1 UNK         0.0595 
     97 H97        26.5692  -26.7975  -43.3541 H         1 UNK         0.0839 
     98 H98        27.6289  -27.8325  -44.3013 H         1 UNK         0.0839 
     99 H99        28.2778  -26.9305  -42.9404 H         1 UNK         0.0839 
    100 H100       27.0098  -31.1774  -42.7759 H         1 UNK         0.2998 
    101 H101       25.5714  -32.7916  -43.2847 H         1 UNK         0.0822 
    102 H102       25.5269  -31.6577  -45.5171 H         1 UNK         0.0787 
    103 H103       24.0005  -32.4508  -45.1666 H         1 UNK         0.0787 
    104 H104       24.1328  -30.7051  -45.0108 H         1 UNK         0.0787 
    105 H105       25.1684  -31.5729  -40.8859 H         1 UNK         0.3055 
    106 H106       23.0036  -30.3683  -40.0314 H         1 UNK         0.1106 
    107 H107       24.8990  -30.9779  -38.5825 H         1 UNK         0.0828 
    108 H108       23.3994  -31.4482  -37.8029 H         1 UNK         0.0828 
    109 H109       24.4033  -32.6652  -38.5762 H         1 UNK         0.0828 
    110 H110       20.9434  -30.6257  -40.6481 H         1 UNK         0.2931 
    111 H111       19.6246  -33.1990  -40.7369 H         1 UNK         0.0412 
    112 H112       18.9589  -31.6760  -37.0246 H         1 UNK         0.3472 
    113 H113       20.1400  -30.9513  -38.0872 H         1 UNK         0.3472 
    114 H114       19.1938  -31.0593  -42.2127 H         1 UNK         0.0970 
    115 H115       18.1969  -30.5132  -40.9047 H         1 UNK         0.0970 
    116 H116       17.3465  -33.9850  -43.8423 H         1 UNK         0.0612 
    117 H117       18.9388  -33.6599  -43.2030 H         1 UNK         0.0612 
@<TRIPOS>BOND
     1    1    2 1    
     2    1   62 1    
     3    1   63 1    
     4    1   64 1    
     5    2    3 2    
     6    2    4 am   BACKBONE|DICT|INTERRES
     7    4    5 1    
     8    4   65 1    
     9    5    6 1    
    10    5   25 1    
    11    5   66 1    
    12    6    7 1    
    13    6   67 1    
    14    6   68 1    
    15    7    8 1    
    16    8    9 1    
    17    8   69 1    
    18    8   70 1    
    19    9   10 ar   
    20    9   14 ar   
    21   10   11 ar   
    22   10   71 1    
    23   11   12 ar   
    24   11   61 1    
    25   12   13 ar   
    26   12   72 1    
    27   13   14 ar   
    28   13   15 1    
    29   14   73 1    
    30   15   16 1    
    31   15   74 1    
    32   15   75 1    
    33   16   17 1    
    34   17   18 1    
    35   17   76 1    
    36   17   77 1    
    37   18   19 1    
    38   18   27 1    
    39   18   78 1    
    40   19   20 am   BACKBONE|DICT|INTERRES
    41   19   79 1    
    42   20   21 2    
    43   20   22 1    
    44   22   23 1    
    45   22   24 1    
    46   22   80 1    
    47   23   81 1    
    48   23   82 1    
    49   23   83 1    
    50   24   25 am   BACKBONE|DICT|INTERRES
    51   24   84 1    
    52   25   26 2    
    53   27   28 2    
    54   27   29 am   BACKBONE|DICT|INTERRES
    55   29   30 1    
    56   29   85 1    
    57   30   31 1    
    58   30   32 1    
    59   30   86 1    
    60   31   87 1    
    61   31   88 1    
    62   31   89 1    
    63   32   33 2    
    64   32   34 am   BACKBONE|DICT|INTERRES
    65   34   35 1    
    66   34   90 1    
    67   35   36 1    
    68   35   37 1    
    69   35   91 1    
    70   36   92 1    
    71   36   93 1    
    72   36   94 1    
    73   37   38 2    
    74   37   39 am   BACKBONE|DICT|INTERRES
    75   39   40 1    
    76   39   95 1    
    77   40   41 1    
    78   40   42 1    
    79   40   96 1    
    80   41   97 1    
    81   41   98 1    
    82   41   99 1    
    83   42   43 2    
    84   42   44 am   BACKBONE|DICT|INTERRES
    85   44   45 1    
    86   44  100 1    
    87   45   46 1    
    88   45   47 1    
    89   45  101 1    
    90   46  102 1    
    91   46  103 1    
    92   46  104 1    
    93   47   48 2    
    94   47   49 am   BACKBONE|DICT|INTERRES
    95   49   50 1    
    96   49  105 1    
    97   50   51 1    
    98   50   52 1    
    99   50  106 1    
   100   51  107 1    
   101   51  108 1    
   102   51  109 1    
   103   52   53 2    
   104   52   54 am   BACKBONE|DICT|INTERRES
   105   54   55 1    
   106   54  110 1    
   107   55   56 1    
   108   55   59 1    
   109   55  111 1    
   110   56   57 am   BACKBONE|DICT|INTERRES
   111   56   58 2    
   112   57  112 1    
   113   57  113 1    
   114   59   60 1    
   115   59  114 1    
   116   59  115 1    
   117   60   61 1    
   118   61  116 1    
   119   61  117 1    
@<TRIPOS>SUBSTRUCTURE
     1 UNK         1 GROUP             0       ****    0 ROOT    
