@<TRIPOS>MOLECULE
3R8
117   119    1
SMALL
USER_CHARGES


@<TRIPOS>ATOM
      1 CA         22.8397  -32.2751  -46.2262 C.3       0 UNK        -0.2013 
      2 C          21.7458  -31.3671  -45.6881 C.2       0 UNK         0.4866 
      3 O          21.7175  -31.0664  -44.4935 O.2       0 UNK        -0.5176 
      4 N          20.8546  -30.9035  -46.5712 N.am      1 UNK        -0.4884 
      5 CA         19.7378  -29.9958  -46.2734 C.3       1 UNK         0.0853 
      6 C6         18.5625  -30.2090  -47.2619 C.3       10 UNK        -0.0849 
      7 S7         17.6989  -31.7750  -46.9008 S.3       10 UNK        -0.2776 
      8 C8         16.0486  -31.1944  -46.3817 C.3       10 UNK         0.0316 
      9 C9         16.0930  -30.2179  -45.2106 C.ar      10 UNK        -0.0863 
     10 C10        16.4308  -30.6614  -43.9278 C.ar      10 UNK        -0.1009 
     11 C11        16.4312  -29.7713  -42.8485 C.ar      10 UNK        -0.0712 
     12 C12        16.0784  -28.4349  -43.0558 C.ar      10 UNK        -0.0894 
     13 C13        15.7661  -27.9737  -44.3354 C.ar      10 UNK        -0.0745 
     14 C14        15.7692  -28.8707  -45.4078 C.ar      10 UNK        -0.0972 
     15 C15        15.4180  -26.5104  -44.5611 C.3       10 UNK         0.0209 
     16 S16        16.8977  -25.5277  -44.9621 S.3       10 UNK        -0.2568 
     17 C17        17.5211  -25.0298  -43.3164 C.3       10 UNK        -0.0983 
     18 CA         18.7118  -25.8827  -42.8047 C.3       3 UNK         0.0876 
     19 N          19.7689  -26.0210  -43.8090 N.am      3 UNK        -0.4424 
     20 C          20.9130  -26.6992  -43.6641 C.2       2 UNK         0.4918 
     21 O          21.2982  -27.2061  -42.6097 O.2       2 UNK        -0.4875 
     22 CA         21.6910  -26.9694  -44.9566 C.3       2 UNK         0.0481 
     23 CB         23.2120  -26.9697  -44.7400 C.3       2 UNK        -0.1831 
     24 N          21.2692  -28.2881  -45.4136 N.am      2 UNK        -0.4498 
     25 C          20.2074  -28.5262  -46.1923 C.2       1 UNK         0.5027 
     26 O          19.6091  -27.6413  -46.8065 O.2       1 UNK        -0.4969 
     27 C          19.2428  -25.3437  -41.4589 C.2       3 UNK         0.5005 
     28 O          19.6131  -24.1702  -41.3778 O.2       3 UNK        -0.5279 
     29 N          19.2800  -26.2227  -40.4462 N.am      4 UNK        -0.4463 
     30 CA         19.7595  -25.9899  -39.0789 C.3       4 UNK         0.0283 
     31 CB         18.8600  -24.9708  -38.3465 C.3       4 UNK        -0.1875 
     32 C          21.2618  -25.6460  -38.9762 C.2       4 UNK         0.4949 
     33 O          21.6630  -24.9838  -38.0169 O.2       4 UNK        -0.5039 
     34 N          22.0713  -26.1149  -39.9367 N.am      5 UNK        -0.4663 
     35 CA         23.5345  -26.0402  -39.9043 C.3       5 UNK         0.0242 
     36 CB         24.0531  -25.7658  -41.3290 C.3       5 UNK        -0.1982 
     37 C          24.1038  -27.3268  -39.2718 C.2       5 UNK         0.5017 
     38 O          23.5674  -27.7919  -38.2627 O.2       5 UNK        -0.5012 
     39 N          25.1617  -27.8943  -39.8650 N.am      6 UNK        -0.4439 
     40 CA         25.7794  -29.1538  -39.4457 C.3       6 UNK         0.0297 
     41 CB         26.8450  -28.8836  -38.3640 C.3       6 UNK        -0.2006 
     42 C          26.3261  -29.9236  -40.6605 C.2       6 UNK         0.4892 
     43 O          27.4401  -30.4470  -40.6028 O.2       6 UNK        -0.5089 
     44 N          25.5411  -29.9697  -41.7456 N.am      7 UNK        -0.4243 
     45 CA         25.8556  -30.7405  -42.9550 C.3       7 UNK         0.0196 
     46 CB         25.2822  -30.0265  -44.1895 C.3       7 UNK        -0.2007 
     47 C          25.3041  -32.1700  -42.8435 C.2       7 UNK         0.5020 
     48 O          26.0276  -33.1338  -43.0923 O.2       7 UNK        -0.5147 
     49 N          24.0369  -32.2650  -42.4355 N.am      8 UNK        -0.4734 
     50 CA         23.3073  -33.4807  -42.0756 C.3       8 UNK         0.0238 
     51 CB         22.8981  -34.3115  -43.3058 C.3       8 UNK        -0.1912 
     52 C          22.0978  -33.0242  -41.2590 C.2       8 UNK         0.5038 
     53 O          21.9363  -33.4515  -40.1158 O.2       8 UNK        -0.5046 
     54 N          21.3537  -32.0597  -41.8201 N.am      9 UNK        -0.4200 
     55 CA         20.6524  -31.0360  -41.0415 C.3       9 UNK         0.0839 
     56 C          21.6899  -30.0487  -40.4349 C.2       9 UNK         0.5513 
     57 N          21.4345  -29.5282  -39.2440 N.am      9 UNK        -0.7519 
     58 O          22.7234  -29.7635  -41.0421 O.2       9 UNK        -0.4960 
     59 C59        19.6030  -30.3013  -41.9116 C.3       10 UNK        -0.0876 
     60 S60        18.3509  -29.4548  -40.8879 S.3       10 UNK        -0.2414 
     61 C61        16.8104  -30.2413  -41.4529 C.3       10 UNK         0.0169 
     62 H62        23.2064  -31.9198  -47.1889 H         1 UNK         0.0903 
     63 H63        23.6834  -32.3097  -45.5381 H         1 UNK         0.0903 
     64 H64        22.4616  -33.2890  -46.3530 H         1 UNK         0.0903 
     65 H65        20.9402  -31.1762  -47.5402 H         1 UNK         0.3096 
     66 H66        19.3641  -30.2238  -45.2716 H         1 UNK         0.1121 
     67 H67        18.9189  -30.2238  -48.2932 H         1 UNK         0.0849 
     68 H68        17.8406  -29.3933  -47.2136 H         1 UNK         0.0849 
     69 H69        15.5476  -30.7440  -47.2402 H         1 UNK         0.0865 
     70 H70        15.4445  -32.0587  -46.1021 H         1 UNK         0.0865 
     71 H71        16.6910  -31.6998  -43.7732 H         1 UNK         0.1346 
     72 H72        16.0677  -27.7491  -42.2199 H         1 UNK         0.1412 
     73 H73        15.5162  -28.5163  -46.3979 H         1 UNK         0.1426 
     74 H74        14.9071  -26.0947  -43.6915 H         1 UNK         0.0716 
     75 H75        14.7129  -26.4270  -45.3895 H         1 UNK         0.0716 
     76 H76        16.7017  -25.0525  -42.5959 H         1 UNK         0.0695 
     77 H77        17.8164  -23.9817  -43.3968 H         1 UNK         0.0695 
     78 H78        18.3388  -26.8932  -42.6365 H         1 UNK         0.0983 
     79 H79        19.5228  -25.6897  -44.7312 H         1 UNK         0.3095 
     80 H80        21.4501  -26.2067  -45.7001 H         1 UNK         0.0454 
     81 H81        23.5125  -27.7016  -43.9915 H         1 UNK         0.0851 
     82 H82        23.5555  -25.9917  -44.4018 H         1 UNK         0.0851 
     83 H83        23.7435  -27.1998  -45.6632 H         1 UNK         0.0851 
     84 H84        21.6657  -29.0838  -44.9234 H         1 UNK         0.2976 
     85 H85        19.0023  -27.1779  -40.6384 H         1 UNK         0.3116 
     86 H86        19.6472  -26.9459  -38.5655 H         1 UNK         0.0646 
     87 H87        18.9697  -23.9663  -38.7562 H         1 UNK         0.0847 
     88 H88        19.1109  -24.9168  -37.2865 H         1 UNK         0.0847 
     89 H89        17.8082  -25.2484  -38.4131 H         1 UNK         0.0847 
     90 H90        21.6695  -26.6499  -40.7016 H         1 UNK         0.3040 
     91 H91        23.8485  -25.2083  -39.2703 H         1 UNK         0.1015 
     92 H92        23.5451  -24.9102  -41.7747 H         1 UNK         0.0786 
     93 H93        23.8909  -26.6222  -41.9816 H         1 UNK         0.0786 
     94 H94        25.1196  -25.5375  -41.3296 H         1 UNK         0.0786 
     95 H95        25.5388  -27.4700  -40.7014 H         1 UNK         0.3172 
     96 H96        25.0125  -29.7999  -39.0125 H         1 UNK         0.0595 
     97 H97        27.6510  -28.2547  -38.7435 H         1 UNK         0.0839 
     98 H98        27.2922  -29.8138  -38.0112 H         1 UNK         0.0839 
     99 H99        26.4123  -28.3871  -37.4954 H         1 UNK         0.0839 
    100 H100       24.6013  -29.5910  -41.6633 H         1 UNK         0.2998 
    101 H101       26.9389  -30.8048  -43.0800 H         1 UNK         0.0822 
    102 H102       25.6909  -29.0210  -44.2897 H         1 UNK         0.0787 
    103 H103       25.5306  -30.5685  -45.1028 H         1 UNK         0.0787 
    104 H104       24.1962  -29.9465  -44.1431 H         1 UNK         0.0787 
    105 H105       23.5506  -31.4016  -42.2179 H         1 UNK         0.3055 
    106 H106       23.9480  -34.0888  -41.4330 H         1 UNK         0.1106 
    107 H107       22.4472  -35.2549  -42.9964 H         1 UNK         0.0828 
    108 H108       22.1644  -33.7951  -43.9226 H         1 UNK         0.0828 
    109 H109       23.7559  -34.5548  -43.9324 H         1 UNK         0.0828 
    110 H110       21.5600  -31.7900  -42.7799 H         1 UNK         0.2931 
    111 H111       20.1318  -31.5433  -40.2263 H         1 UNK         0.0412 
    112 H112       20.5916  -29.7615  -38.7442 H         1 UNK         0.3472 
    113 H113       22.1196  -28.9042  -38.8299 H         1 UNK         0.3472 
    114 H114       20.0747  -29.5805  -42.5814 H         1 UNK         0.0970 
    115 H115       19.0991  -31.0170  -42.5626 H         1 UNK         0.0970 
    116 H116       16.0084  -29.9839  -40.7597 H         1 UNK         0.0612 
    117 H117       16.9173  -31.3265  -41.4132 H         1 UNK         0.0612 
@<TRIPOS>BOND
     1    1    2 1    
     2    1   62 1    
     3    1   63 1    
     4    1   64 1    
     5    2    3 2    
     6    2    4 am   BACKBONE|DICT|INTERRES
     7    4    5 1    
     8    4   65 1    
     9    5    6 1    
    10    5   25 1    
    11    5   66 1    
    12    6    7 1    
    13    6   67 1    
    14    6   68 1    
    15    7    8 1    
    16    8    9 1    
    17    8   69 1    
    18    8   70 1    
    19    9   10 ar   
    20    9   14 ar   
    21   10   11 ar   
    22   10   71 1    
    23   11   12 ar   
    24   11   61 1    
    25   12   13 ar   
    26   12   72 1    
    27   13   14 ar   
    28   13   15 1    
    29   14   73 1    
    30   15   16 1    
    31   15   74 1    
    32   15   75 1    
    33   16   17 1    
    34   17   18 1    
    35   17   76 1    
    36   17   77 1    
    37   18   19 1    
    38   18   27 1    
    39   18   78 1    
    40   19   20 am   BACKBONE|DICT|INTERRES
    41   19   79 1    
    42   20   21 2    
    43   20   22 1    
    44   22   23 1    
    45   22   24 1    
    46   22   80 1    
    47   23   81 1    
    48   23   82 1    
    49   23   83 1    
    50   24   25 am   BACKBONE|DICT|INTERRES
    51   24   84 1    
    52   25   26 2    
    53   27   28 2    
    54   27   29 am   BACKBONE|DICT|INTERRES
    55   29   30 1    
    56   29   85 1    
    57   30   31 1    
    58   30   32 1    
    59   30   86 1    
    60   31   87 1    
    61   31   88 1    
    62   31   89 1    
    63   32   33 2    
    64   32   34 am   BACKBONE|DICT|INTERRES
    65   34   35 1    
    66   34   90 1    
    67   35   36 1    
    68   35   37 1    
    69   35   91 1    
    70   36   92 1    
    71   36   93 1    
    72   36   94 1    
    73   37   38 2    
    74   37   39 am   BACKBONE|DICT|INTERRES
    75   39   40 1    
    76   39   95 1    
    77   40   41 1    
    78   40   42 1    
    79   40   96 1    
    80   41   97 1    
    81   41   98 1    
    82   41   99 1    
    83   42   43 2    
    84   42   44 am   BACKBONE|DICT|INTERRES
    85   44   45 1    
    86   44  100 1    
    87   45   46 1    
    88   45   47 1    
    89   45  101 1    
    90   46  102 1    
    91   46  103 1    
    92   46  104 1    
    93   47   48 2    
    94   47   49 am   BACKBONE|DICT|INTERRES
    95   49   50 1    
    96   49  105 1    
    97   50   51 1    
    98   50   52 1    
    99   50  106 1    
   100   51  107 1    
   101   51  108 1    
   102   51  109 1    
   103   52   53 2    
   104   52   54 am   BACKBONE|DICT|INTERRES
   105   54   55 1    
   106   54  110 1    
   107   55   56 1    
   108   55   59 1    
   109   55  111 1    
   110   56   57 am   BACKBONE|DICT|INTERRES
   111   56   58 2    
   112   57  112 1    
   113   57  113 1    
   114   59   60 1    
   115   59  114 1    
   116   59  115 1    
   117   60   61 1    
   118   61  116 1    
   119   61  117 1    
@<TRIPOS>SUBSTRUCTURE
     1 UNK         1 GROUP             0       ****    0 ROOT    
