@<TRIPOS>MOLECULE
3R8
117   119    1
SMALL
USER_CHARGES


@<TRIPOS>ATOM
      1 CA         12.7568  -24.0464  -46.8713 C.3       0 UNK        -0.2013 
      2 C          14.1444  -24.6709  -46.8734 C.2       0 UNK         0.4866 
      3 O          14.9228  -24.4319  -47.7978 O.2       0 UNK        -0.5176 
      4 N          14.4567  -25.4759  -45.8512 N.am      1 UNK        -0.4884 
      5 CA         15.7684  -26.0975  -45.6440 C.3       1 UNK         0.0853 
      6 C6         15.6648  -27.3532  -44.7372 C.3       10 UNK        -0.0849 
      7 S7         14.9816  -27.0267  -43.0726 S.3       10 UNK        -0.2776 
      8 C8         15.3116  -28.6056  -42.2272 C.3       10 UNK         0.0316 
      9 C9         16.7926  -28.8106  -41.9354 C.ar      10 UNK        -0.0863 
     10 C10        17.5422  -29.7206  -42.6887 C.ar      10 UNK        -0.1009 
     11 C11        18.8927  -29.9355  -42.3993 C.ar      10 UNK        -0.0712 
     12 C12        19.4898  -29.2377  -41.3474 C.ar      10 UNK        -0.0894 
     13 C13        18.7576  -28.3206  -40.5922 C.ar      10 UNK        -0.0745 
     14 C14        17.4069  -28.1119  -40.8902 C.ar      10 UNK        -0.0972 
     15 C15        19.4171  -27.5722  -39.4431 C.3       10 UNK         0.0209 
     16 S16        19.9366  -25.9011  -39.9404 S.3       10 UNK        -0.2568 
     17 C17        21.6090  -26.1714  -40.6312 C.3       10 UNK        -0.0983 
     18 CA         21.6446  -26.4421  -42.1621 C.3       3 UNK         0.0876 
     19 N          20.7774  -25.5222  -42.9075 N.am      3 UNK        -0.4424 
     20 C          20.1669  -25.8078  -44.0609 C.2       2 UNK         0.4918 
     21 O          20.3542  -26.8488  -44.6967 O.2       2 UNK        -0.4875 
     22 CA         19.2154  -24.7469  -44.6165 C.3       2 UNK         0.0481 
     23 CB         19.9149  -23.8780  -45.6749 C.3       2 UNK        -0.1831 
     24 N          18.0858  -25.4482  -45.2148 N.am      2 UNK        -0.4498 
     25 C          16.8044  -25.0825  -45.1098 C.2       1 UNK         0.5027 
     26 O          16.4349  -24.0231  -44.5934 O.2       1 UNK        -0.4969 
     27 C          23.0836  -26.4438  -42.7322 C.2       3 UNK         0.5005 
     28 O          24.0498  -26.3062  -41.9788 O.2       3 UNK        -0.5279 
     29 N          23.2058  -26.5776  -44.0617 N.am      4 UNK        -0.4463 
     30 CA         24.4449  -26.4373  -44.8380 C.3       4 UNK         0.0283 
     31 CB         24.1078  -26.5097  -46.3364 C.3       4 UNK        -0.1875 
     32 C          25.5494  -27.4509  -44.4864 C.2       4 UNK         0.4949 
     33 O          26.7279  -27.1421  -44.6642 O.2       4 UNK        -0.5039 
     34 N          25.1511  -28.6236  -43.9812 N.am      5 UNK        -0.4663 
     35 CA         26.0344  -29.6729  -43.4674 C.3       5 UNK         0.0242 
     36 CB         25.9343  -30.9027  -44.3889 C.3       5 UNK        -0.1982 
     37 C          25.6880  -29.9913  -42.0011 C.2       5 UNK         0.5017 
     38 O          25.8300  -31.1391  -41.5755 O.2       5 UNK        -0.5012 
     39 N          25.2185  -28.9695  -41.2638 N.am      6 UNK        -0.4439 
     40 CA         24.6778  -29.0219  -39.9000 C.3       6 UNK         0.0297 
     41 CB         25.7550  -29.4911  -38.8951 C.3       6 UNK        -0.2006 
     42 C          23.3814  -29.8527  -39.8196 C.2       6 UNK         0.4892 
     43 O          22.8290  -30.2447  -40.8495 O.2       6 UNK        -0.5089 
     44 N          22.9120  -30.1111  -38.5913 N.am      7 UNK        -0.4243 
     45 CA         21.7185  -30.9154  -38.2943 C.3       7 UNK         0.0196 
     46 CB         21.3729  -30.7646  -36.8038 C.3       7 UNK        -0.2007 
     47 C          21.8408  -32.4042  -38.6796 C.2       7 UNK         0.5020 
     48 O          20.8249  -33.0978  -38.7258 O.2       7 UNK        -0.5147 
     49 N          23.0676  -32.8710  -38.9538 N.am      8 UNK        -0.4734 
     50 CA         23.3522  -34.1929  -39.5172 C.3       8 UNK         0.0238 
     51 CB         24.8541  -34.4881  -39.3678 C.3       8 UNK        -0.1912 
     52 C          22.9258  -34.3215  -40.9928 C.2       8 UNK         0.5038 
     53 O          22.6310  -35.4353  -41.4294 O.2       8 UNK        -0.5046 
     54 N          22.8938  -33.1923  -41.7168 N.am      9 UNK        -0.4200 
     55 CA         22.5320  -33.0639  -43.1374 C.3       9 UNK         0.0839 
     56 C          23.5128  -33.7939  -44.1069 C.2       9 UNK         0.5513 
     57 N          23.2181  -33.8159  -45.4005 N.am      9 UNK        -0.7519 
     58 O          24.5634  -34.3020  -43.7199 O.2       9 UNK        -0.4960 
     59 C59        21.0345  -33.3985  -43.4181 C.3       10 UNK        -0.0876 
     60 S60        19.8725  -32.5054  -42.3301 S.3       10 UNK        -0.2414 
     61 C61        19.7138  -30.9237  -43.2108 C.3       10 UNK         0.0169 
     62 H62        12.8353  -22.9597  -46.8614 H         1 UNK         0.0903 
     63 H63        12.2108  -24.3410  -47.7669 H         1 UNK         0.0903 
     64 H64        12.1733  -24.3519  -46.0030 H         1 UNK         0.0903 
     65 H65        13.7979  -25.6091  -45.0963 H         1 UNK         0.3096 
     66 H66        16.1313  -26.4295  -46.6200 H         1 UNK         0.1121 
     67 H67        15.0314  -28.0987  -45.2208 H         1 UNK         0.0849 
     68 H68        16.6435  -27.8249  -44.6354 H         1 UNK         0.0849 
     69 H69        14.9149  -29.4274  -42.8255 H         1 UNK         0.0865 
     70 H70        14.7571  -28.6228  -41.2880 H         1 UNK         0.0865 
     71 H71        17.0741  -30.2682  -43.4953 H         1 UNK         0.1346 
     72 H72        20.5289  -29.4137  -41.1169 H         1 UNK         0.1412 
     73 H73        16.8318  -27.4057  -40.3065 H         1 UNK         0.1426 
     74 H74        20.2689  -28.1280  -39.0493 H         1 UNK         0.0716 
     75 H75        18.7084  -27.4846  -38.6182 H         1 UNK         0.0716 
     76 H76        22.0919  -26.9863  -40.0902 H         1 UNK         0.0695 
     77 H77        22.1859  -25.2749  -40.3955 H         1 UNK         0.0695 
     78 H78        21.2694  -27.4540  -42.3171 H         1 UNK         0.0983 
     79 H79        20.5885  -24.6381  -42.4574 H         1 UNK         0.3095 
     80 H80        18.8770  -24.1145  -43.7925 H         1 UNK         0.0454 
     81 H81        19.2379  -23.1242  -46.0770 H         1 UNK         0.0851 
     82 H82        20.2834  -24.4759  -46.5097 H         1 UNK         0.0851 
     83 H83        20.7690  -23.3515  -45.2471 H         1 UNK         0.0851 
     84 H84        18.3214  -26.3540  -45.6014 H         1 UNK         0.2976 
     85 H85        22.3481  -26.7129  -44.5887 H         1 UNK         0.3116 
     86 H86        24.8454  -25.4429  -44.6279 H         1 UNK         0.0646 
     87 H87        25.0034  -26.3787  -46.9456 H         1 UNK         0.0847 
     88 H88        23.4056  -25.7270  -46.6252 H         1 UNK         0.0847 
     89 H89        23.6688  -27.4718  -46.6053 H         1 UNK         0.0847 
     90 H90        24.1592  -28.7787  -43.8641 H         1 UNK         0.3040 
     91 H91        27.0734  -29.3349  -43.4633 H         1 UNK         0.1015 
     92 H92        26.2551  -30.6620  -45.4023 H         1 UNK         0.0786 
     93 H93        24.9120  -31.2749  -44.4443 H         1 UNK         0.0786 
     94 H94        26.5655  -31.7204  -44.0365 H         1 UNK         0.0786 
     95 H95        25.1048  -28.0711  -41.7231 H         1 UNK         0.3172 
     96 H96        24.4060  -27.9959  -39.6469 H         1 UNK         0.0595 
     97 H97        25.9714  -30.5557  -38.9929 H         1 UNK         0.0839 
     98 H98        25.4469  -29.3136  -37.8642 H         1 UNK         0.0839 
     99 H99        26.6903  -28.9499  -39.0395 H         1 UNK         0.0839 
    100 H100       23.4176  -29.7499  -37.7950 H         1 UNK         0.2998 
    101 H101       20.8894  -30.5116  -38.8784 H         1 UNK         0.0822 
    102 H102       21.1883  -29.7224  -36.5420 H         1 UNK         0.0787 
    103 H103       20.4698  -31.3235  -36.5530 H         1 UNK         0.0787 
    104 H104       22.1740  -31.1370  -36.1643 H         1 UNK         0.0787 
    105 H105       23.8460  -32.2333  -38.8741 H         1 UNK         0.3055 
    106 H106       22.7924  -34.9384  -38.9471 H         1 UNK         0.1106 
    107 H107       25.0963  -35.4792  -39.7547 H         1 UNK         0.0828 
    108 H108       25.4633  -33.7674  -39.9165 H         1 UNK         0.0828 
    109 H109       25.1630  -34.4656  -38.3225 H         1 UNK         0.0828 
    110 H110       23.1370  -32.3203  -41.2625 H         1 UNK         0.2931 
    111 H111       22.6745  -32.0040  -43.3504 H         1 UNK         0.0412 
    112 H112       22.3829  -33.3828  -45.7610 H         1 UNK         0.3472 
    113 H113       23.8556  -34.2719  -46.0349 H         1 UNK         0.3472 
    114 H114       20.7676  -33.1744  -44.4517 H         1 UNK         0.0970 
    115 H115       20.8589  -34.4680  -43.2908 H         1 UNK         0.0970 
    116 H116       20.7055  -30.5071  -43.3952 H         1 UNK         0.0612 
    117 H117       19.2579  -31.0931  -44.1876 H         1 UNK         0.0612 
@<TRIPOS>BOND
     1    1    2 1    
     2    1   62 1    
     3    1   63 1    
     4    1   64 1    
     5    2    3 2    
     6    2    4 am   BACKBONE|DICT|INTERRES
     7    4    5 1    
     8    4   65 1    
     9    5    6 1    
    10    5   25 1    
    11    5   66 1    
    12    6    7 1    
    13    6   67 1    
    14    6   68 1    
    15    7    8 1    
    16    8    9 1    
    17    8   69 1    
    18    8   70 1    
    19    9   10 ar   
    20    9   14 ar   
    21   10   11 ar   
    22   10   71 1    
    23   11   12 ar   
    24   11   61 1    
    25   12   13 ar   
    26   12   72 1    
    27   13   14 ar   
    28   13   15 1    
    29   14   73 1    
    30   15   16 1    
    31   15   74 1    
    32   15   75 1    
    33   16   17 1    
    34   17   18 1    
    35   17   76 1    
    36   17   77 1    
    37   18   19 1    
    38   18   27 1    
    39   18   78 1    
    40   19   20 am   BACKBONE|DICT|INTERRES
    41   19   79 1    
    42   20   21 2    
    43   20   22 1    
    44   22   23 1    
    45   22   24 1    
    46   22   80 1    
    47   23   81 1    
    48   23   82 1    
    49   23   83 1    
    50   24   25 am   BACKBONE|DICT|INTERRES
    51   24   84 1    
    52   25   26 2    
    53   27   28 2    
    54   27   29 am   BACKBONE|DICT|INTERRES
    55   29   30 1    
    56   29   85 1    
    57   30   31 1    
    58   30   32 1    
    59   30   86 1    
    60   31   87 1    
    61   31   88 1    
    62   31   89 1    
    63   32   33 2    
    64   32   34 am   BACKBONE|DICT|INTERRES
    65   34   35 1    
    66   34   90 1    
    67   35   36 1    
    68   35   37 1    
    69   35   91 1    
    70   36   92 1    
    71   36   93 1    
    72   36   94 1    
    73   37   38 2    
    74   37   39 am   BACKBONE|DICT|INTERRES
    75   39   40 1    
    76   39   95 1    
    77   40   41 1    
    78   40   42 1    
    79   40   96 1    
    80   41   97 1    
    81   41   98 1    
    82   41   99 1    
    83   42   43 2    
    84   42   44 am   BACKBONE|DICT|INTERRES
    85   44   45 1    
    86   44  100 1    
    87   45   46 1    
    88   45   47 1    
    89   45  101 1    
    90   46  102 1    
    91   46  103 1    
    92   46  104 1    
    93   47   48 2    
    94   47   49 am   BACKBONE|DICT|INTERRES
    95   49   50 1    
    96   49  105 1    
    97   50   51 1    
    98   50   52 1    
    99   50  106 1    
   100   51  107 1    
   101   51  108 1    
   102   51  109 1    
   103   52   53 2    
   104   52   54 am   BACKBONE|DICT|INTERRES
   105   54   55 1    
   106   54  110 1    
   107   55   56 1    
   108   55   59 1    
   109   55  111 1    
   110   56   57 am   BACKBONE|DICT|INTERRES
   111   56   58 2    
   112   57  112 1    
   113   57  113 1    
   114   59   60 1    
   115   59  114 1    
   116   59  115 1    
   117   60   61 1    
   118   61  116 1    
   119   61  117 1    
@<TRIPOS>SUBSTRUCTURE
     1 UNK         1 GROUP             0       ****    0 ROOT    
