@<TRIPOS>MOLECULE
3R8
117   119    1
SMALL
USER_CHARGES


@<TRIPOS>ATOM
      1 CA         15.1992  -23.1402  -44.7918 C.3       0 UNK        -0.2013 
      2 C          16.0570  -24.3933  -44.7087 C.2       0 UNK         0.4866 
      3 O          16.9405  -24.5894  -45.5438 O.2       0 UNK        -0.5176 
      4 N          15.8193  -25.2395  -43.6985 N.am      1 UNK        -0.4884 
      5 CA         16.5061  -26.5182  -43.4589 C.3       1 UNK         0.0853 
      6 C6         15.6215  -27.4865  -42.6328 C.3       10 UNK        -0.0849 
      7 S7         14.1234  -27.9526  -43.5655 S.3       10 UNK        -0.2776 
      8 C8         14.3916  -29.7312  -43.8707 C.3       10 UNK         0.0316 
      9 C9         15.7298  -30.0512  -44.5318 C.ar      10 UNK        -0.0863 
     10 C10        16.5933  -30.9750  -43.9338 C.ar      10 UNK        -0.1009 
     11 C11        17.7949  -31.3297  -44.5524 C.ar      10 UNK        -0.0712 
     12 C12        18.1371  -30.7467  -45.7738 C.ar      10 UNK        -0.0894 
     13 C13        17.3060  -29.7899  -46.3645 C.ar      10 UNK        -0.0745 
     14 C14        16.0948  -29.4586  -45.7467 C.ar      10 UNK        -0.0972 
     15 C15        17.7044  -29.1332  -47.6801 C.3       10 UNK         0.0209 
     16 S16        18.6649  -27.6035  -47.4255 S.3       10 UNK        -0.2568 
     17 C17        20.3248  -28.2659  -47.0457 C.3       10 UNK        -0.0983 
     18 CA         21.2448  -27.2686  -46.2981 C.3       3 UNK         0.0876 
     19 N          20.5745  -26.6746  -45.1336 N.am      3 UNK        -0.4424 
     20 C          21.0775  -25.7612  -44.2889 C.2       2 UNK         0.4918 
     21 O          22.2368  -25.3492  -44.3390 O.2       2 UNK        -0.4875 
     22 CA         20.1279  -25.2135  -43.2067 C.3       2 UNK         0.0481 
     23 CB         20.2812  -23.6913  -43.0389 C.3       2 UNK        -0.1831 
     24 N          18.7318  -25.5125  -43.5282 N.am      2 UNK        -0.4498 
     25 C          17.9083  -26.3123  -42.8426 C.2       1 UNK         0.5027 
     26 O          18.2152  -26.8639  -41.7845 O.2       1 UNK        -0.4969 
     27 C          22.5787  -27.9610  -45.9458 C.2       3 UNK         0.5005 
     28 O          23.5239  -27.9039  -46.7342 O.2       3 UNK        -0.5279 
     29 N          22.6266  -28.5825  -44.7614 N.am      4 UNK        -0.4463 
     30 CA         23.8114  -29.1865  -44.1639 C.3       4 UNK         0.0283 
     31 CB         23.8315  -30.7004  -44.4449 C.3       4 UNK        -0.1875 
     32 C          23.8181  -28.8429  -42.6698 C.2       4 UNK         0.4949 
     33 O          23.8334  -29.7383  -41.8246 O.2       4 UNK        -0.5039 
     34 N          23.7910  -27.5374  -42.3631 N.am      5 UNK        -0.4663 
     35 CA         23.7718  -26.9912  -40.9986 C.3       5 UNK         0.0242 
     36 CB         23.6401  -25.4612  -41.0623 C.3       5 UNK        -0.1982 
     37 C          24.9890  -27.3843  -40.1411 C.2       5 UNK         0.5017 
     38 O          24.8526  -27.4999  -38.9236 O.2       5 UNK        -0.5012 
     39 N          26.1406  -27.6090  -40.7906 N.am      6 UNK        -0.4439 
     40 CA         27.3686  -28.1082  -40.1660 C.3       6 UNK         0.0297 
     41 CB         28.5443  -27.9344  -41.1409 C.3       6 UNK        -0.2006 
     42 C          27.2611  -29.5749  -39.7078 C.2       6 UNK         0.4892 
     43 O          27.8836  -29.9372  -38.7090 O.2       6 UNK        -0.5089 
     44 N          26.4774  -30.3848  -40.4348 N.am      7 UNK        -0.4243 
     45 CA         26.1665  -31.7715  -40.0794 C.3       7 UNK         0.0196 
     46 CB         25.8645  -32.5705  -41.3581 C.3       7 UNK        -0.2007 
     47 C          24.9793  -31.8595  -39.1064 C.2       7 UNK         0.5020 
     48 O          24.9177  -32.8095  -38.3263 O.2       7 UNK        -0.5147 
     49 N          24.0676  -30.8767  -39.1825 N.am      8 UNK        -0.4734 
     50 CA         22.8027  -30.7576  -38.4497 C.3       8 UNK         0.0238 
     51 CB         23.0425  -30.6243  -36.9305 C.3       8 UNK        -0.1912 
     52 C          21.8447  -31.9010  -38.8247 C.2       8 UNK         0.5038 
     53 O          21.4402  -32.6840  -37.9629 O.2       8 UNK        -0.5046 
     54 N          21.5399  -31.9895  -40.1267 N.am      9 UNK        -0.4200 
     55 CA         20.7256  -33.0511  -40.7393 C.3       9 UNK         0.0839 
     56 C          19.2353  -33.1296  -40.2885 C.2       9 UNK         0.5513 
     57 N          18.6786  -32.1124  -39.6421 N.am      9 UNK        -0.7519 
     58 O          18.5773  -34.1387  -40.5280 O.2       9 UNK        -0.4960 
     59 C59        20.8741  -33.0496  -42.2842 C.3       10 UNK        -0.0876 
     60 S60        20.1408  -31.5854  -43.1010 S.3       10 UNK        -0.2414 
     61 C61        18.7116  -32.3625  -43.9173 C.3       10 UNK         0.0169 
     62 H62        15.8261  -22.2515  -44.7236 H         1 UNK         0.0903 
     63 H63        14.6698  -23.1118  -45.7437 H         1 UNK         0.0903 
     64 H64        14.4606  -23.0973  -43.9916 H         1 UNK         0.0903 
     65 H65        15.0904  -25.0162  -43.0354 H         1 UNK         0.3096 
     66 H66        16.6842  -26.9907  -44.4278 H         1 UNK         0.1121 
     67 H67        15.3228  -27.0276  -41.6887 H         1 UNK         0.0849 
     68 H68        16.1715  -28.3907  -42.3651 H         1 UNK         0.0849 
     69 H69        14.2929  -30.2607  -42.9217 H         1 UNK         0.0865 
     70 H70        13.5882  -30.1021  -44.5086 H         1 UNK         0.0865 
     71 H71        16.3232  -31.4361  -42.9933 H         1 UNK         0.1346 
     72 H72        19.0578  -31.0400  -46.2582 H         1 UNK         0.1412 
     73 H73        15.4350  -28.7370  -46.2095 H         1 UNK         0.1426 
     74 H74        18.2773  -29.8279  -48.2965 H         1 UNK         0.0716 
     75 H75        16.8088  -28.8897  -48.2538 H         1 UNK         0.0716 
     76 H76        20.2133  -29.1689  -46.4488 H         1 UNK         0.0695 
     77 H77        20.7859  -28.5770  -47.9852 H         1 UNK         0.0695 
     78 H78        21.4804  -26.4463  -46.9769 H         1 UNK         0.0983 
     79 H79        19.6065  -26.9364  -45.0209 H         1 UNK         0.3095 
     80 H80        20.4112  -25.6924  -42.2678 H         1 UNK         0.0454 
     81 H81        20.0507  -23.1594  -43.9628 H         1 UNK         0.0851 
     82 H82        19.6198  -23.3114  -42.2603 H         1 UNK         0.0851 
     83 H83        21.2992  -23.4237  -42.7535 H         1 UNK         0.0851 
     84 H84        18.3571  -25.0875  -44.3747 H         1 UNK         0.2976 
     85 H85        21.8007  -28.5648  -44.1783 H         1 UNK         0.3116 
     86 H86        24.7135  -28.7449  -44.5927 H         1 UNK         0.0646 
     87 H87        22.9792  -31.2072  -43.9933 H         1 UNK         0.0847 
     88 H88        23.8129  -30.9048  -45.5153 H         1 UNK         0.0847 
     89 H89        24.7362  -31.1585  -44.0448 H         1 UNK         0.0847 
     90 H90        23.7473  -26.8661  -43.1197 H         1 UNK         0.3040 
     91 H91        22.8868  -27.3907  -40.4983 H         1 UNK         0.1015 
     92 H92        24.4705  -25.0057  -41.6032 H         1 UNK         0.0786 
     93 H93        23.6246  -25.0270  -40.0615 H         1 UNK         0.0786 
     94 H94        22.7161  -25.1616  -41.5540 H         1 UNK         0.0786 
     95 H95        26.1565  -27.4645  -41.7898 H         1 UNK         0.3172 
     96 H96        27.5683  -27.4997  -39.2812 H         1 UNK         0.0595 
     97 H97        29.4774  -28.2748  -40.6894 H         1 UNK         0.0839 
     98 H98        28.6830  -26.8883  -41.4145 H         1 UNK         0.0839 
     99 H99        28.3998  -28.5067  -42.0582 H         1 UNK         0.0839 
    100 H100       25.9681  -29.9965  -41.2171 H         1 UNK         0.2998 
    101 H101       27.0348  -32.2224  -39.5936 H         1 UNK         0.0822 
    102 H102       25.7051  -33.6246  -41.1269 H         1 UNK         0.0787 
    103 H103       24.9647  -32.2107  -41.8576 H         1 UNK         0.0787 
    104 H104       26.6903  -32.5154  -42.0675 H         1 UNK         0.0787 
    105 H105       24.1870  -30.2097  -39.9382 H         1 UNK         0.3055 
    106 H106       22.3327  -29.8321  -38.7873 H         1 UNK         0.1106 
    107 H107       23.7103  -29.7916  -36.7089 H         1 UNK         0.0828 
    108 H108       22.1051  -30.4378  -36.4053 H         1 UNK         0.0828 
    109 H109       23.4781  -31.5270  -36.5016 H         1 UNK         0.0828 
    110 H110       21.9217  -31.3046  -40.7641 H         1 UNK         0.2931 
    111 H111       21.1700  -33.9868  -40.3941 H         1 UNK         0.0412 
    112 H112       17.7162  -32.1781  -39.3510 H         1 UNK         0.3472 
    113 H113       19.2106  -31.2801  -39.4477 H         1 UNK         0.3472 
    114 H114       21.9315  -33.0897  -42.5504 H         1 UNK         0.0970 
    115 H115       20.4428  -33.9613  -42.7016 H         1 UNK         0.0970 
    116 H116       19.0665  -33.0572  -44.6801 H         1 UNK         0.0612 
    117 H117       18.1586  -32.9586  -43.1897 H         1 UNK         0.0612 
@<TRIPOS>BOND
     1    1    2 1    
     2    1   62 1    
     3    1   63 1    
     4    1   64 1    
     5    2    3 2    
     6    2    4 am   BACKBONE|DICT|INTERRES
     7    4    5 1    
     8    4   65 1    
     9    5    6 1    
    10    5   25 1    
    11    5   66 1    
    12    6    7 1    
    13    6   67 1    
    14    6   68 1    
    15    7    8 1    
    16    8    9 1    
    17    8   69 1    
    18    8   70 1    
    19    9   10 ar   
    20    9   14 ar   
    21   10   11 ar   
    22   10   71 1    
    23   11   12 ar   
    24   11   61 1    
    25   12   13 ar   
    26   12   72 1    
    27   13   14 ar   
    28   13   15 1    
    29   14   73 1    
    30   15   16 1    
    31   15   74 1    
    32   15   75 1    
    33   16   17 1    
    34   17   18 1    
    35   17   76 1    
    36   17   77 1    
    37   18   19 1    
    38   18   27 1    
    39   18   78 1    
    40   19   20 am   BACKBONE|DICT|INTERRES
    41   19   79 1    
    42   20   21 2    
    43   20   22 1    
    44   22   23 1    
    45   22   24 1    
    46   22   80 1    
    47   23   81 1    
    48   23   82 1    
    49   23   83 1    
    50   24   25 am   BACKBONE|DICT|INTERRES
    51   24   84 1    
    52   25   26 2    
    53   27   28 2    
    54   27   29 am   BACKBONE|DICT|INTERRES
    55   29   30 1    
    56   29   85 1    
    57   30   31 1    
    58   30   32 1    
    59   30   86 1    
    60   31   87 1    
    61   31   88 1    
    62   31   89 1    
    63   32   33 2    
    64   32   34 am   BACKBONE|DICT|INTERRES
    65   34   35 1    
    66   34   90 1    
    67   35   36 1    
    68   35   37 1    
    69   35   91 1    
    70   36   92 1    
    71   36   93 1    
    72   36   94 1    
    73   37   38 2    
    74   37   39 am   BACKBONE|DICT|INTERRES
    75   39   40 1    
    76   39   95 1    
    77   40   41 1    
    78   40   42 1    
    79   40   96 1    
    80   41   97 1    
    81   41   98 1    
    82   41   99 1    
    83   42   43 2    
    84   42   44 am   BACKBONE|DICT|INTERRES
    85   44   45 1    
    86   44  100 1    
    87   45   46 1    
    88   45   47 1    
    89   45  101 1    
    90   46  102 1    
    91   46  103 1    
    92   46  104 1    
    93   47   48 2    
    94   47   49 am   BACKBONE|DICT|INTERRES
    95   49   50 1    
    96   49  105 1    
    97   50   51 1    
    98   50   52 1    
    99   50  106 1    
   100   51  107 1    
   101   51  108 1    
   102   51  109 1    
   103   52   53 2    
   104   52   54 am   BACKBONE|DICT|INTERRES
   105   54   55 1    
   106   54  110 1    
   107   55   56 1    
   108   55   59 1    
   109   55  111 1    
   110   56   57 am   BACKBONE|DICT|INTERRES
   111   56   58 2    
   112   57  112 1    
   113   57  113 1    
   114   59   60 1    
   115   59  114 1    
   116   59  115 1    
   117   60   61 1    
   118   61  116 1    
   119   61  117 1    
@<TRIPOS>SUBSTRUCTURE
     1 UNK         1 GROUP             0       ****    0 ROOT    
