@<TRIPOS>MOLECULE
3R8
117   119    1
SMALL
USER_CHARGES


@<TRIPOS>ATOM
      1 CA         14.2679  -22.5452  -46.3036 C.3       0 UNK        -0.2013 
      2 C          15.2318  -23.5377  -45.6716 C.2       0 UNK         0.4866 
      3 O          14.8870  -24.1741  -44.6751 O.2       0 UNK        -0.5176 
      4 N          16.4416  -23.6663  -46.2352 N.am      1 UNK        -0.4884 
      5 CA         17.5413  -24.5550  -45.8256 C.3       1 UNK         0.0853 
      6 C6         17.1359  -26.0560  -45.7880 C.3       10 UNK        -0.0849 
      7 S7         18.5581  -27.1805  -45.9846 S.3       10 UNK        -0.2776 
      8 C8         17.7700  -28.8064  -45.7444 C.3       10 UNK         0.0316 
      9 C9         18.3201  -29.4997  -44.5077 C.ar      10 UNK        -0.0863 
     10 C10        19.4980  -30.2491  -44.5961 C.ar      10 UNK        -0.1009 
     11 C11        20.0321  -30.8687  -43.4630 C.ar      10 UNK        -0.0712 
     12 C12        19.3824  -30.7291  -42.2353 C.ar      10 UNK        -0.0894 
     13 C13        18.2081  -29.9795  -42.1303 C.ar      10 UNK        -0.0745 
     14 C14        17.6675  -29.3829  -43.2754 C.ar      10 UNK        -0.0972 
     15 C15        17.5521  -29.7926  -40.7688 C.3       10 UNK         0.0209 
     16 S16        17.5857  -28.0570  -40.2073 S.3       10 UNK        -0.2568 
     17 C17        19.3583  -27.6128  -40.3233 C.3       10 UNK        -0.0983 
     18 CA         19.7070  -26.9202  -41.6714 C.3       3 UNK         0.0876 
     19 N          18.8227  -25.8003  -42.0064 N.am      3 UNK        -0.4424 
     20 C          18.7353  -24.6080  -41.4011 C.2       2 UNK         0.4918 
     21 O          19.3513  -24.3110  -40.3769 O.2       2 UNK        -0.4875 
     22 CA         17.8232  -23.5593  -42.0776 C.3       2 UNK         0.0481 
     23 CB         18.4412  -22.1467  -42.0281 C.3       2 UNK        -0.1831 
     24 N          17.4304  -23.8996  -43.4558 N.am      2 UNK        -0.4498 
     25 C          18.2272  -24.1129  -44.5151 C.2       1 UNK         0.5027 
     26 O          19.4548  -24.0161  -44.4740 O.2       1 UNK        -0.4969 
     27 C          21.2047  -26.5703  -41.8267 C.2       3 UNK         0.5005 
     28 O          22.0575  -27.2417  -41.2402 O.2       3 UNK        -0.5279 
     29 N          21.5155  -25.5584  -42.6555 N.am      4 UNK        -0.4463 
     30 CA         22.8613  -25.0532  -42.9458 C.3       4 UNK         0.0283 
     31 CB         22.7487  -23.6016  -43.4468 C.3       4 UNK        -0.1875 
     32 C          23.6293  -25.9623  -43.9266 C.2       4 UNK         0.4949 
     33 O          24.1483  -25.4955  -44.9416 O.2       4 UNK        -0.5039 
     34 N          23.6771  -27.2542  -43.5977 N.am      5 UNK        -0.4663 
     35 CA         24.3155  -28.3254  -44.3569 C.3       5 UNK         0.0242 
     36 CB         23.3430  -28.8523  -45.4304 C.3       5 UNK        -0.1982 
     37 C          24.8014  -29.4021  -43.3757 C.2       5 UNK         0.5017 
     38 O          24.4867  -30.5804  -43.5386 O.2       5 UNK        -0.5012 
     39 N          25.5144  -28.9511  -42.3317 N.am      6 UNK        -0.4439 
     40 CA         26.0856  -29.7146  -41.2097 C.3       6 UNK         0.0297 
     41 CB         27.0559  -30.8057  -41.7098 C.3       6 UNK        -0.2006 
     42 C          25.0602  -30.2918  -40.2117 C.2       6 UNK         0.4892 
     43 O          25.4799  -30.8799  -39.2137 O.2       6 UNK        -0.5089 
     44 N          23.7572  -30.1115  -40.4752 N.am      7 UNK        -0.4243 
     45 CA         22.5752  -30.5464  -39.7166 C.3       7 UNK         0.0196 
     46 CB         22.5145  -29.8760  -38.3317 C.3       7 UNK        -0.2007 
     47 C          22.4018  -32.0726  -39.6086 C.2       7 UNK         0.5020 
     48 O          21.3235  -32.5820  -39.9088 O.2       7 UNK        -0.5147 
     49 N          23.4581  -32.7901  -39.2169 N.am      8 UNK        -0.4734 
     50 CA         23.5087  -34.2478  -39.0858 C.3       8 UNK         0.0238 
     51 CB         24.5505  -34.6079  -38.0098 C.3       8 UNK        -0.1912 
     52 C          23.7852  -34.9398  -40.4363 C.2       8 UNK         0.5038 
     53 O          24.6730  -35.7909  -40.5196 O.2       8 UNK        -0.5046 
     54 N          23.0325  -34.5555  -41.4744 N.am      9 UNK        -0.4200 
     55 CA         23.1165  -35.1173  -42.8316 C.3       9 UNK         0.0839 
     56 C          22.4117  -36.4937  -43.0160 C.2       9 UNK         0.5513 
     57 N          21.6618  -36.9969  -42.0422 N.am      9 UNK        -0.7519 
     58 O          22.5639  -37.1256  -44.0585 O.2       9 UNK        -0.4960 
     59 C59        22.6954  -34.0854  -43.9109 C.3       10 UNK        -0.0876 
     60 S60        20.9929  -33.4480  -43.7159 S.3       10 UNK        -0.2414 
     61 C61        21.3211  -31.6691  -43.5557 C.3       10 UNK         0.0169 
     62 H62        14.6995  -22.0541  -47.1755 H         1 UNK         0.0903 
     63 H63        13.3580  -23.0556  -46.6180 H         1 UNK         0.0903 
     64 H64        13.9949  -21.7763  -45.5814 H         1 UNK         0.0903 
     65 H65        16.6575  -23.0831  -47.0331 H         1 UNK         0.3096 
     66 H66        18.2915  -24.4380  -46.6103 H         1 UNK         0.1121 
     67 H67        16.4458  -26.2694  -46.6060 H         1 UNK         0.0849 
     68 H68        16.5965  -26.3032  -44.8714 H         1 UNK         0.0849 
     69 H69        16.6860  -28.7046  -45.6723 H         1 UNK         0.0865 
     70 H70        17.9543  -29.4218  -46.6264 H         1 UNK         0.0865 
     71 H71        20.0046  -30.3418  -45.5472 H         1 UNK         0.1346 
     72 H72        19.7961  -31.2018  -41.3572 H         1 UNK         0.1412 
     73 H73        16.7619  -28.7967  -43.1960 H         1 UNK         0.1426 
     74 H74        18.0368  -30.4142  -40.0141 H         1 UNK         0.0716 
     75 H75        16.5153  -30.1274  -40.8219 H         1 UNK         0.0716 
     76 H76        19.9572  -28.5132  -40.1809 H         1 UNK         0.0695 
     77 H77        19.5986  -26.9543  -39.4871 H         1 UNK         0.0695 
     78 H78        19.5461  -27.6484  -42.4632 H         1 UNK         0.0983 
     79 H79        18.2565  -25.9355  -42.8302 H         1 UNK         0.3095 
     80 H80        16.9001  -23.5403  -41.4969 H         1 UNK         0.0454 
     81 H81        19.4063  -22.1084  -42.5342 H         1 UNK         0.0851 
     82 H82        18.6028  -21.8243  -40.9988 H         1 UNK         0.0851 
     83 H83        17.7874  -21.4108  -42.4959 H         1 UNK         0.0851 
     84 H84        16.4314  -24.0114  -43.6207 H         1 UNK         0.2976 
     85 H85        20.7592  -25.0961  -43.1491 H         1 UNK         0.3116 
     86 H86        23.4300  -25.0373  -42.0137 H         1 UNK         0.0646 
     87 H87        22.2300  -22.9708  -42.7247 H         1 UNK         0.0847 
     88 H88        23.7349  -23.1645  -43.6078 H         1 UNK         0.0847 
     89 H89        22.2070  -23.5428  -44.3919 H         1 UNK         0.0847 
     90 H90        23.2134  -27.5198  -42.7315 H         1 UNK         0.3040 
     91 H91        25.2055  -27.9385  -44.8584 H         1 UNK         0.1015 
     92 H92        22.3912  -29.1523  -44.9931 H         1 UNK         0.0786 
     93 H93        23.7570  -29.7138  -45.9560 H         1 UNK         0.0786 
     94 H94        23.1335  -28.0881  -46.1790 H         1 UNK         0.0786 
     95 H95        25.6786  -27.9536  -42.2916 H         1 UNK         0.3172 
     96 H96        26.6748  -28.9944  -40.6400 H         1 UNK         0.0595 
     97 H97        26.5334  -31.6108  -42.2273 H         1 UNK         0.0839 
     98 H98        27.5965  -31.2587  -40.8776 H         1 UNK         0.0839 
     99 H99        27.8008  -30.3949  -42.3911 H         1 UNK         0.0839 
    100 H100       23.5451  -29.6282  -41.3355 H         1 UNK         0.2998 
    101 H101       21.7219  -30.1789  -40.2873 H         1 UNK         0.0822 
    102 H102       21.5932  -30.1415  -37.8115 H         1 UNK         0.0787 
    103 H103       23.3461  -30.1762  -37.6937 H         1 UNK         0.0787 
    104 H104       22.5340  -28.7896  -38.4210 H         1 UNK         0.0787 
    105 H105       24.3223  -32.2775  -39.0485 H         1 UNK         0.3055 
    106 H106       22.5367  -34.6068  -38.7398 H         1 UNK         0.1106 
    107 H107       24.5843  -35.6848  -37.8392 H         1 UNK         0.0828 
    108 H108       25.5533  -34.2897  -38.2980 H         1 UNK         0.0828 
    109 H109       24.3123  -34.1393  -37.0548 H         1 UNK         0.0828 
    110 H110       22.3024  -33.8716  -41.3143 H         1 UNK         0.2931 
    111 H111       24.1721  -35.3237  -43.0196 H         1 UNK         0.0412 
    112 H112       21.2170  -37.8920  -42.1731 H         1 UNK         0.3472 
    113 H113       21.5239  -36.4844  -41.1864 H         1 UNK         0.3472 
    114 H114       23.3985  -33.2506  -43.8936 H         1 UNK         0.0970 
    115 H115       22.7895  -34.5144  -44.9102 H         1 UNK         0.0970 
    116 H116       21.9371  -31.4901  -42.6736 H         1 UNK         0.0612 
    117 H117       21.9069  -31.3438  -44.4155 H         1 UNK         0.0612 
@<TRIPOS>BOND
     1    1    2 1    
     2    1   62 1    
     3    1   63 1    
     4    1   64 1    
     5    2    3 2    
     6    2    4 am   BACKBONE|DICT|INTERRES
     7    4    5 1    
     8    4   65 1    
     9    5    6 1    
    10    5   25 1    
    11    5   66 1    
    12    6    7 1    
    13    6   67 1    
    14    6   68 1    
    15    7    8 1    
    16    8    9 1    
    17    8   69 1    
    18    8   70 1    
    19    9   10 ar   
    20    9   14 ar   
    21   10   11 ar   
    22   10   71 1    
    23   11   12 ar   
    24   11   61 1    
    25   12   13 ar   
    26   12   72 1    
    27   13   14 ar   
    28   13   15 1    
    29   14   73 1    
    30   15   16 1    
    31   15   74 1    
    32   15   75 1    
    33   16   17 1    
    34   17   18 1    
    35   17   76 1    
    36   17   77 1    
    37   18   19 1    
    38   18   27 1    
    39   18   78 1    
    40   19   20 am   BACKBONE|DICT|INTERRES
    41   19   79 1    
    42   20   21 2    
    43   20   22 1    
    44   22   23 1    
    45   22   24 1    
    46   22   80 1    
    47   23   81 1    
    48   23   82 1    
    49   23   83 1    
    50   24   25 am   BACKBONE|DICT|INTERRES
    51   24   84 1    
    52   25   26 2    
    53   27   28 2    
    54   27   29 am   BACKBONE|DICT|INTERRES
    55   29   30 1    
    56   29   85 1    
    57   30   31 1    
    58   30   32 1    
    59   30   86 1    
    60   31   87 1    
    61   31   88 1    
    62   31   89 1    
    63   32   33 2    
    64   32   34 am   BACKBONE|DICT|INTERRES
    65   34   35 1    
    66   34   90 1    
    67   35   36 1    
    68   35   37 1    
    69   35   91 1    
    70   36   92 1    
    71   36   93 1    
    72   36   94 1    
    73   37   38 2    
    74   37   39 am   BACKBONE|DICT|INTERRES
    75   39   40 1    
    76   39   95 1    
    77   40   41 1    
    78   40   42 1    
    79   40   96 1    
    80   41   97 1    
    81   41   98 1    
    82   41   99 1    
    83   42   43 2    
    84   42   44 am   BACKBONE|DICT|INTERRES
    85   44   45 1    
    86   44  100 1    
    87   45   46 1    
    88   45   47 1    
    89   45  101 1    
    90   46  102 1    
    91   46  103 1    
    92   46  104 1    
    93   47   48 2    
    94   47   49 am   BACKBONE|DICT|INTERRES
    95   49   50 1    
    96   49  105 1    
    97   50   51 1    
    98   50   52 1    
    99   50  106 1    
   100   51  107 1    
   101   51  108 1    
   102   51  109 1    
   103   52   53 2    
   104   52   54 am   BACKBONE|DICT|INTERRES
   105   54   55 1    
   106   54  110 1    
   107   55   56 1    
   108   55   59 1    
   109   55  111 1    
   110   56   57 am   BACKBONE|DICT|INTERRES
   111   56   58 2    
   112   57  112 1    
   113   57  113 1    
   114   59   60 1    
   115   59  114 1    
   116   59  115 1    
   117   60   61 1    
   118   61  116 1    
   119   61  117 1    
@<TRIPOS>SUBSTRUCTURE
     1 UNK         1 GROUP             0       ****    0 ROOT    
