@<TRIPOS>MOLECULE
3R8
117   119    1
SMALL
USER_CHARGES


@<TRIPOS>ATOM
      1 CA         12.7543  -25.5757  -41.2361 C.3       0 UNK        -0.2013 
      2 C          13.7962  -25.8239  -42.3165 C.2       0 UNK         0.4866 
      3 O          14.6083  -24.9423  -42.5983 O.2       0 UNK        -0.5176 
      4 N          13.7771  -27.0147  -42.9290 N.am      1 UNK        -0.4884 
      5 CA         14.7445  -27.4520  -43.9390 C.3       1 UNK         0.0853 
      6 C6         14.1589  -28.6089  -44.7970 C.3       10 UNK        -0.0849 
      7 S7         14.8215  -28.9216  -46.4810 S.3       10 UNK        -0.2776 
      8 C8         16.3097  -27.8872  -46.7459 C.3       10 UNK         0.0316 
      9 C9         17.6531  -28.5319  -46.3924 C.ar      10 UNK        -0.0863 
     10 C10        17.7761  -29.6666  -45.5781 C.ar      10 UNK        -0.1009 
     11 C11        19.0339  -30.2085  -45.2907 C.ar      10 UNK        -0.0712 
     12 C12        20.1813  -29.6108  -45.8207 C.ar      10 UNK        -0.0894 
     13 C13        20.0744  -28.4860  -46.6429 C.ar      10 UNK        -0.0745 
     14 C14        18.8122  -27.9535  -46.9179 C.ar      10 UNK        -0.0972 
     15 C15        21.3084  -27.8653  -47.2811 C.3       10 UNK         0.0209 
     16 S16        21.6579  -26.2005  -46.6329 S.3       10 UNK        -0.2568 
     17 C17        22.5664  -26.5711  -45.0999 C.3       10 UNK        -0.0983 
     18 CA         21.8694  -25.9935  -43.8432 C.3       3 UNK         0.0876 
     19 N          20.7010  -26.7721  -43.4448 N.am      3 UNK        -0.4424 
     20 C          19.4324  -26.3609  -43.4972 C.2       2 UNK         0.4918 
     21 O          19.0564  -25.3073  -44.0177 O.2       2 UNK        -0.4875 
     22 CA         18.4182  -27.2649  -42.7912 C.3       2 UNK         0.0481 
     23 CB         18.4384  -27.0279  -41.2684 C.3       2 UNK        -0.1831 
     24 N          17.0853  -27.0176  -43.3305 N.am      2 UNK        -0.4498 
     25 C          16.0479  -27.8546  -43.2228 C.2       1 UNK         0.5027 
     26 O          16.0741  -28.9010  -42.5709 O.2       1 UNK        -0.4969 
     27 C          22.8366  -26.0351  -42.6527 C.2       3 UNK         0.5005 
     28 O          22.9628  -27.0840  -42.0162 O.2       3 UNK        -0.5279 
     29 N          23.5471  -24.9265  -42.4030 N.am      4 UNK        -0.4463 
     30 CA         24.5587  -24.8128  -41.3428 C.3       4 UNK         0.0283 
     31 CB         24.9800  -23.3414  -41.1974 C.3       4 UNK        -0.1875 
     32 C          25.7947  -25.7058  -41.5667 C.2       4 UNK         0.4949 
     33 O          26.4757  -26.0507  -40.6013 O.2       4 UNK        -0.5039 
     34 N          26.0569  -26.0654  -42.8305 N.am      5 UNK        -0.4663 
     35 CA         27.1250  -26.9785  -43.2387 C.3       5 UNK         0.0242 
     36 CB         27.4508  -26.7243  -44.7203 C.3       5 UNK        -0.1982 
     37 C          26.7847  -28.4641  -43.0132 C.2       5 UNK         0.5017 
     38 O          27.7000  -29.2882  -43.0431 O.2       5 UNK        -0.5012 
     39 N          25.4994  -28.7945  -42.8167 N.am      6 UNK        -0.4439 
     40 CA         25.0367  -30.1576  -42.5568 C.3       6 UNK         0.0297 
     41 CB         23.5792  -30.3018  -43.0310 C.3       6 UNK        -0.2006 
     42 C          25.1498  -30.4807  -41.0607 C.2       6 UNK         0.4892 
     43 O          24.9655  -29.5945  -40.2226 O.2       6 UNK        -0.5089 
     44 N          25.3859  -31.7597  -40.7432 N.am      7 UNK        -0.4243 
     45 CA         25.4279  -32.2940  -39.3774 C.3       7 UNK         0.0196 
     46 CB         26.2575  -33.5918  -39.3741 C.3       7 UNK        -0.2007 
     47 C          24.0048  -32.4990  -38.8234 C.2       7 UNK         0.5020 
     48 O          23.5906  -33.6344  -38.5830 O.2       7 UNK        -0.5147 
     49 N          23.2544  -31.3926  -38.7095 N.am      8 UNK        -0.4734 
     50 CA         21.8386  -31.3006  -38.3158 C.3       8 UNK         0.0238 
     51 CB         21.6731  -31.6498  -36.8215 C.3       8 UNK        -0.1912 
     52 C          20.8897  -32.1183  -39.2202 C.2       8 UNK         0.5038 
     53 O          19.8258  -32.5413  -38.7646 O.2       8 UNK        -0.5046 
     54 N          21.3107  -32.3416  -40.4739 N.am      9 UNK        -0.4200 
     55 CA         20.6805  -33.2242  -41.4700 C.3       9 UNK         0.0839 
     56 C          20.6921  -34.7369  -41.0842 C.2       9 UNK         0.5513 
     57 N          21.5271  -35.1803  -40.1505 N.am      9 UNK        -0.7519 
     58 O          19.9580  -35.5336  -41.6633 O.2       9 UNK        -0.4960 
     59 C59        19.2829  -32.7229  -41.9329 C.3       10 UNK        -0.0876 
     60 S60        19.3519  -31.0559  -42.6738 S.3       10 UNK        -0.2414 
     61 C61        19.1471  -31.4602  -44.4341 C.3       10 UNK         0.0169 
     62 H62        13.2432  -25.3657  -40.2851 H         1 UNK         0.0903 
     63 H63        12.1383  -24.7162  -41.4996 H         1 UNK         0.0903 
     64 H64        12.0970  -26.4339  -41.0973 H         1 UNK         0.0903 
     65 H65        13.1097  -27.7128  -42.6313 H         1 UNK         0.3096 
     66 H66        14.9256  -26.5938  -44.5861 H         1 UNK         0.1121 
     67 H67        13.0968  -28.4150  -44.9570 H         1 UNK         0.0849 
     68 H68        14.1809  -29.5523  -44.2476 H         1 UNK         0.0849 
     69 H69        16.3272  -27.6628  -47.8138 H         1 UNK         0.0865 
     70 H70        16.2267  -26.9176  -46.2609 H         1 UNK         0.0865 
     71 H71        16.8985  -30.1351  -45.1560 H         1 UNK         0.1346 
     72 H72        21.1534  -30.0332  -45.6063 H         1 UNK         0.1412 
     73 H73        18.7361  -27.0814  -47.5537 H         1 UNK         0.1426 
     74 H74        21.1432  -27.7886  -48.3567 H         1 UNK         0.0716 
     75 H75        22.1839  -28.5046  -47.1572 H         1 UNK         0.0716 
     76 H76        22.7141  -27.6480  -44.9981 H         1 UNK         0.0695 
     77 H77        23.5626  -26.1419  -45.2244 H         1 UNK         0.0695 
     78 H78        21.5901  -24.9526  -44.0224 H         1 UNK         0.0983 
     79 H79        20.9258  -27.6184  -42.9389 H         1 UNK         0.3095 
     80 H80        18.6907  -28.2984  -43.0026 H         1 UNK         0.0454 
     81 H81        19.4373  -27.1815  -40.8581 H         1 UNK         0.0851 
     82 H82        18.1335  -26.0113  -41.0176 H         1 UNK         0.0851 
     83 H83        17.7720  -27.7153  -40.7476 H         1 UNK         0.0851 
     84 H84        17.0023  -26.1563  -43.8566 H         1 UNK         0.2976 
     85 H85        23.3957  -24.1057  -42.9732 H         1 UNK         0.3116 
     86 H86        24.0967  -25.1294  -40.4051 H         1 UNK         0.0646 
     87 H87        25.7104  -23.2227  -40.3957 H         1 UNK         0.0847 
     88 H88        24.1291  -22.7056  -40.9523 H         1 UNK         0.0847 
     89 H89        25.4361  -22.9582  -42.1111 H         1 UNK         0.0847 
     90 H90        25.4579  -25.7098  -43.5606 H         1 UNK         0.3040 
     91 H91        28.0180  -26.7585  -42.6488 H         1 UNK         0.1015 
     92 H92        26.5944  -26.9295  -45.3640 H         1 UNK         0.0786 
     93 H93        28.2700  -27.3623  -45.0554 H         1 UNK         0.0786 
     94 H94        27.7589  -25.6920  -44.8879 H         1 UNK         0.0786 
     95 H95        24.8174  -28.0577  -42.6814 H         1 UNK         0.3172 
     96 H96        25.6512  -30.8611  -43.1230 H         1 UNK         0.0595 
     97 H97        23.2406  -31.3350  -42.9469 H         1 UNK         0.0839 
     98 H98        22.8955  -29.6891  -42.4423 H         1 UNK         0.0839 
     99 H99        23.4705  -30.0134  -44.0765 H         1 UNK         0.0839 
    100 H100       25.4983  -32.4318  -41.4892 H         1 UNK         0.2998 
    101 H101       25.9317  -31.5753  -38.7271 H         1 UNK         0.0822 
    102 H102       26.3255  -34.0083  -38.3681 H         1 UNK         0.0787 
    103 H103       25.8169  -34.3571  -40.0146 H         1 UNK         0.0787 
    104 H104       27.2763  -33.4120  -39.7179 H         1 UNK         0.0787 
    105 H105       23.6926  -30.5202  -38.9960 H         1 UNK         0.3055 
    106 H106       21.5483  -30.2569  -38.4475 H         1 UNK         0.1106 
    107 H107       21.8841  -32.7019  -36.6268 H         1 UNK         0.0828 
    108 H108       22.3389  -31.0531  -36.1981 H         1 UNK         0.0828 
    109 H109       20.6550  -31.4547  -36.4823 H         1 UNK         0.0828 
    110 H110       22.2029  -31.9548  -40.7382 H         1 UNK         0.2931 
    111 H111       21.3346  -33.1735  -42.3413 H         1 UNK         0.0412 
    112 H112       21.5292  -36.1619  -39.9229 H         1 UNK         0.3472 
    113 H113       22.1530  -34.5510  -39.6587 H         1 UNK         0.3472 
    114 H114       18.5841  -32.7020  -41.0957 H         1 UNK         0.0970 
    115 H115       18.8472  -33.4112  -42.6589 H         1 UNK         0.0970 
    116 H116       18.2548  -32.0749  -44.5633 H         1 UNK         0.0612 
    117 H117       19.9918  -32.0671  -44.7640 H         1 UNK         0.0612 
@<TRIPOS>BOND
     1    1    2 1    
     2    1   62 1    
     3    1   63 1    
     4    1   64 1    
     5    2    3 2    
     6    2    4 am   BACKBONE|DICT|INTERRES
     7    4    5 1    
     8    4   65 1    
     9    5    6 1    
    10    5   25 1    
    11    5   66 1    
    12    6    7 1    
    13    6   67 1    
    14    6   68 1    
    15    7    8 1    
    16    8    9 1    
    17    8   69 1    
    18    8   70 1    
    19    9   10 ar   
    20    9   14 ar   
    21   10   11 ar   
    22   10   71 1    
    23   11   12 ar   
    24   11   61 1    
    25   12   13 ar   
    26   12   72 1    
    27   13   14 ar   
    28   13   15 1    
    29   14   73 1    
    30   15   16 1    
    31   15   74 1    
    32   15   75 1    
    33   16   17 1    
    34   17   18 1    
    35   17   76 1    
    36   17   77 1    
    37   18   19 1    
    38   18   27 1    
    39   18   78 1    
    40   19   20 am   BACKBONE|DICT|INTERRES
    41   19   79 1    
    42   20   21 2    
    43   20   22 1    
    44   22   23 1    
    45   22   24 1    
    46   22   80 1    
    47   23   81 1    
    48   23   82 1    
    49   23   83 1    
    50   24   25 am   BACKBONE|DICT|INTERRES
    51   24   84 1    
    52   25   26 2    
    53   27   28 2    
    54   27   29 am   BACKBONE|DICT|INTERRES
    55   29   30 1    
    56   29   85 1    
    57   30   31 1    
    58   30   32 1    
    59   30   86 1    
    60   31   87 1    
    61   31   88 1    
    62   31   89 1    
    63   32   33 2    
    64   32   34 am   BACKBONE|DICT|INTERRES
    65   34   35 1    
    66   34   90 1    
    67   35   36 1    
    68   35   37 1    
    69   35   91 1    
    70   36   92 1    
    71   36   93 1    
    72   36   94 1    
    73   37   38 2    
    74   37   39 am   BACKBONE|DICT|INTERRES
    75   39   40 1    
    76   39   95 1    
    77   40   41 1    
    78   40   42 1    
    79   40   96 1    
    80   41   97 1    
    81   41   98 1    
    82   41   99 1    
    83   42   43 2    
    84   42   44 am   BACKBONE|DICT|INTERRES
    85   44   45 1    
    86   44  100 1    
    87   45   46 1    
    88   45   47 1    
    89   45  101 1    
    90   46  102 1    
    91   46  103 1    
    92   46  104 1    
    93   47   48 2    
    94   47   49 am   BACKBONE|DICT|INTERRES
    95   49   50 1    
    96   49  105 1    
    97   50   51 1    
    98   50   52 1    
    99   50  106 1    
   100   51  107 1    
   101   51  108 1    
   102   51  109 1    
   103   52   53 2    
   104   52   54 am   BACKBONE|DICT|INTERRES
   105   54   55 1    
   106   54  110 1    
   107   55   56 1    
   108   55   59 1    
   109   55  111 1    
   110   56   57 am   BACKBONE|DICT|INTERRES
   111   56   58 2    
   112   57  112 1    
   113   57  113 1    
   114   59   60 1    
   115   59  114 1    
   116   59  115 1    
   117   60   61 1    
   118   61  116 1    
   119   61  117 1    
@<TRIPOS>SUBSTRUCTURE
     1 UNK         1 GROUP             0       ****    0 ROOT    
