@<TRIPOS>MOLECULE
3R8
117   119    1
SMALL
USER_CHARGES


@<TRIPOS>ATOM
      1 CA         13.4215  -23.8916  -47.2963 C.3       0 UNK        -0.2013 
      2 C          13.8467  -24.8456  -46.1894 C.2       0 UNK         0.4866 
      3 O          13.1638  -24.9316  -45.1681 O.2       0 UNK        -0.5176 
      4 N          14.9637  -25.5581  -46.3957 N.am      1 UNK        -0.4884 
      5 CA         15.5920  -26.5145  -45.4701 C.3       1 UNK         0.0853 
      6 C6         14.6894  -27.7480  -45.1545 C.3       10 UNK        -0.0849 
      7 S7         14.6424  -28.8938  -46.5728 S.3       10 UNK        -0.2776 
      8 C8         15.6967  -30.2671  -45.9847 C.3       10 UNK         0.0316 
      9 C9         17.0637  -29.8040  -45.4883 C.ar      10 UNK        -0.0863 
     10 C10        17.4637  -30.0698  -44.1736 C.ar      10 UNK        -0.1009 
     11 C11        18.7129  -29.6434  -43.7122 C.ar      10 UNK        -0.0712 
     12 C12        19.5633  -28.9485  -44.5747 C.ar      10 UNK        -0.0894 
     13 C13        19.1685  -28.6559  -45.8832 C.ar      10 UNK        -0.0745 
     14 C14        17.9267  -29.1068  -46.3399 C.ar      10 UNK        -0.0972 
     15 C15        20.0763  -27.8556  -46.8070 C.3       10 UNK         0.0209 
     16 S16        20.0503  -26.0731  -46.4125 S.3       10 UNK        -0.2568 
     17 C17        21.3025  -25.9744  -45.0848 C.3       10 UNK        -0.0983 
     18 CA         20.7867  -25.4165  -43.7280 C.3       3 UNK         0.0876 
     19 N          19.4790  -25.9567  -43.3448 N.am      3 UNK        -0.4424 
     20 C          18.7251  -25.5110  -42.3305 C.2       2 UNK         0.4918 
     21 O          19.0196  -24.5374  -41.6343 O.2       2 UNK        -0.4875 
     22 CA         17.4216  -26.2903  -42.0630 C.3       2 UNK         0.0481 
     23 CB         16.4739  -25.5725  -41.0784 C.3       2 UNK        -0.1831 
     24 N          16.7218  -26.6648  -43.2983 N.am      2 UNK        -0.4498 
     25 C          16.1898  -25.8381  -44.2136 C.2       1 UNK         0.5027 
     26 O          16.2145  -24.6081  -44.1174 O.2       1 UNK        -0.4969 
     27 C          21.8387  -25.7008  -42.6351 C.2       3 UNK         0.5005 
     28 O          21.7250  -26.7002  -41.9174 O.2       3 UNK        -0.5279 
     29 N          22.8942  -24.8775  -42.5828 N.am      4 UNK        -0.4463 
     30 CA         24.0699  -25.0698  -41.7254 C.3       4 UNK         0.0283 
     31 CB         24.7848  -23.7177  -41.5430 C.3       4 UNK        -0.1875 
     32 C          25.0047  -26.1654  -42.2821 C.2       4 UNK         0.4949 
     33 O          26.1603  -25.8908  -42.6083 O.2       4 UNK        -0.5039 
     34 N          24.4683  -27.3853  -42.4141 N.am      5 UNK        -0.4663 
     35 CA         25.1438  -28.5548  -42.9829 C.3       5 UNK         0.0242 
     36 CB         24.0944  -29.6371  -43.2887 C.3       5 UNK        -0.1982 
     37 C          26.2531  -29.1224  -42.0817 C.2       5 UNK         0.5017 
     38 O          27.2121  -29.6942  -42.5999 O.2       5 UNK        -0.5012 
     39 N          26.0883  -28.9668  -40.7580 N.am      6 UNK        -0.4439 
     40 CA         26.9799  -29.4187  -39.6771 C.3       6 UNK         0.0297 
     41 CB         28.3446  -28.7019  -39.7560 C.3       6 UNK        -0.2006 
     42 C          27.1346  -30.9521  -39.5595 C.2       6 UNK         0.4892 
     43 O          28.0153  -31.4168  -38.8337 O.2       6 UNK        -0.5089 
     44 N          26.2701  -31.7099  -40.2412 N.am      7 UNK        -0.4243 
     45 CA         26.1981  -33.1660  -40.2542 C.3       7 UNK         0.0196 
     46 CB         27.3181  -33.7491  -41.1364 C.3       7 UNK        -0.2007 
     47 C          24.8184  -33.5567  -40.7934 C.2       7 UNK         0.5020 
     48 O          24.1953  -32.7550  -41.4957 O.2       7 UNK        -0.5147 
     49 N          24.3709  -34.7745  -40.4572 N.am      8 UNK        -0.4734 
     50 CA         23.0940  -35.4210  -40.8120 C.3       8 UNK         0.0238 
     51 CB         22.9510  -35.5940  -42.3376 C.3       8 UNK        -0.1912 
     52 C          21.8441  -34.7504  -40.2095 C.2       8 UNK         0.5038 
     53 O          21.0205  -35.4415  -39.6084 O.2       8 UNK        -0.5046 
     54 N          21.7306  -33.4303  -40.3768 N.am      9 UNK        -0.4200 
     55 CA         20.6990  -32.5598  -39.8021 C.3       9 UNK         0.0839 
     56 C          20.7570  -32.5241  -38.2508 C.2       9 UNK         0.5513 
     57 N          19.6096  -32.4658  -37.5892 N.am      9 UNK        -0.7519 
     58 O          21.8286  -32.5023  -37.6482 O.2       9 UNK        -0.4960 
     59 C59        20.8087  -31.1270  -40.3819 C.3       10 UNK        -0.0876 
     60 S60        20.5162  -31.0861  -42.1835 S.3       10 UNK        -0.2414 
     61 C61        19.1411  -29.9009  -42.2754 C.3       10 UNK         0.0169 
     62 H62        14.1026  -23.9212  -48.1466 H         1 UNK         0.0903 
     63 H63        12.4246  -24.1506  -47.6521 H         1 UNK         0.0903 
     64 H64        13.3941  -22.8694  -46.9197 H         1 UNK         0.0903 
     65 H65        15.4754  -25.4101  -47.2545 H         1 UNK         0.3096 
     66 H66        16.4739  -26.8681  -46.0034 H         1 UNK         0.1121 
     67 H67        15.0214  -28.3087  -44.2810 H         1 UNK         0.0849 
     68 H68        13.6697  -27.4449  -44.9165 H         1 UNK         0.0849 
     69 H69        15.1623  -30.8061  -45.2008 H         1 UNK         0.0865 
     70 H70        15.8378  -30.9782  -46.7998 H         1 UNK         0.0865 
     71 H71        16.8031  -30.6090  -43.5078 H         1 UNK         0.1346 
     72 H72        20.5312  -28.6341  -44.2119 H         1 UNK         0.1412 
     73 H73        17.6165  -28.8957  -47.3547 H         1 UNK         0.1426 
     74 H74        19.7572  -27.9794  -47.8430 H         1 UNK         0.0716 
     75 H75        21.0953  -28.2426  -46.7633 H         1 UNK         0.0716 
     76 H76        22.1079  -25.3369  -45.4540 H         1 UNK         0.0695 
     77 H77        21.7621  -26.9554  -44.9572 H         1 UNK         0.0695 
     78 H78        20.6708  -24.3343  -43.8201 H         1 UNK         0.0983 
     79 H79        19.1601  -26.7533  -43.8757 H         1 UNK         0.3095 
     80 H80        17.7228  -27.2266  -41.5924 H         1 UNK         0.0454 
     81 H81        16.9577  -25.4210  -40.1127 H         1 UNK         0.0851 
     82 H82        15.5712  -26.1561  -40.8986 H         1 UNK         0.0851 
     83 H83        16.1718  -24.5910  -41.4448 H         1 UNK         0.0851 
     84 H84        16.6916  -27.6572  -43.4878 H         1 UNK         0.2976 
     85 H85        22.9409  -24.1059  -43.2337 H         1 UNK         0.3116 
     86 H86        23.7357  -25.4007  -40.7396 H         1 UNK         0.0646 
     87 H87        24.1233  -22.9755  -41.0960 H         1 UNK         0.0847 
     88 H88        25.1465  -23.3182  -42.4913 H         1 UNK         0.0847 
     89 H89        25.6471  -23.8184  -40.8823 H         1 UNK         0.0847 
     90 H90        23.4909  -27.4898  -42.1528 H         1 UNK         0.3040 
     91 H91        25.6112  -28.2526  -43.9229 H         1 UNK         0.1015 
     92 H92        24.5590  -30.5220  -43.7266 H         1 UNK         0.0786 
     93 H93        23.3480  -29.2794  -43.9983 H         1 UNK         0.0786 
     94 H94        23.5700  -29.9606  -42.3884 H         1 UNK         0.0786 
     95 H95        25.2503  -28.4873  -40.4589 H         1 UNK         0.3172 
     96 H96        26.5005  -29.1016  -38.7499 H         1 UNK         0.0595 
     97 H97        28.9483  -28.9077  -38.8712 H         1 UNK         0.0839 
     98 H98        28.2226  -27.6204  -39.8177 H         1 UNK         0.0839 
     99 H99        28.9223  -29.0244  -40.6227 H         1 UNK         0.0839 
    100 H100       25.5532  -31.2646  -40.8010 H         1 UNK         0.2998 
    101 H101       26.2964  -33.5360  -39.2314 H         1 UNK         0.0822 
    102 H102       28.3049  -33.4951  -40.7492 H         1 UNK         0.0787 
    103 H103       27.2596  -34.8374  -41.1794 H         1 UNK         0.0787 
    104 H104       27.2554  -33.3766  -42.1599 H         1 UNK         0.0787 
    105 H105       24.9648  -35.3309  -39.8564 H         1 UNK         0.3055 
    106 H106       23.1411  -36.4217  -40.3784 H         1 UNK         0.1106 
    107 H107       23.7968  -36.1399  -42.7554 H         1 UNK         0.0828 
    108 H108       22.0496  -36.1580  -42.5811 H         1 UNK         0.0828 
    109 H109       22.8813  -34.6371  -42.8558 H         1 UNK         0.0828 
    110 H110       22.4834  -32.9660  -40.8783 H         1 UNK         0.2931 
    111 H111       19.7317  -32.9744  -40.0937 H         1 UNK         0.0412 
    112 H112       18.7259  -32.4749  -38.0752 H         1 UNK         0.3472 
    113 H113       19.6259  -32.4254  -36.5817 H         1 UNK         0.3472 
    114 H114       20.0975  -30.4621  -39.8878 H         1 UNK         0.0970 
    115 H115       21.7970  -30.7072  -40.1842 H         1 UNK         0.0970 
    116 H116       19.4550  -28.9595  -41.8215 H         1 UNK         0.0612 
    117 H117       18.3044  -30.2737  -41.6825 H         1 UNK         0.0612 
@<TRIPOS>BOND
     1    1    2 1    
     2    1   62 1    
     3    1   63 1    
     4    1   64 1    
     5    2    3 2    
     6    2    4 am   BACKBONE|DICT|INTERRES
     7    4    5 1    
     8    4   65 1    
     9    5    6 1    
    10    5   25 1    
    11    5   66 1    
    12    6    7 1    
    13    6   67 1    
    14    6   68 1    
    15    7    8 1    
    16    8    9 1    
    17    8   69 1    
    18    8   70 1    
    19    9   10 ar   
    20    9   14 ar   
    21   10   11 ar   
    22   10   71 1    
    23   11   12 ar   
    24   11   61 1    
    25   12   13 ar   
    26   12   72 1    
    27   13   14 ar   
    28   13   15 1    
    29   14   73 1    
    30   15   16 1    
    31   15   74 1    
    32   15   75 1    
    33   16   17 1    
    34   17   18 1    
    35   17   76 1    
    36   17   77 1    
    37   18   19 1    
    38   18   27 1    
    39   18   78 1    
    40   19   20 am   BACKBONE|DICT|INTERRES
    41   19   79 1    
    42   20   21 2    
    43   20   22 1    
    44   22   23 1    
    45   22   24 1    
    46   22   80 1    
    47   23   81 1    
    48   23   82 1    
    49   23   83 1    
    50   24   25 am   BACKBONE|DICT|INTERRES
    51   24   84 1    
    52   25   26 2    
    53   27   28 2    
    54   27   29 am   BACKBONE|DICT|INTERRES
    55   29   30 1    
    56   29   85 1    
    57   30   31 1    
    58   30   32 1    
    59   30   86 1    
    60   31   87 1    
    61   31   88 1    
    62   31   89 1    
    63   32   33 2    
    64   32   34 am   BACKBONE|DICT|INTERRES
    65   34   35 1    
    66   34   90 1    
    67   35   36 1    
    68   35   37 1    
    69   35   91 1    
    70   36   92 1    
    71   36   93 1    
    72   36   94 1    
    73   37   38 2    
    74   37   39 am   BACKBONE|DICT|INTERRES
    75   39   40 1    
    76   39   95 1    
    77   40   41 1    
    78   40   42 1    
    79   40   96 1    
    80   41   97 1    
    81   41   98 1    
    82   41   99 1    
    83   42   43 2    
    84   42   44 am   BACKBONE|DICT|INTERRES
    85   44   45 1    
    86   44  100 1    
    87   45   46 1    
    88   45   47 1    
    89   45  101 1    
    90   46  102 1    
    91   46  103 1    
    92   46  104 1    
    93   47   48 2    
    94   47   49 am   BACKBONE|DICT|INTERRES
    95   49   50 1    
    96   49  105 1    
    97   50   51 1    
    98   50   52 1    
    99   50  106 1    
   100   51  107 1    
   101   51  108 1    
   102   51  109 1    
   103   52   53 2    
   104   52   54 am   BACKBONE|DICT|INTERRES
   105   54   55 1    
   106   54  110 1    
   107   55   56 1    
   108   55   59 1    
   109   55  111 1    
   110   56   57 am   BACKBONE|DICT|INTERRES
   111   56   58 2    
   112   57  112 1    
   113   57  113 1    
   114   59   60 1    
   115   59  114 1    
   116   59  115 1    
   117   60   61 1    
   118   61  116 1    
   119   61  117 1    
@<TRIPOS>SUBSTRUCTURE
     1 UNK         1 GROUP             0       ****    0 ROOT    
