@<TRIPOS>MOLECULE
3R8
117   119    1
SMALL
USER_CHARGES


@<TRIPOS>ATOM
      1 CA         16.9469  -26.9428  -41.3663 C.3       0 UNK        -0.2013 
      2 C          17.4317  -26.7188  -42.7898 C.2       0 UNK         0.4866 
      3 O          18.5396  -27.1352  -43.1341 O.2       0 UNK        -0.5176 
      4 N          16.6130  -26.0377  -43.6070 N.am      1 UNK        -0.4884 
      5 CA         16.7528  -25.8481  -45.0646 C.3       1 UNK         0.0853 
      6 C6         16.6233  -27.1832  -45.8484 C.3       10 UNK        -0.0849 
      7 S7         15.1257  -28.1473  -45.4238 S.3       10 UNK        -0.2776 
      8 C8         15.4186  -29.7277  -46.2916 C.3       10 UNK         0.0316 
      9 C9         16.7676  -30.3345  -45.9332 C.ar      10 UNK        -0.0863 
     10 C10        16.9527  -30.9909  -44.7121 C.ar      10 UNK        -0.1009 
     11 C11        18.2165  -31.4703  -44.3493 C.ar      10 UNK        -0.0712 
     12 C12        19.2924  -31.3025  -45.2264 C.ar      10 UNK        -0.0894 
     13 C13        19.1231  -30.6148  -46.4321 C.ar      10 UNK        -0.0745 
     14 C14        17.8525  -30.1688  -46.7982 C.ar      10 UNK        -0.0972 
     15 C15        20.3270  -30.2494  -47.2868 C.3       10 UNK         0.0209 
     16 S16        20.8363  -28.5207  -46.9814 S.3       10 UNK        -0.2568 
     17 C17        21.2046  -28.6014  -45.1993 C.3       10 UNK        -0.0983 
     18 CA         21.8051  -27.3052  -44.6136 C.3       3 UNK         0.0876 
     19 N          20.8533  -26.1935  -44.6261 N.am      3 UNK        -0.4424 
     20 C          21.1828  -24.8980  -44.7168 C.2       2 UNK         0.4918 
     21 O          22.3415  -24.5065  -44.8601 O.2       2 UNK        -0.4875 
     22 CA         20.0511  -23.8520  -44.5843 C.3       2 UNK         0.0481 
     23 CB         20.1519  -22.7467  -45.6562 C.3       2 UNK        -0.1831 
     24 N          18.7005  -24.4300  -44.5222 N.am      2 UNK        -0.4498 
     25 C          18.0326  -25.0825  -45.4873 C.2       1 UNK         0.5027 
     26 O          18.4078  -25.1304  -46.6593 O.2       1 UNK        -0.4969 
     27 C          22.2708  -27.5868  -43.1762 C.2       3 UNK         0.5005 
     28 O          23.4491  -27.8846  -42.9763 O.2       3 UNK        -0.5279 
     29 N          21.3476  -27.4971  -42.2037 N.am      4 UNK        -0.4463 
     30 CA         21.5213  -27.8860  -40.7949 C.3       4 UNK         0.0283 
     31 CB         20.1860  -27.7073  -40.0587 C.3       4 UNK        -0.1875 
     32 C          22.6558  -27.1838  -40.0222 C.2       4 UNK         0.4949 
     33 O          23.0012  -27.6267  -38.9269 O.2       4 UNK        -0.5039 
     34 N          23.2322  -26.1208  -40.5978 N.am      5 UNK        -0.4663 
     35 CA         24.4679  -25.4890  -40.1322 C.3       5 UNK         0.0242 
     36 CB         24.6615  -24.1615  -40.8830 C.3       5 UNK        -0.1982 
     37 C          25.7104  -26.3890  -40.2983 C.2       5 UNK         0.5017 
     38 O          26.6886  -26.1839  -39.5784 O.2       5 UNK        -0.5012 
     39 N          25.6567  -27.3517  -41.2309 N.am      6 UNK        -0.4439 
     40 CA         26.7232  -28.3146  -41.5125 C.3       6 UNK         0.0297 
     41 CB         27.3875  -27.9612  -42.8536 C.3       6 UNK        -0.2006 
     42 C          26.2132  -29.7650  -41.5282 C.2       6 UNK         0.4892 
     43 O          26.9301  -30.6502  -41.0590 O.2       6 UNK        -0.5089 
     44 N          25.0115  -29.9994  -42.0742 N.am      7 UNK        -0.4243 
     45 CA         24.3907  -31.3213  -42.1743 C.3       7 UNK         0.0196 
     46 CB         23.2669  -31.2763  -43.2220 C.3       7 UNK        -0.2007 
     47 C          23.8313  -31.7924  -40.8249 C.2       7 UNK         0.5020 
     48 O          23.3271  -30.9828  -40.0447 O.2       7 UNK        -0.5147 
     49 N          23.8697  -33.1097  -40.5980 N.am      8 UNK        -0.4734 
     50 CA         23.3308  -33.7702  -39.4066 C.3       8 UNK         0.0238 
     51 CB         24.1303  -35.0624  -39.1501 C.3       8 UNK        -0.1912 
     52 C          21.8160  -34.0233  -39.5386 C.2       8 UNK         0.5038 
     53 O          21.3779  -35.1744  -39.4799 O.2       8 UNK        -0.5046 
     54 N          21.0465  -32.9467  -39.7412 N.am      9 UNK        -0.4200 
     55 CA         19.5775  -32.9618  -39.8062 C.3       9 UNK         0.0839 
     56 C          18.9290  -33.3823  -38.4586 C.2       9 UNK         0.5513 
     57 N          17.8172  -34.1033  -38.5039 N.am      9 UNK        -0.7519 
     58 O          19.3978  -33.0232  -37.3801 O.2       9 UNK        -0.4960 
     59 C59        19.0049  -31.5993  -40.2735 C.3       10 UNK        -0.0876 
     60 S60        19.5472  -31.1182  -41.9462 S.3       10 UNK        -0.2414 
     61 C61        18.4333  -32.1184  -42.9891 C.3       10 UNK         0.0169 
     62 H62        17.0499  -27.9942  -41.0989 H         1 UNK         0.0903 
     63 H63        17.5338  -26.3480  -40.6680 H         1 UNK         0.0903 
     64 H64        15.8987  -26.6699  -41.2467 H         1 UNK         0.0903 
     65 H65        15.7374  -25.7007  -43.2301 H         1 UNK         0.3096 
     66 H66        15.9220  -25.2086  -45.3673 H         1 UNK         0.1121 
     67 H67        17.5072  -27.7884  -45.6456 H         1 UNK         0.0849 
     68 H68        16.6108  -27.0059  -46.9255 H         1 UNK         0.0849 
     69 H69        14.6220  -30.4280  -46.0364 H         1 UNK         0.0865 
     70 H70        15.3453  -29.5634  -47.3679 H         1 UNK         0.0865 
     71 H71        16.1196  -31.0924  -44.0301 H         1 UNK         0.1346 
     72 H72        20.2771  -31.6378  -44.9304 H         1 UNK         0.1412 
     73 H73        17.7266  -29.6206  -47.7222 H         1 UNK         0.1426 
     74 H74        20.0836  -30.3714  -48.3432 H         1 UNK         0.0716 
     75 H75        21.1645  -30.9183  -47.0823 H         1 UNK         0.0716 
     76 H76        21.8865  -29.4408  -45.0549 H         1 UNK         0.0695 
     77 H77        20.2866  -28.8495  -44.6633 H         1 UNK         0.0695 
     78 H78        22.6865  -27.0382  -45.2010 H         1 UNK         0.0983 
     79 H79        19.8852  -26.4391  -44.4479 H         1 UNK         0.3095 
     80 H80        20.2049  -23.3756  -43.6151 H         1 UNK         0.0454 
     81 H81        20.1118  -23.1523  -46.6672 H         1 UNK         0.0851 
     82 H82        21.0933  -22.2033  -45.5674 H         1 UNK         0.0851 
     83 H83        19.3485  -22.0175  -45.5534 H         1 UNK         0.0851 
     84 H84        18.2911  -24.4666  -43.5985 H         1 UNK         0.2976 
     85 H85        20.3945  -27.2815  -42.4848 H         1 UNK         0.3116 
     86 H86        21.7614  -28.9504  -40.7950 H         1 UNK         0.0646 
     87 H87        19.4011  -28.3042  -40.5215 H         1 UNK         0.0847 
     88 H88        19.8681  -26.6646  -40.0550 H         1 UNK         0.0847 
     89 H89        20.2619  -28.0308  -39.0197 H         1 UNK         0.0847 
     90 H90        22.8789  -25.8253  -41.4962 H         1 UNK         0.3040 
     91 H91        24.3610  -25.2730  -39.0668 H         1 UNK         0.1015 
     92 H92        25.5636  -23.6497  -40.5446 H         1 UNK         0.0786 
     93 H93        23.8242  -23.4839  -40.7144 H         1 UNK         0.0786 
     94 H94        24.7583  -24.3161  -41.9587 H         1 UNK         0.0786 
     95 H95        24.8033  -27.4465  -41.7772 H         1 UNK         0.3172 
     96 H96        27.4875  -28.2622  -40.7343 H         1 UNK         0.0595 
     97 H97        26.6709  -27.9800  -43.6759 H         1 UNK         0.0839 
     98 H98        28.1827  -28.6680  -43.0951 H         1 UNK         0.0839 
     99 H99        27.8355  -26.9679  -42.8228 H         1 UNK         0.0839 
    100 H100       24.4608  -29.2200  -42.4281 H         1 UNK         0.2998 
    101 H101       25.1499  -32.0308  -42.5111 H         1 UNK         0.0822 
    102 H102       23.6407  -30.9465  -44.1913 H         1 UNK         0.0787 
    103 H103       22.8213  -32.2619  -43.3633 H         1 UNK         0.0787 
    104 H104       22.4654  -30.6016  -42.9193 H         1 UNK         0.0787 
    105 H105       24.2538  -33.7151  -41.3100 H         1 UNK         0.3055 
    106 H106       23.4703  -33.1196  -38.5397 H         1 UNK         0.1106 
    107 H107       24.0351  -35.7692  -39.9754 H         1 UNK         0.0828 
    108 H108       23.7804  -35.5656  -38.2476 H         1 UNK         0.0828 
    109 H109       25.1905  -34.8515  -39.0091 H         1 UNK         0.0828 
    110 H110       21.4970  -32.0410  -39.7940 H         1 UNK         0.2931 
    111 H111       19.3040  -33.7119  -40.5513 H         1 UNK         0.0412 
    112 H112       17.3719  -34.3725  -37.6400 H         1 UNK         0.3472 
    113 H113       17.4206  -34.3971  -39.3832 H         1 UNK         0.3472 
    114 H114       17.9133  -31.6078  -40.2554 H         1 UNK         0.0970 
    115 H115       19.3047  -30.8092  -39.5825 H         1 UNK         0.0970 
    116 H116       17.4775  -32.2559  -42.4817 H         1 UNK         0.0612 
    117 H117       18.8620  -33.1128  -43.1204 H         1 UNK         0.0612 
@<TRIPOS>BOND
     1    1    2 1    
     2    1   62 1    
     3    1   63 1    
     4    1   64 1    
     5    2    3 2    
     6    2    4 am   BACKBONE|DICT|INTERRES
     7    4    5 1    
     8    4   65 1    
     9    5    6 1    
    10    5   25 1    
    11    5   66 1    
    12    6    7 1    
    13    6   67 1    
    14    6   68 1    
    15    7    8 1    
    16    8    9 1    
    17    8   69 1    
    18    8   70 1    
    19    9   10 ar   
    20    9   14 ar   
    21   10   11 ar   
    22   10   71 1    
    23   11   12 ar   
    24   11   61 1    
    25   12   13 ar   
    26   12   72 1    
    27   13   14 ar   
    28   13   15 1    
    29   14   73 1    
    30   15   16 1    
    31   15   74 1    
    32   15   75 1    
    33   16   17 1    
    34   17   18 1    
    35   17   76 1    
    36   17   77 1    
    37   18   19 1    
    38   18   27 1    
    39   18   78 1    
    40   19   20 am   BACKBONE|DICT|INTERRES
    41   19   79 1    
    42   20   21 2    
    43   20   22 1    
    44   22   23 1    
    45   22   24 1    
    46   22   80 1    
    47   23   81 1    
    48   23   82 1    
    49   23   83 1    
    50   24   25 am   BACKBONE|DICT|INTERRES
    51   24   84 1    
    52   25   26 2    
    53   27   28 2    
    54   27   29 am   BACKBONE|DICT|INTERRES
    55   29   30 1    
    56   29   85 1    
    57   30   31 1    
    58   30   32 1    
    59   30   86 1    
    60   31   87 1    
    61   31   88 1    
    62   31   89 1    
    63   32   33 2    
    64   32   34 am   BACKBONE|DICT|INTERRES
    65   34   35 1    
    66   34   90 1    
    67   35   36 1    
    68   35   37 1    
    69   35   91 1    
    70   36   92 1    
    71   36   93 1    
    72   36   94 1    
    73   37   38 2    
    74   37   39 am   BACKBONE|DICT|INTERRES
    75   39   40 1    
    76   39   95 1    
    77   40   41 1    
    78   40   42 1    
    79   40   96 1    
    80   41   97 1    
    81   41   98 1    
    82   41   99 1    
    83   42   43 2    
    84   42   44 am   BACKBONE|DICT|INTERRES
    85   44   45 1    
    86   44  100 1    
    87   45   46 1    
    88   45   47 1    
    89   45  101 1    
    90   46  102 1    
    91   46  103 1    
    92   46  104 1    
    93   47   48 2    
    94   47   49 am   BACKBONE|DICT|INTERRES
    95   49   50 1    
    96   49  105 1    
    97   50   51 1    
    98   50   52 1    
    99   50  106 1    
   100   51  107 1    
   101   51  108 1    
   102   51  109 1    
   103   52   53 2    
   104   52   54 am   BACKBONE|DICT|INTERRES
   105   54   55 1    
   106   54  110 1    
   107   55   56 1    
   108   55   59 1    
   109   55  111 1    
   110   56   57 am   BACKBONE|DICT|INTERRES
   111   56   58 2    
   112   57  112 1    
   113   57  113 1    
   114   59   60 1    
   115   59  114 1    
   116   59  115 1    
   117   60   61 1    
   118   61  116 1    
   119   61  117 1    
@<TRIPOS>SUBSTRUCTURE
     1 UNK         1 GROUP             0       ****    0 ROOT    
