@<TRIPOS>MOLECULE
3R8
117   119    1
SMALL
USER_CHARGES


@<TRIPOS>ATOM
      1 CA         16.7121  -23.4718  -39.7406 C.3       0 UNK        -0.2013 
      2 C          16.7361  -23.8811  -41.2056 C.2       0 UNK         0.4866 
      3 O          16.2288  -23.1480  -42.0546 O.2       0 UNK        -0.5176 
      4 N          17.3189  -25.0492  -41.5064 N.am      1 UNK        -0.4884 
      5 CA         17.4280  -25.6140  -42.8576 C.3       1 UNK         0.0853 
      6 C6         17.9164  -27.0832  -42.8214 C.3       10 UNK        -0.0849 
      7 S7         16.6683  -28.2329  -42.1528 S.3       10 UNK        -0.2776 
      8 C8         16.1810  -29.1719  -43.6426 C.3       10 UNK         0.0316 
      9 C9         17.2960  -30.0883  -44.1339 C.ar      10 UNK        -0.0863 
     10 C10        17.4998  -31.3339  -43.5336 C.ar      10 UNK        -0.1009 
     11 C11        18.5443  -32.1655  -43.9533 C.ar      10 UNK        -0.0712 
     12 C12        19.3927  -31.7381  -44.9807 C.ar      10 UNK        -0.0894 
     13 C13        19.1910  -30.5004  -45.5988 C.ar      10 UNK        -0.0745 
     14 C14        18.1265  -29.6932  -45.1870 C.ar      10 UNK        -0.0972 
     15 C15        20.1233  -30.0290  -46.7088 C.3       10 UNK         0.0209 
     16 S16        21.7619  -29.5344  -46.0767 S.3       10 UNK        -0.2568 
     17 C17        21.3506  -28.1669  -44.9385 C.3       10 UNK        -0.0983 
     18 CA         21.9868  -26.8052  -45.3147 C.3       3 UNK         0.0876 
     19 N          21.3285  -25.7386  -44.5632 N.am      3 UNK        -0.4424 
     20 C          21.2847  -24.4445  -44.8996 C.2       2 UNK         0.4918 
     21 O          21.8026  -23.9855  -45.9190 O.2       2 UNK        -0.4875 
     22 CA         20.5157  -23.5193  -43.9266 C.3       2 UNK         0.0481 
     23 CB         20.0221  -22.2222  -44.6016 C.3       2 UNK        -0.1831 
     24 N          19.4139  -24.2019  -43.2252 N.am      2 UNK        -0.4498 
     25 C          18.3468  -24.7953  -43.7886 C.2       1 UNK         0.5027 
     26 O          18.0974  -24.7644  -44.9943 O.2       1 UNK        -0.4969 
     27 C          23.4982  -26.7994  -45.0197 C.2       3 UNK         0.5005 
     28 O          23.9014  -26.4350  -43.9123 O.2       3 UNK        -0.5279 
     29 N          24.3038  -27.2930  -45.9705 N.am      4 UNK        -0.4463 
     30 CA         25.7385  -27.5521  -45.7885 C.3       4 UNK         0.0283 
     31 CB         26.3641  -27.9359  -47.1388 C.3       4 UNK        -0.1875 
     32 C          26.0278  -28.6380  -44.7322 C.2       4 UNK         0.4949 
     33 O          27.0759  -28.5948  -44.0890 O.2       4 UNK        -0.5039 
     34 N          25.0789  -29.5673  -44.5524 N.am      5 UNK        -0.4663 
     35 CA         25.0866  -30.5954  -43.5085 C.3       5 UNK         0.0242 
     36 CB         24.3091  -31.8154  -44.0327 C.3       5 UNK        -0.1982 
     37 C          24.4825  -30.1066  -42.1754 C.2       5 UNK         0.5017 
     38 O          24.4758  -30.8761  -41.2124 O.2       5 UNK        -0.5012 
     39 N          23.9681  -28.8650  -42.1478 N.am      6 UNK        -0.4439 
     40 CA         23.1782  -28.2292  -41.0858 C.3       6 UNK         0.0297 
     41 CB         23.9884  -28.1405  -39.7735 C.3       6 UNK        -0.2006 
     42 C          21.8084  -28.9033  -40.8722 C.2       6 UNK         0.4892 
     43 O          21.5089  -29.9350  -41.4751 O.2       6 UNK        -0.5089 
     44 N          20.9967  -28.3197  -39.9792 N.am      7 UNK        -0.4243 
     45 CA         19.7126  -28.8828  -39.5364 C.3       7 UNK         0.0196 
     46 CB         18.9583  -27.8291  -38.7092 C.3       7 UNK        -0.2007 
     47 C          19.8582  -30.1999  -38.7446 C.2       7 UNK         0.5020 
     48 O          18.8776  -30.9265  -38.5883 O.2       7 UNK        -0.5147 
     49 N          21.0792  -30.4891  -38.2719 N.am      8 UNK        -0.4734 
     50 CA         21.4785  -31.7626  -37.6729 C.3       8 UNK         0.0238 
     51 CB         22.7986  -31.5586  -36.9107 C.3       8 UNK        -0.1912 
     52 C          21.6238  -32.9054  -38.6976 C.2       8 UNK         0.5038 
     53 O          21.6369  -34.0640  -38.2791 O.2       8 UNK        -0.5046 
     54 N          21.7295  -32.5765  -39.9955 N.am      9 UNK        -0.4200 
     55 CA         21.8602  -33.5208  -41.1185 C.3       9 UNK         0.0839 
     56 C          23.1783  -34.3495  -41.0683 C.2       9 UNK         0.5513 
     57 N          24.3064  -33.7298  -40.7465 N.am      9 UNK        -0.7519 
     58 O          23.1904  -35.5513  -41.3247 O.2       9 UNK        -0.4960 
     59 C59        20.5911  -34.3995  -41.3225 C.3       10 UNK        -0.0876 
     60 S60        19.0721  -33.4055  -41.5246 S.3       10 UNK        -0.2414 
     61 C61        18.7423  -33.5323  -43.3123 C.3       10 UNK         0.0169 
     62 H62        17.2320  -22.5235  -39.6076 H         1 UNK         0.0903 
     63 H63        15.6835  -23.3465  -39.4034 H         1 UNK         0.0903 
     64 H64        17.1901  -24.2133  -39.1007 H         1 UNK         0.0903 
     65 H65        17.6787  -25.6276  -40.7614 H         1 UNK         0.3096 
     66 H66        16.4330  -25.5911  -43.3087 H         1 UNK         0.1121 
     67 H67        18.1931  -27.4125  -43.8207 H         1 UNK         0.0849 
     68 H68        18.8246  -27.1769  -42.2231 H         1 UNK         0.0849 
     69 H69        15.8763  -28.4781  -44.4278 H         1 UNK         0.0865 
     70 H70        15.2980  -29.7685  -43.4087 H         1 UNK         0.0865 
     71 H71        16.8532  -31.6529  -42.7273 H         1 UNK         0.1346 
     72 H72        20.2124  -32.3657  -45.3028 H         1 UNK         0.1412 
     73 H73        17.9622  -28.7408  -45.6721 H         1 UNK         0.1426 
     74 H74        19.6852  -29.1925  -47.2556 H         1 UNK         0.0716 
     75 H75        20.2538  -30.8327  -47.4349 H         1 UNK         0.0716 
     76 H76        21.6227  -28.4686  -43.9258 H         1 UNK         0.0695 
     77 H77        20.2685  -28.0509  -44.9219 H         1 UNK         0.0695 
     78 H78        21.8319  -26.6184  -46.3800 H         1 UNK         0.0983 
     79 H79        20.9288  -26.0045  -43.6776 H         1 UNK         0.3095 
     80 H80        21.2329  -23.2338  -43.1558 H         1 UNK         0.0454 
     81 H81        19.4887  -21.5857  -43.8958 H         1 UNK         0.0851 
     82 H82        19.3542  -22.4282  -45.4384 H         1 UNK         0.0851 
     83 H83        20.8588  -21.6412  -44.9913 H         1 UNK         0.0851 
     84 H84        19.5074  -24.2710  -42.2211 H         1 UNK         0.2976 
     85 H85        23.8964  -27.5931  -46.8457 H         1 UNK         0.3116 
     86 H86        26.2055  -26.6264  -45.4451 H         1 UNK         0.0646 
     87 H87        27.4364  -28.1091  -47.0358 H         1 UNK         0.0847 
     88 H88        26.2362  -27.1436  -47.8765 H         1 UNK         0.0847 
     89 H89        25.9253  -28.8486  -47.5442 H         1 UNK         0.0847 
     90 H90        24.2541  -29.5294  -45.1363 H         1 UNK         0.3040 
     91 H91        26.1161  -30.9009  -43.3089 H         1 UNK         0.1015 
     92 H92        24.6985  -32.1550  -44.9926 H         1 UNK         0.0786 
     93 H93        23.2479  -31.5946  -44.1579 H         1 UNK         0.0786 
     94 H94        24.3879  -32.6545  -43.3422 H         1 UNK         0.0786 
     95 H95        24.0651  -28.3023  -42.9846 H         1 UNK         0.3172 
     96 H96        22.9790  -27.2133  -41.4295 H         1 UNK         0.0595 
     97 H97        24.1236  -29.1169  -39.3073 H         1 UNK         0.0839 
     98 H98        23.4974  -27.4980  -39.0423 H         1 UNK         0.0839 
     99 H99        24.9778  -27.7186  -39.9502 H         1 UNK         0.0839 
    100 H100       21.2979  -27.4694  -39.5244 H         1 UNK         0.2998 
    101 H101       19.1213  -29.1108  -40.4263 H         1 UNK         0.0822 
    102 H102       18.7984  -26.9151  -39.2801 H         1 UNK         0.0787 
    103 H103       17.9759  -28.1992  -38.4123 H         1 UNK         0.0787 
    104 H104       19.4982  -27.5685  -37.7980 H         1 UNK         0.0787 
    105 H105       21.8144  -29.8171  -38.4320 H         1 UNK         0.3055 
    106 H106       20.7081  -32.0638  -36.9593 H         1 UNK         0.1106 
    107 H107       23.1096  -32.4801  -36.4162 H         1 UNK         0.0828 
    108 H108       23.6082  -31.2595  -37.5779 H         1 UNK         0.0828 
    109 H109       22.6988  -30.7969  -36.1373 H         1 UNK         0.0828 
    110 H110       21.7066  -31.5992  -40.2641 H         1 UNK         0.2931 
    111 H111       21.9562  -32.8982  -42.0091 H         1 UNK         0.0412 
    112 H112       24.3205  -32.7194  -40.6398 H         1 UNK         0.3472 
    113 H113       25.1656  -34.2536  -40.7046 H         1 UNK         0.3472 
    114 H114       20.7150  -35.0589  -42.1826 H         1 UNK         0.0970 
    115 H115       20.4489  -35.0632  -40.4684 H         1 UNK         0.0970 
    116 H116       19.5487  -34.0685  -43.8133 H         1 UNK         0.0612 
    117 H117       17.8416  -34.1293  -43.4606 H         1 UNK         0.0612 
@<TRIPOS>BOND
     1    1    2 1    
     2    1   62 1    
     3    1   63 1    
     4    1   64 1    
     5    2    3 2    
     6    2    4 am   BACKBONE|DICT|INTERRES
     7    4    5 1    
     8    4   65 1    
     9    5    6 1    
    10    5   25 1    
    11    5   66 1    
    12    6    7 1    
    13    6   67 1    
    14    6   68 1    
    15    7    8 1    
    16    8    9 1    
    17    8   69 1    
    18    8   70 1    
    19    9   10 ar   
    20    9   14 ar   
    21   10   11 ar   
    22   10   71 1    
    23   11   12 ar   
    24   11   61 1    
    25   12   13 ar   
    26   12   72 1    
    27   13   14 ar   
    28   13   15 1    
    29   14   73 1    
    30   15   16 1    
    31   15   74 1    
    32   15   75 1    
    33   16   17 1    
    34   17   18 1    
    35   17   76 1    
    36   17   77 1    
    37   18   19 1    
    38   18   27 1    
    39   18   78 1    
    40   19   20 am   BACKBONE|DICT|INTERRES
    41   19   79 1    
    42   20   21 2    
    43   20   22 1    
    44   22   23 1    
    45   22   24 1    
    46   22   80 1    
    47   23   81 1    
    48   23   82 1    
    49   23   83 1    
    50   24   25 am   BACKBONE|DICT|INTERRES
    51   24   84 1    
    52   25   26 2    
    53   27   28 2    
    54   27   29 am   BACKBONE|DICT|INTERRES
    55   29   30 1    
    56   29   85 1    
    57   30   31 1    
    58   30   32 1    
    59   30   86 1    
    60   31   87 1    
    61   31   88 1    
    62   31   89 1    
    63   32   33 2    
    64   32   34 am   BACKBONE|DICT|INTERRES
    65   34   35 1    
    66   34   90 1    
    67   35   36 1    
    68   35   37 1    
    69   35   91 1    
    70   36   92 1    
    71   36   93 1    
    72   36   94 1    
    73   37   38 2    
    74   37   39 am   BACKBONE|DICT|INTERRES
    75   39   40 1    
    76   39   95 1    
    77   40   41 1    
    78   40   42 1    
    79   40   96 1    
    80   41   97 1    
    81   41   98 1    
    82   41   99 1    
    83   42   43 2    
    84   42   44 am   BACKBONE|DICT|INTERRES
    85   44   45 1    
    86   44  100 1    
    87   45   46 1    
    88   45   47 1    
    89   45  101 1    
    90   46  102 1    
    91   46  103 1    
    92   46  104 1    
    93   47   48 2    
    94   47   49 am   BACKBONE|DICT|INTERRES
    95   49   50 1    
    96   49  105 1    
    97   50   51 1    
    98   50   52 1    
    99   50  106 1    
   100   51  107 1    
   101   51  108 1    
   102   51  109 1    
   103   52   53 2    
   104   52   54 am   BACKBONE|DICT|INTERRES
   105   54   55 1    
   106   54  110 1    
   107   55   56 1    
   108   55   59 1    
   109   55  111 1    
   110   56   57 am   BACKBONE|DICT|INTERRES
   111   56   58 2    
   112   57  112 1    
   113   57  113 1    
   114   59   60 1    
   115   59  114 1    
   116   59  115 1    
   117   60   61 1    
   118   61  116 1    
   119   61  117 1    
@<TRIPOS>SUBSTRUCTURE
     1 UNK         1 GROUP             0       ****    0 ROOT    
