@<TRIPOS>MOLECULE
3R8
117   119    1
SMALL
USER_CHARGES


@<TRIPOS>ATOM
      1 CA         16.6946  -24.5782  -39.9984 C.3       0 UNK        -0.2013 
      2 C          16.9422  -24.6438  -41.4978 C.2       0 UNK         0.4866 
      3 O          17.7478  -23.8737  -42.0202 O.2       0 UNK        -0.5176 
      4 N          16.2577  -25.5596  -42.1951 N.am      1 UNK        -0.4884 
      5 CA         16.3864  -25.7799  -43.6427 C.3       1 UNK         0.0853 
      6 C6         15.1288  -26.4730  -44.2279 C.3       10 UNK        -0.0849 
      7 S7         14.7655  -28.1099  -43.4922 S.3       10 UNK        -0.2776 
      8 C8         14.7368  -29.1992  -44.9548 C.3       10 UNK         0.0316 
      9 C9         16.1147  -29.7188  -45.3532 C.ar      10 UNK        -0.0863 
     10 C10        16.7266  -30.7226  -44.5951 C.ar      10 UNK        -0.1009 
     11 C11        17.9366  -31.2889  -45.0086 C.ar      10 UNK        -0.0712 
     12 C12        18.5328  -30.8480  -46.1919 C.ar      10 UNK        -0.0894 
     13 C13        17.9563  -29.8184  -46.9405 C.ar      10 UNK        -0.0745 
     14 C14        16.7450  -29.2583  -46.5156 C.ar      10 UNK        -0.0972 
     15 C15        18.6139  -29.3516  -48.2345 C.3       10 UNK         0.0209 
     16 S16        19.8975  -28.0822  -47.9660 S.3       10 UNK        -0.2568 
     17 C17        21.3403  -29.0715  -47.4337 C.3       10 UNK        -0.0983 
     18 CA         21.8943  -28.6457  -46.0456 C.3       3 UNK         0.0876 
     19 N          20.8845  -28.7639  -45.0008 N.am      3 UNK        -0.4424 
     20 C          20.5034  -27.7884  -44.1741 C.2       2 UNK         0.4918 
     21 O          20.9950  -26.6581  -44.1488 O.2       2 UNK        -0.4875 
     22 CA         19.3993  -28.1693  -43.1756 C.3       2 UNK         0.0481 
     23 CB         20.0058  -28.4262  -41.7863 C.3       2 UNK        -0.1831 
     24 N          18.3060  -27.2012  -43.0546 N.am      2 UNK        -0.4498 
     25 C          17.6670  -26.5443  -44.0384 C.2       1 UNK         0.5027 
     26 O          18.0040  -26.5390  -45.2221 O.2       1 UNK        -0.4969 
     27 C          23.0853  -29.5267  -45.6095 C.2       3 UNK         0.5005 
     28 O          23.0868  -30.7138  -45.9350 O.2       3 UNK        -0.5279 
     29 N          24.0794  -29.0324  -44.8573 N.am      4 UNK        -0.4463 
     30 CA         24.2466  -27.6945  -44.2834 C.3       4 UNK         0.0283 
     31 CB         25.7235  -27.2928  -44.4428 C.3       4 UNK        -0.1875 
     32 C          23.8695  -27.6927  -42.7948 C.2       4 UNK         0.4949 
     33 O          23.7858  -28.7524  -42.1700 O.2       4 UNK        -0.5039 
     34 N          23.7198  -26.4900  -42.2254 N.am      5 UNK        -0.4663 
     35 CA         23.4616  -26.2655  -40.7967 C.3       5 UNK         0.0242 
     36 CB         23.1576  -24.7772  -40.5648 C.3       5 UNK        -0.1982 
     37 C          24.6009  -26.7400  -39.8735 C.2       5 UNK         0.5017 
     38 O          24.3477  -27.0151  -38.7017 O.2       5 UNK        -0.5012 
     39 N          25.8191  -26.8585  -40.4221 N.am      6 UNK        -0.4439 
     40 CA         26.9771  -27.4748  -39.7712 C.3       6 UNK         0.0297 
     41 CB         28.2470  -27.1414  -40.5707 C.3       6 UNK        -0.2006 
     42 C          26.8319  -29.0000  -39.6029 C.2       6 UNK         0.4892 
     43 O          27.3611  -29.5451  -38.6338 O.2       6 UNK        -0.5089 
     44 N          26.1221  -29.6570  -40.5335 N.am      7 UNK        -0.4243 
     45 CA         25.7649  -31.0753  -40.4482 C.3       7 UNK         0.0196 
     46 CB         25.5616  -31.6516  -41.8600 C.3       7 UNK        -0.2007 
     47 C          24.5058  -31.2751  -39.5906 C.2       7 UNK         0.5020 
     48 O          24.4433  -32.2446  -38.8348 O.2       7 UNK        -0.5147 
     49 N          23.5476  -30.3414  -39.7119 N.am      8 UNK        -0.4734 
     50 CA         22.2923  -30.2484  -38.9541 C.3       8 UNK         0.0238 
     51 CB         22.5734  -29.9538  -37.4646 C.3       8 UNK        -0.1912 
     52 C          21.3802  -31.4723  -39.1624 C.2       8 UNK         0.5038 
     53 O          20.8792  -32.0460  -38.1925 O.2       8 UNK        -0.5046 
     54 N          21.2041  -31.8561  -40.4328 N.am      9 UNK        -0.4200 
     55 CA         20.3355  -32.9545  -40.8768 C.3       9 UNK         0.0839 
     56 C          18.8318  -32.7603  -40.5221 C.2       9 UNK         0.5513 
     57 N          18.0751  -33.8464  -40.4389 N.am      9 UNK        -0.7519 
     58 O          18.3397  -31.6458  -40.3571 O.2       9 UNK        -0.4960 
     59 C59        20.5502  -33.2612  -42.3832 C.3       10 UNK        -0.0876 
     60 S60        20.1780  -31.8529  -43.4863 S.3       10 UNK        -0.2414 
     61 C61        18.5911  -32.3942  -44.1952 C.3       10 UNK         0.0169 
     62 H62        16.3280  -23.5899  -39.7219 H         1 UNK         0.0903 
     63 H63        17.6222  -24.7611  -39.4564 H         1 UNK         0.0903 
     64 H64        15.9604  -25.3150  -39.6729 H         1 UNK         0.0903 
     65 H65        15.6019  -26.1687  -41.7240 H         1 UNK         0.3096 
     66 H66        16.4654  -24.7999  -44.1198 H         1 UNK         0.1121 
     67 H67        14.2577  -25.8363  -44.0665 H         1 UNK         0.0849 
     68 H68        15.2196  -26.5639  -45.3121 H         1 UNK         0.0849 
     69 H69        14.0975  -30.0540  -44.7289 H         1 UNK         0.0865 
     70 H70        14.2550  -28.6880  -45.7897 H         1 UNK         0.0865 
     71 H71        16.2468  -31.0762  -43.6925 H         1 UNK         0.1346 
     72 H72        19.4511  -31.3113  -46.5228 H         1 UNK         0.1412 
     73 H73        16.2825  -28.4777  -47.1042 H         1 UNK         0.1426 
     74 H74        19.0415  -30.2009  -48.7695 H         1 UNK         0.0716 
     75 H75        17.8559  -28.9344  -48.8990 H         1 UNK         0.0716 
     76 H76        22.1157  -28.9487  -48.1919 H         1 UNK         0.0695 
     77 H77        21.0808  -30.1294  -47.4520 H         1 UNK         0.0695 
     78 H78        22.2142  -27.6115  -46.1610 H         1 UNK         0.0983 
     79 H79        20.4549  -29.6746  -44.9113 H         1 UNK         0.3095 
     80 H80        18.9379  -29.0961  -43.5161 H         1 UNK         0.0454 
     81 H81        20.8554  -29.1072  -41.8505 H         1 UNK         0.0851 
     82 H82        19.2795  -28.8821  -41.1128 H         1 UNK         0.0851 
     83 H83        20.3619  -27.5026  -41.3296 H         1 UNK         0.0851 
     84 H84        17.9171  -27.0946  -42.1301 H         1 UNK         0.2976 
     85 H85        24.7740  -29.6973  -44.5516 H         1 UNK         0.3116 
     86 H86        23.6418  -26.9472  -44.7923 H         1 UNK         0.0646 
     87 H87        25.9056  -26.2841  -44.0699 H         1 UNK         0.0847 
     88 H88        26.3909  -27.9664  -43.9031 H         1 UNK         0.0847 
     89 H89        26.0227  -27.3007  -45.4912 H         1 UNK         0.0847 
     90 H90        23.7839  -25.6654  -42.8062 H         1 UNK         0.3040 
     91 H91        22.5751  -26.8417  -40.5246 H         1 UNK         0.1015 
     92 H92        24.0019  -24.1440  -40.8405 H         1 UNK         0.0786 
     93 H93        22.9337  -24.5832  -39.5147 H         1 UNK         0.0786 
     94 H94        22.2910  -24.4551  -41.1429 H         1 UNK         0.0786 
     95 H95        25.9329  -26.5674  -41.3815 H         1 UNK         0.3172 
     96 H96        27.0770  -27.0391  -38.7746 H         1 UNK         0.0595 
     97 H97        28.2047  -27.5387  -41.5857 H         1 UNK         0.0839 
     98 H98        29.1305  -27.5667  -40.0922 H         1 UNK         0.0839 
     99 H99        28.4046  -26.0646  -40.6364 H         1 UNK         0.0839 
    100 H100       25.6734  -29.1277  -41.2695 H         1 UNK         0.2998 
    101 H101       26.5845  -31.6225  -39.9769 H         1 UNK         0.0822 
    102 H102       26.4521  -31.5184  -42.4745 H         1 UNK         0.0787 
    103 H103       25.3577  -32.7222  -41.8136 H         1 UNK         0.0787 
    104 H104       24.7227  -31.1871  -42.3783 H         1 UNK         0.0787 
    105 H105       23.6794  -29.6376  -40.4331 H         1 UNK         0.3055 
    106 H106       21.7492  -29.3922  -39.3569 H         1 UNK         0.1106 
    107 H107       23.0746  -30.7879  -36.9726 H         1 UNK         0.0828 
    108 H108       23.2005  -29.0707  -37.3456 H         1 UNK         0.0828 
    109 H109       21.6461  -29.7667  -36.9218 H         1 UNK         0.0828 
    110 H110       21.6526  -31.3285  -41.1663 H         1 UNK         0.2931 
    111 H111       20.6697  -33.8343  -40.3230 H         1 UNK         0.0412 
    112 H112       18.4633  -34.7674  -40.5727 H         1 UNK         0.3472 
    113 H113       17.0961  -33.7437  -40.2210 H         1 UNK         0.3472 
    114 H114       19.9681  -34.1339  -42.6846 H         1 UNK         0.0970 
    115 H115       21.5910  -33.5435  -42.5493 H         1 UNK         0.0970 
    116 H116       17.9278  -32.7177  -43.3918 H         1 UNK         0.0612 
    117 H117       18.7579  -33.2642  -44.8320 H         1 UNK         0.0612 
@<TRIPOS>BOND
     1    1    2 1    
     2    1   62 1    
     3    1   63 1    
     4    1   64 1    
     5    2    3 2    
     6    2    4 am   BACKBONE|DICT|INTERRES
     7    4    5 1    
     8    4   65 1    
     9    5    6 1    
    10    5   25 1    
    11    5   66 1    
    12    6    7 1    
    13    6   67 1    
    14    6   68 1    
    15    7    8 1    
    16    8    9 1    
    17    8   69 1    
    18    8   70 1    
    19    9   10 ar   
    20    9   14 ar   
    21   10   11 ar   
    22   10   71 1    
    23   11   12 ar   
    24   11   61 1    
    25   12   13 ar   
    26   12   72 1    
    27   13   14 ar   
    28   13   15 1    
    29   14   73 1    
    30   15   16 1    
    31   15   74 1    
    32   15   75 1    
    33   16   17 1    
    34   17   18 1    
    35   17   76 1    
    36   17   77 1    
    37   18   19 1    
    38   18   27 1    
    39   18   78 1    
    40   19   20 am   BACKBONE|DICT|INTERRES
    41   19   79 1    
    42   20   21 2    
    43   20   22 1    
    44   22   23 1    
    45   22   24 1    
    46   22   80 1    
    47   23   81 1    
    48   23   82 1    
    49   23   83 1    
    50   24   25 am   BACKBONE|DICT|INTERRES
    51   24   84 1    
    52   25   26 2    
    53   27   28 2    
    54   27   29 am   BACKBONE|DICT|INTERRES
    55   29   30 1    
    56   29   85 1    
    57   30   31 1    
    58   30   32 1    
    59   30   86 1    
    60   31   87 1    
    61   31   88 1    
    62   31   89 1    
    63   32   33 2    
    64   32   34 am   BACKBONE|DICT|INTERRES
    65   34   35 1    
    66   34   90 1    
    67   35   36 1    
    68   35   37 1    
    69   35   91 1    
    70   36   92 1    
    71   36   93 1    
    72   36   94 1    
    73   37   38 2    
    74   37   39 am   BACKBONE|DICT|INTERRES
    75   39   40 1    
    76   39   95 1    
    77   40   41 1    
    78   40   42 1    
    79   40   96 1    
    80   41   97 1    
    81   41   98 1    
    82   41   99 1    
    83   42   43 2    
    84   42   44 am   BACKBONE|DICT|INTERRES
    85   44   45 1    
    86   44  100 1    
    87   45   46 1    
    88   45   47 1    
    89   45  101 1    
    90   46  102 1    
    91   46  103 1    
    92   46  104 1    
    93   47   48 2    
    94   47   49 am   BACKBONE|DICT|INTERRES
    95   49   50 1    
    96   49  105 1    
    97   50   51 1    
    98   50   52 1    
    99   50  106 1    
   100   51  107 1    
   101   51  108 1    
   102   51  109 1    
   103   52   53 2    
   104   52   54 am   BACKBONE|DICT|INTERRES
   105   54   55 1    
   106   54  110 1    
   107   55   56 1    
   108   55   59 1    
   109   55  111 1    
   110   56   57 am   BACKBONE|DICT|INTERRES
   111   56   58 2    
   112   57  112 1    
   113   57  113 1    
   114   59   60 1    
   115   59  114 1    
   116   59  115 1    
   117   60   61 1    
   118   61  116 1    
   119   61  117 1    
@<TRIPOS>SUBSTRUCTURE
     1 UNK         1 GROUP             0       ****    0 ROOT    
