@<TRIPOS>MOLECULE
3R8
117   119    1
SMALL
USER_CHARGES


@<TRIPOS>ATOM
      1 CA         18.8206  -26.7166  -47.7395 C.3       0 UNK        -0.2013 
      2 C          17.3427  -26.4688  -48.0256 C.2       0 UNK         0.4866 
      3 O          17.0163  -25.9174  -49.0752 O.2       0 UNK        -0.5176 
      4 N          16.4126  -26.8637  -47.1457 N.am      1 UNK        -0.4884 
      5 CA         16.6353  -27.4729  -45.8273 C.3       1 UNK         0.0853 
      6 C6         15.4095  -28.3213  -45.3925 C.3       10 UNK        -0.0849 
      7 S7         15.4571  -29.9563  -46.1955 S.3       10 UNK        -0.2776 
      8 C8         15.9991  -31.0313  -44.8201 C.3       10 UNK         0.0316 
      9 C9         17.3067  -30.5838  -44.1694 C.ar      10 UNK        -0.0863 
     10 C10        17.3626  -30.3617  -42.7886 C.ar      10 UNK        -0.1009 
     11 C11        18.5679  -30.0068  -42.1742 C.ar      10 UNK        -0.0712 
     12 C12        19.7154  -29.8472  -42.9541 C.ar      10 UNK        -0.0894 
     13 C13        19.6718  -30.0460  -44.3353 C.ar      10 UNK        -0.0745 
     14 C14        18.4685  -30.4313  -44.9344 C.ar      10 UNK        -0.0972 
     15 C15        20.9312  -29.8834  -45.1739 C.3       10 UNK         0.0209 
     16 S16        21.2886  -28.1336  -45.5398 S.3       10 UNK        -0.2568 
     17 C17        22.2261  -27.6018  -44.0638 C.3       10 UNK        -0.0983 
     18 CA         21.5904  -26.4031  -43.3134 C.3       3 UNK         0.0876 
     19 N          20.1698  -26.6269  -43.0106 N.am      3 UNK        -0.4424 
     20 C          19.2854  -25.6848  -42.6542 C.2       2 UNK         0.4918 
     21 O          19.5623  -24.4917  -42.5276 O.2       2 UNK        -0.4875 
     22 CA         17.8564  -26.1916  -42.3953 C.3       2 UNK         0.0481 
     23 CB         16.8849  -25.0890  -41.9218 C.3       2 UNK        -0.1831 
     24 N          17.3379  -26.9256  -43.5543 N.am      2 UNK        -0.4498 
     25 C          17.0252  -26.4278  -44.7613 C.2       1 UNK         0.5027 
     26 O          17.0509  -25.2280  -45.0453 O.2       1 UNK        -0.4969 
     27 C          22.4381  -26.0202  -42.0732 C.2       3 UNK         0.5005 
     28 O          23.5937  -25.6225  -42.2361 O.2       3 UNK        -0.5279 
     29 N          21.8566  -26.1296  -40.8669 N.am      4 UNK        -0.4463 
     30 CA         22.3896  -25.7003  -39.5706 C.3       4 UNK         0.0283 
     31 CB         22.4601  -24.1569  -39.5028 C.3       4 UNK        -0.1875 
     32 C          23.7079  -26.4126  -39.2205 C.2       4 UNK         0.4949 
     33 O          23.7015  -27.6349  -39.0742 O.2       4 UNK        -0.5039 
     34 N          24.8069  -25.6544  -39.0974 N.am      5 UNK        -0.4663 
     35 CA         26.1412  -26.1247  -38.7049 C.3       5 UNK         0.0242 
     36 CB         27.0786  -24.9131  -38.5744 C.3       5 UNK        -0.1982 
     37 C          26.7597  -27.1839  -39.6364 C.2       5 UNK         0.5017 
     38 O          27.6414  -27.9223  -39.1962 O.2       5 UNK        -0.5012 
     39 N          26.2843  -27.2586  -40.8877 N.am      6 UNK        -0.4439 
     40 CA         26.6548  -28.2981  -41.8510 C.3       6 UNK         0.0297 
     41 CB         26.2638  -27.8356  -43.2623 C.3       6 UNK        -0.2006 
     42 C          26.0329  -29.6760  -41.5422 C.2       6 UNK         0.4892 
     43 O          26.5166  -30.6710  -42.0841 O.2       6 UNK        -0.5089 
     44 N          24.9926  -29.7142  -40.6917 N.am      7 UNK        -0.4243 
     45 CA         24.2069  -30.8887  -40.2984 C.3       7 UNK         0.0196 
     46 CB         25.0547  -31.8477  -39.4309 C.3       7 UNK        -0.2007 
     47 C          23.5270  -31.5513  -41.5132 C.2       7 UNK         0.5020 
     48 O          22.9644  -30.8340  -42.3397 O.2       7 UNK        -0.5147 
     49 N          23.5766  -32.8901  -41.5944 N.am      8 UNK        -0.4734 
     50 CA         23.0210  -33.7345  -42.6640 C.3       8 UNK         0.0238 
     51 CB         23.7434  -33.4674  -44.0032 C.3       8 UNK        -0.1912 
     52 C          21.4850  -33.6494  -42.7882 C.2       8 UNK         0.5038 
     53 O          20.9523  -33.7691  -43.8931 O.2       8 UNK        -0.5046 
     54 N          20.8045  -33.4606  -41.6495 N.am      9 UNK        -0.4200 
     55 CA         19.3409  -33.3293  -41.5540 C.3       9 UNK         0.0839 
     56 C          18.5451  -34.6498  -41.7667 C.2       9 UNK         0.5513 
     57 N          19.1796  -35.8160  -41.7929 N.am      9 UNK        -0.7519 
     58 O          17.3258  -34.6147  -41.9102 O.2       9 UNK        -0.4960 
     59 C59        18.8983  -32.6274  -40.2391 C.3       10 UNK        -0.0876 
     60 S60        19.7693  -31.0560  -39.9031 S.3       10 UNK        -0.2414 
     61 C61        18.6491  -29.8362  -40.6637 C.3       10 UNK         0.0169 
     62 H62        19.4385  -26.3160  -48.5428 H         1 UNK         0.0903 
     63 H63        19.1302  -26.2311  -46.8148 H         1 UNK         0.0903 
     64 H64        19.0272  -27.7840  -47.6666 H         1 UNK         0.0903 
     65 H65        15.4461  -26.6691  -47.3638 H         1 UNK         0.3096 
     66 H66        17.4999  -28.1315  -45.9036 H         1 UNK         0.1121 
     67 H67        15.3567  -28.4750  -44.3135 H         1 UNK         0.0849 
     68 H68        14.4755  -27.8215  -45.6552 H         1 UNK         0.0849 
     69 H69        15.1970  -31.0820  -44.0820 H         1 UNK         0.0865 
     70 H70        16.1264  -32.0468  -45.1976 H         1 UNK         0.0865 
     71 H71        16.4754  -30.4990  -42.1850 H         1 UNK         0.1346 
     72 H72        20.6523  -29.6033  -42.4735 H         1 UNK         0.1412 
     73 H73        18.4324  -30.6127  -46.0003 H         1 UNK         0.1426 
     74 H74        20.8177  -30.4148  -46.1198 H         1 UNK         0.0716 
     75 H75        21.7820  -30.3483  -44.6747 H         1 UNK         0.0716 
     76 H76        22.3754  -28.4461  -43.3908 H         1 UNK         0.0695 
     77 H77        23.2199  -27.3256  -44.4170 H         1 UNK         0.0695 
     78 H78        21.6358  -25.5407  -43.9822 H         1 UNK         0.0983 
     79 H79        19.8427  -27.5733  -43.1419 H         1 UNK         0.3095 
     80 H80        17.9294  -26.9184  -41.5855 H         1 UNK         0.0454 
     81 H81        17.2254  -24.6526  -40.9822 H         1 UNK         0.0851 
     82 H82        16.8026  -24.2733  -42.6403 H         1 UNK         0.0851 
     83 H83        15.8852  -25.4874  -41.7500 H         1 UNK         0.0851 
     84 H84        17.2898  -27.9292  -43.4345 H         1 UNK         0.2976 
     85 H85        20.9254  -26.5173  -40.8423 H         1 UNK         0.3116 
     86 H86        21.6673  -26.0251  -38.8201 H         1 UNK         0.0646 
     87 H87        22.7855  -23.8173  -38.5184 H         1 UNK         0.0847 
     88 H88        21.4788  -23.7162  -39.6798 H         1 UNK         0.0847 
     89 H89        23.1414  -23.7382  -40.2445 H         1 UNK         0.0847 
     90 H90        24.7142  -24.6630  -39.2665 H         1 UNK         0.3040 
     91 H91        26.0443  -26.5905  -37.7217 H         1 UNK         0.1015 
     92 H92        26.7096  -24.2018  -37.8351 H         1 UNK         0.0786 
     93 H93        27.1909  -24.3863  -39.5229 H         1 UNK         0.0786 
     94 H94        28.0748  -25.2214  -38.2533 H         1 UNK         0.0786 
     95 H95        25.5554  -26.6119  -41.1645 H         1 UNK         0.3172 
     96 H96        27.7400  -28.4179  -41.8249 H         1 UNK         0.0595 
     97 H97        26.5564  -28.5720  -44.0121 H         1 UNK         0.0839 
     98 H98        26.7490  -26.8952  -43.5239 H         1 UNK         0.0839 
     99 H99        25.1878  -27.6942  -43.3471 H         1 UNK         0.0839 
    100 H100       24.6628  -28.8387  -40.2962 H         1 UNK         0.2998 
    101 H101       23.3958  -30.5095  -39.6746 H         1 UNK         0.0822 
    102 H102       25.5149  -31.3139  -38.5990 H         1 UNK         0.0787 
    103 H103       24.4424  -32.6385  -38.9961 H         1 UNK         0.0787 
    104 H104       25.8567  -32.3179  -40.0016 H         1 UNK         0.0787 
    105 H105       24.0663  -33.3818  -40.8592 H         1 UNK         0.3055 
    106 H106       23.2357  -34.7663  -42.3810 H         1 UNK         0.1106 
    107 H107       23.5119  -32.4774  -44.3974 H         1 UNK         0.0828 
    108 H108       24.8253  -33.5389  -43.8923 H         1 UNK         0.0828 
    109 H109       23.4475  -34.1944  -44.7605 H         1 UNK         0.0828 
    110 H110       21.3188  -33.3572  -40.7882 H         1 UNK         0.2931 
    111 H111       19.0385  -32.6874  -42.3815 H         1 UNK         0.0412 
    112 H112       20.1791  -35.8575  -41.6766 H         1 UNK         0.3472 
    113 H113       18.6513  -36.6631  -41.9335 H         1 UNK         0.3472 
    114 H114       17.8236  -32.4356  -40.2531 H         1 UNK         0.0970 
    115 H115       19.0713  -33.2875  -39.3873 H         1 UNK         0.0970 
    116 H116       19.0185  -28.8358  -40.4359 H         1 UNK         0.0612 
    117 H117       17.6630  -29.9149  -40.2035 H         1 UNK         0.0612 
@<TRIPOS>BOND
     1    1    2 1    
     2    1   62 1    
     3    1   63 1    
     4    1   64 1    
     5    2    3 2    
     6    2    4 am   BACKBONE|DICT|INTERRES
     7    4    5 1    
     8    4   65 1    
     9    5    6 1    
    10    5   25 1    
    11    5   66 1    
    12    6    7 1    
    13    6   67 1    
    14    6   68 1    
    15    7    8 1    
    16    8    9 1    
    17    8   69 1    
    18    8   70 1    
    19    9   10 ar   
    20    9   14 ar   
    21   10   11 ar   
    22   10   71 1    
    23   11   12 ar   
    24   11   61 1    
    25   12   13 ar   
    26   12   72 1    
    27   13   14 ar   
    28   13   15 1    
    29   14   73 1    
    30   15   16 1    
    31   15   74 1    
    32   15   75 1    
    33   16   17 1    
    34   17   18 1    
    35   17   76 1    
    36   17   77 1    
    37   18   19 1    
    38   18   27 1    
    39   18   78 1    
    40   19   20 am   BACKBONE|DICT|INTERRES
    41   19   79 1    
    42   20   21 2    
    43   20   22 1    
    44   22   23 1    
    45   22   24 1    
    46   22   80 1    
    47   23   81 1    
    48   23   82 1    
    49   23   83 1    
    50   24   25 am   BACKBONE|DICT|INTERRES
    51   24   84 1    
    52   25   26 2    
    53   27   28 2    
    54   27   29 am   BACKBONE|DICT|INTERRES
    55   29   30 1    
    56   29   85 1    
    57   30   31 1    
    58   30   32 1    
    59   30   86 1    
    60   31   87 1    
    61   31   88 1    
    62   31   89 1    
    63   32   33 2    
    64   32   34 am   BACKBONE|DICT|INTERRES
    65   34   35 1    
    66   34   90 1    
    67   35   36 1    
    68   35   37 1    
    69   35   91 1    
    70   36   92 1    
    71   36   93 1    
    72   36   94 1    
    73   37   38 2    
    74   37   39 am   BACKBONE|DICT|INTERRES
    75   39   40 1    
    76   39   95 1    
    77   40   41 1    
    78   40   42 1    
    79   40   96 1    
    80   41   97 1    
    81   41   98 1    
    82   41   99 1    
    83   42   43 2    
    84   42   44 am   BACKBONE|DICT|INTERRES
    85   44   45 1    
    86   44  100 1    
    87   45   46 1    
    88   45   47 1    
    89   45  101 1    
    90   46  102 1    
    91   46  103 1    
    92   46  104 1    
    93   47   48 2    
    94   47   49 am   BACKBONE|DICT|INTERRES
    95   49   50 1    
    96   49  105 1    
    97   50   51 1    
    98   50   52 1    
    99   50  106 1    
   100   51  107 1    
   101   51  108 1    
   102   51  109 1    
   103   52   53 2    
   104   52   54 am   BACKBONE|DICT|INTERRES
   105   54   55 1    
   106   54  110 1    
   107   55   56 1    
   108   55   59 1    
   109   55  111 1    
   110   56   57 am   BACKBONE|DICT|INTERRES
   111   56   58 2    
   112   57  112 1    
   113   57  113 1    
   114   59   60 1    
   115   59  114 1    
   116   59  115 1    
   117   60   61 1    
   118   61  116 1    
   119   61  117 1    
@<TRIPOS>SUBSTRUCTURE
     1 UNK         1 GROUP             0       ****    0 ROOT    
