@<TRIPOS>MOLECULE
3R8
117   119    1
SMALL
USER_CHARGES


@<TRIPOS>ATOM
      1 CA         14.9100  -24.7150  -47.1764 C.3       0 UNK        -0.2013 
      2 C          16.0759  -25.4736  -46.5616 C.2       0 UNK         0.4866 
      3 O          17.0083  -25.8494  -47.2726 O.2       0 UNK        -0.5176 
      4 N          16.0461  -25.6889  -45.2407 N.am      1 UNK        -0.4884 
      5 CA         17.0440  -26.4354  -44.4607 C.3       1 UNK         0.0853 
      6 C6         16.4450  -26.9609  -43.1286 C.3       10 UNK        -0.0849 
      7 S7         14.9849  -28.0465  -43.3226 S.3       10 UNK        -0.2776 
      8 C8         15.6640  -29.6247  -43.9546 C.3       10 UNK         0.0316 
      9 C9         17.0185  -29.9923  -43.3614 C.ar      10 UNK        -0.0863 
     10 C10        17.1567  -30.2390  -41.9919 C.ar      10 UNK        -0.1009 
     11 C11        18.4137  -30.5036  -41.4393 C.ar      10 UNK        -0.0712 
     12 C12        19.5349  -30.5222  -42.2779 C.ar      10 UNK        -0.0894 
     13 C13        19.4103  -30.3104  -43.6533 C.ar      10 UNK        -0.0745 
     14 C14        18.1429  -30.0571  -44.1877 C.ar      10 UNK        -0.0972 
     15 C15        20.6477  -30.3812  -44.5451 C.3       10 UNK         0.0209 
     16 S16        20.6658  -29.0941  -45.8396 S.3       10 UNK        -0.2568 
     17 C17        22.3561  -28.4113  -45.7044 C.3       10 UNK        -0.0983 
     18 CA         22.4525  -27.1316  -44.8313 C.3       3 UNK         0.0876 
     19 N          21.3897  -26.1790  -45.1547 N.am      3 UNK        -0.4424 
     20 C          21.3568  -24.8836  -44.8250 C.2       2 UNK         0.4918 
     21 O          22.2650  -24.3030  -44.2306 O.2       2 UNK        -0.4875 
     22 CA         20.0737  -24.1175  -45.2018 C.3       2 UNK         0.0481 
     23 CB         20.2517  -23.4029  -46.5502 C.3       2 UNK        -0.1831 
     24 N          18.8702  -24.9604  -45.2554 N.am      2 UNK        -0.4498 
     25 C          18.3437  -25.6258  -44.2173 C.2       1 UNK         0.5027 
     26 O          18.8596  -25.6142  -43.0993 O.2       1 UNK        -0.4969 
     27 C          22.5484  -27.4785  -43.3295 C.2       3 UNK         0.5005 
     28 O          23.6043  -27.9539  -42.9110 O.2       3 UNK        -0.5279 
     29 N          21.4895  -27.2241  -42.5390 N.am      4 UNK        -0.4463 
     30 CA         21.3806  -27.5875  -41.1173 C.3       4 UNK         0.0283 
     31 CB         20.0001  -27.1810  -40.5818 C.3       4 UNK        -0.1875 
     32 C          22.4861  -27.0236  -40.2085 C.2       4 UNK         0.4949 
     33 O          22.7715  -27.6221  -39.1716 O.2       4 UNK        -0.5039 
     34 N          23.1320  -25.9274  -40.6304 N.am      5 UNK        -0.4663 
     35 CA         24.3288  -25.3608  -39.9999 C.3       5 UNK         0.0242 
     36 CB         24.6815  -24.0385  -40.6997 C.3       5 UNK        -0.1982 
     37 C          25.5450  -26.3111  -39.9988 C.2       5 UNK         0.5017 
     38 O          26.4178  -26.1590  -39.1438 O.2       5 UNK        -0.5012 
     39 N          25.5733  -27.2739  -40.9313 N.am      6 UNK        -0.4439 
     40 CA         26.5748  -28.3362  -41.0345 C.3       6 UNK         0.0297 
     41 CB         27.1330  -28.3413  -42.4696 C.3       6 UNK        -0.2006 
     42 C          25.9901  -29.7130  -40.6567 C.2       6 UNK         0.4892 
     43 O          26.6295  -30.7265  -40.9439 O.2       6 UNK        -0.5089 
     44 N          24.8021  -29.7354  -40.0285 N.am      7 UNK        -0.4243 
     45 CA         23.9963  -30.9151  -39.6932 C.3       7 UNK         0.0196 
     46 CB         24.6924  -31.7814  -38.6178 C.3       7 UNK        -0.2007 
     47 C          23.5720  -31.6776  -40.9642 C.2       7 UNK         0.5020 
     48 O          23.0317  -31.0489  -41.8725 O.2       7 UNK        -0.5147 
     49 N          23.8021  -32.9997  -41.0068 N.am      8 UNK        -0.4734 
     50 CA         23.4755  -33.9161  -42.1124 C.3       8 UNK         0.0238 
     51 CB         24.3259  -33.5913  -43.3604 C.3       8 UNK        -0.1912 
     52 C          21.9639  -33.9811  -42.4175 C.2       8 UNK         0.5038 
     53 O          21.5662  -34.0130  -43.5837 O.2       8 UNK        -0.5046 
     54 N          21.1539  -33.9928  -41.3515 N.am      9 UNK        -0.4200 
     55 CA         19.6824  -33.9834  -41.3993 C.3       9 UNK         0.0839 
     56 C          19.0279  -35.3207  -41.8533 C.2       9 UNK         0.5513 
     57 N          19.7627  -36.4211  -41.9638 N.am      9 UNK        -0.7519 
     58 O          17.8276  -35.3597  -42.1104 O.2       9 UNK        -0.4960 
     59 C59        19.0657  -33.4953  -40.0595 C.3       10 UNK        -0.0876 
     60 S60        19.7965  -31.9391  -39.4384 S.3       10 UNK        -0.2414 
     61 C61        18.5411  -30.7101  -39.9310 C.3       10 UNK         0.0169 
     62 H62        14.4261  -25.3259  -47.9380 H         1 UNK         0.0903 
     63 H63        14.1609  -24.4452  -46.4322 H         1 UNK         0.0903 
     64 H64        15.2652  -23.7995  -47.6485 H         1 UNK         0.0903 
     65 H65        15.2604  -25.3442  -44.7067 H         1 UNK         0.3096 
     66 H66        17.3458  -27.3049  -45.0482 H         1 UNK         0.1121 
     67 H67        17.1966  -27.4908  -42.5432 H         1 UNK         0.0849 
     68 H68        16.1427  -26.1186  -42.5035 H         1 UNK         0.0849 
     69 H69        14.9526  -30.4247  -43.7449 H         1 UNK         0.0865 
     70 H70        15.7277  -29.5572  -45.0418 H         1 UNK         0.0865 
     71 H71        16.2853  -30.1900  -41.3530 H         1 UNK         0.1346 
     72 H72        20.5116  -30.7168  -41.8598 H         1 UNK         0.1412 
     73 H73        18.0343  -29.8910  -45.2506 H         1 UNK         0.1426 
     74 H74        20.6876  -31.3633  -45.0177 H         1 UNK         0.0716 
     75 H75        21.5486  -30.2983  -43.9366 H         1 UNK         0.0716 
     76 H76        23.0511  -29.1842  -45.3694 H         1 UNK         0.0695 
     77 H77        22.6747  -28.1655  -46.7185 H         1 UNK         0.0695 
     78 H78        23.3992  -26.6446  -45.0762 H         1 UNK         0.0983 
     79 H79        20.5968  -26.5706  -45.6427 H         1 UNK         0.3095 
     80 H80        19.9101  -23.3592  -44.4335 H         1 UNK         0.0454 
     81 H81        21.1254  -22.7498  -46.5342 H         1 UNK         0.0851 
     82 H82        20.3887  -24.1113  -47.3681 H         1 UNK         0.0851 
     83 H83        19.3887  -22.7802  -46.7865 H         1 UNK         0.0851 
     84 H84        18.3943  -25.0469  -46.1492 H         1 UNK         0.2976 
     85 H85        20.6719  -26.7871  -42.9488 H         1 UNK         0.3116 
     86 H86        21.4593  -28.6746  -41.0627 H         1 UNK         0.0646 
     87 H87        19.8790  -27.4838  -39.5410 H         1 UNK         0.0847 
     88 H88        19.1991  -27.6524  -41.1503 H         1 UNK         0.0847 
     89 H89        19.8534  -26.1013  -40.6252 H         1 UNK         0.0847 
     90 H90        22.8316  -25.5071  -41.4991 H         1 UNK         0.3040 
     91 H91        24.0857  -25.1472  -38.9566 H         1 UNK         0.1015 
     92 H92        23.8632  -23.3215  -40.6303 H         1 UNK         0.0786 
     93 H93        24.9075  -24.1893  -41.7563 H         1 UNK         0.0786 
     94 H94        25.5562  -23.5745  -40.2415 H         1 UNK         0.0786 
     95 H95        24.7985  -27.3478  -41.5902 H         1 UNK         0.3172 
     96 H96        27.4034  -28.1461  -40.3498 H         1 UNK         0.0595 
     97 H97        27.9331  -29.0743  -42.5795 H         1 UNK         0.0839 
     98 H98        27.5483  -27.3696  -42.7372 H         1 UNK         0.0839 
     99 H99        26.3604  -28.5888  -43.1990 H         1 UNK         0.0839 
    100 H100       24.3477  -28.8484  -39.8447 H         1 UNK         0.2998 
    101 H101       23.0723  -30.5323  -39.2564 H         1 UNK         0.0822 
    102 H102       24.9499  -31.1824  -37.7442 H         1 UNK         0.0787 
    103 H103       24.0369  -32.5805  -38.2691 H         1 UNK         0.0787 
    104 H104       25.6125  -32.2382  -38.9840 H         1 UNK         0.0787 
    105 H105       24.2574  -33.4192  -40.2078 H         1 UNK         0.3055 
    106 H106       23.7561  -34.9166  -41.7793 H         1 UNK         0.1106 
    107 H107       24.0552  -32.6289  -43.7962 H         1 UNK         0.0828 
    108 H108       25.3886  -33.5623  -43.1202 H         1 UNK         0.0828 
    109 H109       24.1893  -34.3472  -44.1347 H         1 UNK         0.0828 
    110 H110       21.5653  -33.9492  -40.4315 H         1 UNK         0.2931 
    111 H111       19.4011  -33.2593  -42.1647 H         1 UNK         0.0412 
    112 H112       20.7483  -36.4007  -41.7574 H         1 UNK         0.3472 
    113 H113       19.3260  -37.2798  -42.2610 H         1 UNK         0.3472 
    114 H114       17.9868  -33.3652  -40.1635 H         1 UNK         0.0970 
    115 H115       19.2010  -34.2536  -39.2861 H         1 UNK         0.0970 
    116 H116       18.8012  -29.7547  -39.4753 H         1 UNK         0.0612 
    117 H117       17.5818  -31.0037  -39.5021 H         1 UNK         0.0612 
@<TRIPOS>BOND
     1    1    2 1    
     2    1   62 1    
     3    1   63 1    
     4    1   64 1    
     5    2    3 2    
     6    2    4 am   BACKBONE|DICT|INTERRES
     7    4    5 1    
     8    4   65 1    
     9    5    6 1    
    10    5   25 1    
    11    5   66 1    
    12    6    7 1    
    13    6   67 1    
    14    6   68 1    
    15    7    8 1    
    16    8    9 1    
    17    8   69 1    
    18    8   70 1    
    19    9   10 ar   
    20    9   14 ar   
    21   10   11 ar   
    22   10   71 1    
    23   11   12 ar   
    24   11   61 1    
    25   12   13 ar   
    26   12   72 1    
    27   13   14 ar   
    28   13   15 1    
    29   14   73 1    
    30   15   16 1    
    31   15   74 1    
    32   15   75 1    
    33   16   17 1    
    34   17   18 1    
    35   17   76 1    
    36   17   77 1    
    37   18   19 1    
    38   18   27 1    
    39   18   78 1    
    40   19   20 am   BACKBONE|DICT|INTERRES
    41   19   79 1    
    42   20   21 2    
    43   20   22 1    
    44   22   23 1    
    45   22   24 1    
    46   22   80 1    
    47   23   81 1    
    48   23   82 1    
    49   23   83 1    
    50   24   25 am   BACKBONE|DICT|INTERRES
    51   24   84 1    
    52   25   26 2    
    53   27   28 2    
    54   27   29 am   BACKBONE|DICT|INTERRES
    55   29   30 1    
    56   29   85 1    
    57   30   31 1    
    58   30   32 1    
    59   30   86 1    
    60   31   87 1    
    61   31   88 1    
    62   31   89 1    
    63   32   33 2    
    64   32   34 am   BACKBONE|DICT|INTERRES
    65   34   35 1    
    66   34   90 1    
    67   35   36 1    
    68   35   37 1    
    69   35   91 1    
    70   36   92 1    
    71   36   93 1    
    72   36   94 1    
    73   37   38 2    
    74   37   39 am   BACKBONE|DICT|INTERRES
    75   39   40 1    
    76   39   95 1    
    77   40   41 1    
    78   40   42 1    
    79   40   96 1    
    80   41   97 1    
    81   41   98 1    
    82   41   99 1    
    83   42   43 2    
    84   42   44 am   BACKBONE|DICT|INTERRES
    85   44   45 1    
    86   44  100 1    
    87   45   46 1    
    88   45   47 1    
    89   45  101 1    
    90   46  102 1    
    91   46  103 1    
    92   46  104 1    
    93   47   48 2    
    94   47   49 am   BACKBONE|DICT|INTERRES
    95   49   50 1    
    96   49  105 1    
    97   50   51 1    
    98   50   52 1    
    99   50  106 1    
   100   51  107 1    
   101   51  108 1    
   102   51  109 1    
   103   52   53 2    
   104   52   54 am   BACKBONE|DICT|INTERRES
   105   54   55 1    
   106   54  110 1    
   107   55   56 1    
   108   55   59 1    
   109   55  111 1    
   110   56   57 am   BACKBONE|DICT|INTERRES
   111   56   58 2    
   112   57  112 1    
   113   57  113 1    
   114   59   60 1    
   115   59  114 1    
   116   59  115 1    
   117   60   61 1    
   118   61  116 1    
   119   61  117 1    
@<TRIPOS>SUBSTRUCTURE
     1 UNK         1 GROUP             0       ****    0 ROOT    
