@<TRIPOS>MOLECULE
3R8
117   119    1
SMALL
USER_CHARGES


@<TRIPOS>ATOM
      1 CA         20.1902  -28.3724  -41.6784 C.3       0 UNK        -0.2013 
      2 C          19.2840  -27.1688  -41.8851 C.2       0 UNK         0.4866 
      3 O          19.2347  -26.2920  -41.0223 O.2       0 UNK        -0.5176 
      4 N          18.5753  -27.1248  -43.0200 N.am      1 UNK        -0.4884 
      5 CA         17.7100  -26.0138  -43.4332 C.3       1 UNK         0.0853 
      6 C6         16.4308  -26.4989  -44.1760 C.3       10 UNK        -0.0849 
      7 S7         15.4490  -27.7083  -43.2190 S.3       10 UNK        -0.2776 
      8 C8         15.5248  -29.1983  -44.2706 C.3       10 UNK         0.0316 
      9 C9         16.9072  -29.8343  -44.2510 C.ar      10 UNK        -0.0863 
     10 C10        17.2552  -30.7321  -43.2376 C.ar      10 UNK        -0.1009 
     11 C11        18.5364  -31.2914  -43.1928 C.ar      10 UNK        -0.0712 
     12 C12        19.4746  -30.9449  -44.1705 C.ar      10 UNK        -0.0894 
     13 C13        19.1372  -30.0407  -45.1821 C.ar      10 UNK        -0.0745 
     14 C14        17.8465  -29.5101  -45.2329 C.ar      10 UNK        -0.0972 
     15 C15        20.1780  -29.5744  -46.1833 C.3       10 UNK         0.0209 
     16 S16        21.0341  -28.1200  -45.5122 S.3       10 UNK        -0.2568 
     17 C17        21.7844  -27.3762  -47.0038 C.3       10 UNK        -0.0983 
     18 CA         21.8232  -25.8260  -46.9440 C.3       3 UNK         0.0876 
     19 N          20.4841  -25.2737  -46.7219 N.am      3 UNK        -0.4424 
     20 C          20.1375  -23.9836  -46.8069 C.2       2 UNK         0.4918 
     21 O          20.8874  -23.1002  -47.2226 O.2       2 UNK        -0.4875 
     22 CA         18.7219  -23.6064  -46.3218 C.3       2 UNK         0.0481 
     23 CB         17.7991  -23.3495  -47.5240 C.3       2 UNK        -0.1831 
     24 N          18.0827  -24.5855  -45.4274 N.am      2 UNK        -0.4498 
     25 C          18.5522  -24.9913  -44.2354 C.2       1 UNK         0.5027 
     26 O          19.6294  -24.6004  -43.7795 O.2       1 UNK        -0.4969 
     27 C          22.8634  -25.3452  -45.9039 C.2       3 UNK         0.5005 
     28 O          24.0557  -25.3437  -46.2150 O.2       3 UNK        -0.5279 
     29 N          22.4028  -24.9769  -44.6940 N.am      4 UNK        -0.4463 
     30 CA         23.1943  -24.5986  -43.5162 C.3       4 UNK         0.0283 
     31 CB         23.9335  -23.2648  -43.7529 C.3       4 UNK        -0.1875 
     32 C          24.1268  -25.7280  -43.0296 C.2       4 UNK         0.4949 
     33 O          25.2397  -25.4593  -42.5758 O.2       4 UNK        -0.5039 
     34 N          23.6531  -26.9790  -43.1317 N.am      5 UNK        -0.4663 
     35 CA         24.4152  -28.1960  -42.8246 C.3       5 UNK         0.0242 
     36 CB         23.7459  -29.3919  -43.5220 C.3       5 UNK        -0.1982 
     37 C          24.6155  -28.4788  -41.3222 C.2       5 UNK         0.5017 
     38 O          25.3494  -29.4100  -40.9931 O.2       5 UNK        -0.5012 
     39 N          23.9681  -27.6924  -40.4477 N.am      6 UNK        -0.4439 
     40 CA         24.0409  -27.7449  -38.9805 C.3       6 UNK         0.0297 
     41 CB         25.4484  -27.3425  -38.4890 C.3       6 UNK        -0.2006 
     42 C          23.5625  -29.0920  -38.4018 C.2       6 UNK         0.4892 
     43 O          24.2847  -29.7310  -37.6345 O.2       6 UNK        -0.5089 
     44 N          22.3377  -29.4810  -38.7885 N.am      7 UNK        -0.4243 
     45 CA         21.6081  -30.6828  -38.3593 C.3       7 UNK         0.0196 
     46 CB         21.2526  -30.6034  -36.8588 C.3       7 UNK        -0.2007 
     47 C          22.3072  -32.0036  -38.7398 C.2       7 UNK         0.5020 
     48 O          22.2731  -32.9661  -37.9706 O.2       7 UNK        -0.5147 
     49 N          22.8911  -32.0460  -39.9472 N.am      8 UNK        -0.4734 
     50 CA         23.5930  -33.2078  -40.5164 C.3       8 UNK         0.0238 
     51 CB         24.2254  -32.8070  -41.8582 C.3       8 UNK        -0.1912 
     52 C          22.7264  -34.4706  -40.6952 C.2       8 UNK         0.5038 
     53 O          23.2779  -35.5655  -40.8147 O.2       8 UNK        -0.5046 
     54 N          21.3990  -34.2984  -40.6969 N.am      9 UNK        -0.4200 
     55 CA         20.3981  -35.3741  -40.6775 C.3       9 UNK         0.0839 
     56 C          20.3757  -36.1999  -39.3563 C.2       9 UNK         0.5513 
     57 N          20.9509  -35.7224  -38.2574 N.am      9 UNK        -0.7519 
     58 O          19.8225  -37.2961  -39.3316 O.2       9 UNK        -0.4960 
     59 C59        18.9768  -34.8390  -40.9957 C.3       10 UNK        -0.0876 
     60 S60        18.8580  -33.9723  -42.5988 S.3       10 UNK        -0.2414 
     61 C61        18.9164  -32.2347  -42.0633 C.3       10 UNK         0.0169 
     62 H62        19.7281  -29.0774  -40.9882 H         1 UNK         0.0903 
     63 H63        20.3896  -28.8874  -42.6154 H         1 UNK         0.0903 
     64 H64        21.1457  -28.0535  -41.2670 H         1 UNK         0.0903 
     65 H65        18.6452  -27.8926  -43.6748 H         1 UNK         0.3096 
     66 H66        17.3733  -25.4813  -42.5409 H         1 UNK         0.1121 
     67 H67        15.7707  -25.6522  -44.3740 H         1 UNK         0.0849 
     68 H68        16.6764  -26.9219  -45.1496 H         1 UNK         0.0849 
     69 H69        14.7870  -29.9182  -43.9131 H         1 UNK         0.0865 
     70 H70        15.2287  -28.9473  -45.2904 H         1 UNK         0.0865 
     71 H71        16.5315  -30.9826  -42.4738 H         1 UNK         0.1346 
     72 H72        20.4747  -31.3544  -44.1255 H         1 UNK         0.1412 
     73 H73        17.5878  -28.8172  -46.0215 H         1 UNK         0.1426 
     74 H74        19.6994  -29.3280  -47.1323 H         1 UNK         0.0716 
     75 H75        20.9013  -30.3648  -46.3891 H         1 UNK         0.0716 
     76 H76        21.2163  -27.6849  -47.8824 H         1 UNK         0.0695 
     77 H77        22.7856  -27.7902  -47.1392 H         1 UNK         0.0695 
     78 H78        22.1664  -25.4611  -47.9146 H         1 UNK         0.0983 
     79 H79        19.7996  -25.9286  -46.3753 H         1 UNK         0.3095 
     80 H80        18.8168  -22.6735  -45.7625 H         1 UNK         0.0454 
     81 H81        18.2270  -22.6015  -48.1931 H         1 UNK         0.0851 
     82 H82        16.8259  -22.9746  -47.2069 H         1 UNK         0.0851 
     83 H83        17.6376  -24.2549  -48.1103 H         1 UNK         0.0851 
     84 H84        17.1953  -24.9508  -45.7411 H         1 UNK         0.2976 
     85 H85        21.3972  -24.9888  -44.5420 H         1 UNK         0.3116 
     86 H86        22.4745  -24.4353  -42.7126 H         1 UNK         0.0646 
     87 H87        24.7187  -23.3633  -44.5030 H         1 UNK         0.0847 
     88 H88        23.2479  -22.4853  -44.0850 H         1 UNK         0.0847 
     89 H89        24.4049  -22.9108  -42.8353 H         1 UNK         0.0847 
     90 H90        22.7400  -27.1086  -43.5448 H         1 UNK         0.3040 
     91 H91        25.4141  -28.0788  -43.2512 H         1 UNK         0.1015 
     92 H92        24.3347  -30.2991  -43.3892 H         1 UNK         0.0786 
     93 H93        23.6653  -29.2280  -44.5966 H         1 UNK         0.0786 
     94 H94        22.7463  -29.5866  -43.1330 H         1 UNK         0.0786 
     95 H95        23.4028  -26.9512  -40.8360 H         1 UNK         0.3172 
     96 H96        23.3433  -26.9910  -38.6122 H         1 UNK         0.0595 
     97 H97        26.2066  -28.0674  -38.7874 H         1 UNK         0.0839 
     98 H98        25.4768  -27.2743  -37.4008 H         1 UNK         0.0839 
     99 H99        25.7428  -26.3694  -38.8821 H         1 UNK         0.0839 
    100 H100       21.8382  -28.8700  -39.4172 H         1 UNK         0.2998 
    101 H101       20.6674  -30.6785  -38.9122 H         1 UNK         0.0822 
    102 H102       20.5939  -31.4228  -36.5681 H         1 UNK         0.0787 
    103 H103       20.7340  -29.6744  -36.6218 H         1 UNK         0.0787 
    104 H104       22.1403  -30.6627  -36.2283 H         1 UNK         0.0787 
    105 H105       22.9041  -31.2000  -40.4976 H         1 UNK         0.3055 
    106 H106       24.3952  -33.4743  -39.8247 H         1 UNK         0.1106 
    107 H107       24.9449  -31.9986  -41.7299 H         1 UNK         0.0828 
    108 H108       24.7649  -33.6442  -42.3035 H         1 UNK         0.0828 
    109 H109       23.4727  -32.4854  -42.5788 H         1 UNK         0.0828 
    110 H110       21.0472  -33.3611  -40.5913 H         1 UNK         0.2931 
    111 H111       20.6707  -36.0736  -41.4702 H         1 UNK         0.0412 
    112 H112       20.9276  -36.2717  -37.4128 H         1 UNK         0.3472 
    113 H113       21.4076  -34.8170  -38.2547 H         1 UNK         0.3472 
    114 H114       18.2668  -35.6678  -41.0308 H         1 UNK         0.0970 
    115 H115       18.6248  -34.1859  -40.1950 H         1 UNK         0.0970 
    116 H116       18.2441  -32.0894  -41.2163 H         1 UNK         0.0612 
    117 H117       19.9192  -31.9950  -41.7080 H         1 UNK         0.0612 
@<TRIPOS>BOND
     1    1    2 1    
     2    1   62 1    
     3    1   63 1    
     4    1   64 1    
     5    2    3 2    
     6    2    4 am   BACKBONE|DICT|INTERRES
     7    4    5 1    
     8    4   65 1    
     9    5    6 1    
    10    5   25 1    
    11    5   66 1    
    12    6    7 1    
    13    6   67 1    
    14    6   68 1    
    15    7    8 1    
    16    8    9 1    
    17    8   69 1    
    18    8   70 1    
    19    9   10 ar   
    20    9   14 ar   
    21   10   11 ar   
    22   10   71 1    
    23   11   12 ar   
    24   11   61 1    
    25   12   13 ar   
    26   12   72 1    
    27   13   14 ar   
    28   13   15 1    
    29   14   73 1    
    30   15   16 1    
    31   15   74 1    
    32   15   75 1    
    33   16   17 1    
    34   17   18 1    
    35   17   76 1    
    36   17   77 1    
    37   18   19 1    
    38   18   27 1    
    39   18   78 1    
    40   19   20 am   BACKBONE|DICT|INTERRES
    41   19   79 1    
    42   20   21 2    
    43   20   22 1    
    44   22   23 1    
    45   22   24 1    
    46   22   80 1    
    47   23   81 1    
    48   23   82 1    
    49   23   83 1    
    50   24   25 am   BACKBONE|DICT|INTERRES
    51   24   84 1    
    52   25   26 2    
    53   27   28 2    
    54   27   29 am   BACKBONE|DICT|INTERRES
    55   29   30 1    
    56   29   85 1    
    57   30   31 1    
    58   30   32 1    
    59   30   86 1    
    60   31   87 1    
    61   31   88 1    
    62   31   89 1    
    63   32   33 2    
    64   32   34 am   BACKBONE|DICT|INTERRES
    65   34   35 1    
    66   34   90 1    
    67   35   36 1    
    68   35   37 1    
    69   35   91 1    
    70   36   92 1    
    71   36   93 1    
    72   36   94 1    
    73   37   38 2    
    74   37   39 am   BACKBONE|DICT|INTERRES
    75   39   40 1    
    76   39   95 1    
    77   40   41 1    
    78   40   42 1    
    79   40   96 1    
    80   41   97 1    
    81   41   98 1    
    82   41   99 1    
    83   42   43 2    
    84   42   44 am   BACKBONE|DICT|INTERRES
    85   44   45 1    
    86   44  100 1    
    87   45   46 1    
    88   45   47 1    
    89   45  101 1    
    90   46  102 1    
    91   46  103 1    
    92   46  104 1    
    93   47   48 2    
    94   47   49 am   BACKBONE|DICT|INTERRES
    95   49   50 1    
    96   49  105 1    
    97   50   51 1    
    98   50   52 1    
    99   50  106 1    
   100   51  107 1    
   101   51  108 1    
   102   51  109 1    
   103   52   53 2    
   104   52   54 am   BACKBONE|DICT|INTERRES
   105   54   55 1    
   106   54  110 1    
   107   55   56 1    
   108   55   59 1    
   109   55  111 1    
   110   56   57 am   BACKBONE|DICT|INTERRES
   111   56   58 2    
   112   57  112 1    
   113   57  113 1    
   114   59   60 1    
   115   59  114 1    
   116   59  115 1    
   117   60   61 1    
   118   61  116 1    
   119   61  117 1    
@<TRIPOS>SUBSTRUCTURE
     1 UNK         1 GROUP             0       ****    0 ROOT    
