@<TRIPOS>MOLECULE
3R8
117   119    1
SMALL
USER_CHARGES


@<TRIPOS>ATOM
      1 CA         14.8791  -23.2572  -42.8056 C.3       0 UNK        -0.2013 
      2 C          15.9412  -23.4509  -43.8776 C.2       0 UNK         0.4866 
      3 O          16.3377  -22.4841  -44.5297 O.2       0 UNK        -0.5176 
      4 N          16.3974  -24.6942  -44.0712 N.am      1 UNK        -0.4884 
      5 CA         17.4538  -25.0599  -45.0210 C.3       1 UNK         0.0853 
      6 C6         17.5463  -26.5960  -45.2253 C.3       10 UNK        -0.0849 
      7 S7         15.9797  -27.4080  -45.6830 S.3       10 UNK        -0.2776 
      8 C8         15.7306  -28.5536  -44.2733 C.3       10 UNK         0.0316 
      9 C9         16.8076  -29.6281  -44.0711 C.ar      10 UNK        -0.0863 
     10 C10        16.8726  -30.2855  -42.8366 C.ar      10 UNK        -0.1009 
     11 C11        17.8104  -31.2982  -42.6086 C.ar      10 UNK        -0.0712 
     12 C12        18.7107  -31.6403  -43.6207 C.ar      10 UNK        -0.0894 
     13 C13        18.6688  -30.9911  -44.8561 C.ar      10 UNK        -0.0745 
     14 C14        17.7048  -30.0024  -45.0813 C.ar      10 UNK        -0.0972 
     15 C15        19.6451  -31.3855  -45.9571 C.3       10 UNK         0.0209 
     16 S16        21.3078  -30.6816  -45.7023 S.3       10 UNK        -0.2568 
     17 C17        20.9999  -28.8988  -45.9546 C.3       10 UNK        -0.0983 
     18 CA         21.6392  -27.9462  -44.9100 C.3       3 UNK         0.0876 
     19 N          21.3304  -26.5592  -45.2677 N.am      3 UNK        -0.4424 
     20 C          21.8100  -25.4487  -44.6899 C.2       2 UNK         0.4918 
     21 O          22.6403  -25.4470  -43.7823 O.2       2 UNK        -0.4875 
     22 CA         21.1814  -24.1239  -45.1690 C.3       2 UNK         0.0481 
     23 CB         21.9217  -23.5862  -46.4034 C.3       2 UNK        -0.1831 
     24 N          19.7497  -24.2804  -45.4719 N.am      2 UNK        -0.4498 
     25 C          18.8282  -24.5538  -44.5358 C.2       1 UNK         0.5027 
     26 O          19.0740  -24.5390  -43.3282 O.2       1 UNK        -0.4969 
     27 C          21.2615  -28.2901  -43.4476 C.2       3 UNK         0.5005 
     28 O          21.9383  -29.1148  -42.8358 O.2       3 UNK        -0.5279 
     29 N          20.2529  -27.6125  -42.8736 N.am      4 UNK        -0.4463 
     30 CA         19.8250  -27.8005  -41.4819 C.3       4 UNK         0.0283 
     31 CB         18.4896  -27.0835  -41.2299 C.3       4 UNK        -0.1875 
     32 C          20.8799  -27.3697  -40.4448 C.2       4 UNK         0.4949 
     33 O          20.8371  -27.8465  -39.3112 O.2       4 UNK        -0.5039 
     34 N          21.8094  -26.4919  -40.8470 N.am      5 UNK        -0.4663 
     35 CA         22.9521  -26.0621  -40.0406 C.3       5 UNK         0.0242 
     36 CB         23.2503  -24.5874  -40.3618 C.3       5 UNK        -0.1982 
     37 C          24.2041  -26.9308  -40.2708 C.2       5 UNK         0.5017 
     38 O          25.1911  -26.7391  -39.5586 O.2       5 UNK        -0.5012 
     39 N          24.1704  -27.8428  -41.2531 N.am      6 UNK        -0.4439 
     40 CA         25.2764  -28.7360  -41.5955 C.3       6 UNK         0.0297 
     41 CB         25.2900  -28.9562  -43.1189 C.3       6 UNK        -0.2006 
     42 C          25.1362  -30.0769  -40.8617 C.2       6 UNK         0.4892 
     43 O          24.0385  -30.4468  -40.4388 O.2       6 UNK        -0.5089 
     44 N          26.2535  -30.8130  -40.7823 N.am      7 UNK        -0.4243 
     45 CA         26.3605  -32.1405  -40.1610 C.3       7 UNK         0.0196 
     46 CB         27.8431  -32.5448  -40.1025 C.3       7 UNK        -0.2007 
     47 C          25.5271  -33.2428  -40.8459 C.2       7 UNK         0.5020 
     48 O          25.3285  -34.3023  -40.2513 O.2       7 UNK        -0.5147 
     49 N          25.0469  -32.9807  -42.0698 N.am      8 UNK        -0.4734 
     50 CA         24.1023  -33.8254  -42.8042 C.3       8 UNK         0.0238 
     51 CB         23.9719  -33.2979  -44.2425 C.3       8 UNK        -0.1912 
     52 C          22.7151  -33.9111  -42.1393 C.2       8 UNK         0.5038 
     53 O          22.0318  -34.9198  -42.3197 O.2       8 UNK        -0.5046 
     54 N          22.3279  -32.8691  -41.3922 N.am      9 UNK        -0.4200 
     55 CA         21.1000  -32.8229  -40.5959 C.3       9 UNK         0.0839 
     56 C          21.3818  -33.3311  -39.1587 C.2       9 UNK         0.5513 
     57 N          20.5908  -34.2733  -38.6633 N.am      9 UNK        -0.7519 
     58 O          22.2943  -32.8635  -38.4814 O.2       9 UNK        -0.4960 
     59 C59        20.5066  -31.3934  -40.6206 C.3       10 UNK        -0.0876 
     60 S60        18.7972  -31.2759  -39.9845 S.3       10 UNK        -0.2414 
     61 C61        17.8094  -32.0687  -41.2947 C.3       10 UNK         0.0169 
     62 H62        13.9750  -22.8362  -43.2446 H         1 UNK         0.0903 
     63 H63        14.6142  -24.1958  -42.3190 H         1 UNK         0.0903 
     64 H64        15.2395  -22.5693  -42.0412 H         1 UNK         0.0903 
     65 H65        16.0384  -25.4489  -43.5060 H         1 UNK         0.3096 
     66 H66        17.2242  -24.5878  -45.9792 H         1 UNK         0.1121 
     67 H67        18.2620  -26.8262  -46.0162 H         1 UNK         0.0849 
     68 H68        17.9303  -27.0777  -44.3262 H         1 UNK         0.0849 
     69 H69        14.7725  -29.0563  -44.4112 H         1 UNK         0.0865 
     70 H70        15.6332  -27.9601  -43.3632 H         1 UNK         0.0865 
     71 H71        16.1745  -30.0249  -42.0525 H         1 UNK         0.1346 
     72 H72        19.4403  -32.4209  -43.4524 H         1 UNK         0.1412 
     73 H73        17.6587  -29.5294  -46.0515 H         1 UNK         0.1426 
     74 H74        19.2704  -31.0792  -46.9351 H         1 UNK         0.0716 
     75 H75        19.7282  -32.4728  -45.9924 H         1 UNK         0.0716 
     76 H76        19.9271  -28.7202  -46.0039 H         1 UNK         0.0695 
     77 H77        21.3798  -28.6525  -46.9474 H         1 UNK         0.0695 
     78 H78        22.7237  -28.0566  -44.9788 H         1 UNK         0.0983 
     79 H79        20.6792  -26.4404  -46.0281 H         1 UNK         0.3095 
     80 H80        21.2859  -23.3927  -44.3645 H         1 UNK         0.0454 
     81 H81        21.8475  -24.2656  -47.2534 H         1 UNK         0.0851 
     82 H82        22.9825  -23.4472  -46.1900 H         1 UNK         0.0851 
     83 H83        21.5267  -22.6181  -46.7117 H         1 UNK         0.0851 
     84 H84        19.4846  -24.2823  -46.4473 H         1 UNK         0.2976 
     85 H85        19.7932  -26.8810  -43.3935 H         1 UNK         0.3116 
     86 H86        19.6481  -28.8654  -41.3459 H         1 UNK         0.0646 
     87 H87        18.1117  -27.3194  -40.2342 H         1 UNK         0.0847 
     88 H88        17.7257  -27.3941  -41.9412 H         1 UNK         0.0847 
     89 H89        18.5912  -26.0001  -41.2838 H         1 UNK         0.0847 
     90 H90        21.7834  -26.1544  -41.8017 H         1 UNK         0.3040 
     91 H91        22.7015  -26.1333  -38.9797 H         1 UNK         0.1015 
     92 H92        22.3801  -23.9571  -40.1777 H         1 UNK         0.0786 
     93 H93        23.5484  -24.4527  -41.4022 H         1 UNK         0.0786 
     94 H94        24.0614  -24.2073  -39.7392 H         1 UNK         0.0786 
     95 H95        23.2876  -28.0408  -41.7129 H         1 UNK         0.3172 
     96 H96        26.2240  -28.2754  -41.3079 H         1 UNK         0.0595 
     97 H97        24.4268  -29.5303  -43.4571 H         1 UNK         0.0839 
     98 H98        26.1811  -29.5034  -43.4284 H         1 UNK         0.0839 
     99 H99        25.2926  -28.0082  -43.6574 H         1 UNK         0.0839 
    100 H100       27.1055  -30.4350  -41.1721 H         1 UNK         0.2998 
    101 H101       25.9873  -32.0542  -39.1382 H         1 UNK         0.0822 
    102 H102       28.4311  -31.8215  -39.5371 H         1 UNK         0.0787 
    103 H103       27.9662  -33.5115  -39.6118 H         1 UNK         0.0787 
    104 H104       28.2779  -32.6283  -41.0994 H         1 UNK         0.0787 
    105 H105       25.2763  -32.0894  -42.4835 H         1 UNK         0.3055 
    106 H106       24.5100  -34.8382  -42.8399 H         1 UNK         0.1106 
    107 H107       23.2814  -33.9115  -44.8231 H         1 UNK         0.0828 
    108 H108       23.5925  -32.2752  -44.2639 H         1 UNK         0.0828 
    109 H109       24.9305  -33.3127  -44.7612 H         1 UNK         0.0828 
    110 H110       22.9746  -32.1026  -41.2394 H         1 UNK         0.2931 
    111 H111       20.3715  -33.4885  -41.0607 H         1 UNK         0.0412 
    112 H112       19.8322  -34.6543  -39.2072 H         1 UNK         0.3472 
    113 H113       20.7531  -34.6078  -37.7262 H         1 UNK         0.3472 
    114 H114       20.5156  -31.0110  -41.6408 H         1 UNK         0.0970 
    115 H115       21.1381  -30.7068  -40.0524 H         1 UNK         0.0970 
    116 H116       18.1572  -33.0896  -41.4539 H         1 UNK         0.0612 
    117 H117       16.7836  -32.1628  -40.9354 H         1 UNK         0.0612 
@<TRIPOS>BOND
     1    1    2 1    
     2    1   62 1    
     3    1   63 1    
     4    1   64 1    
     5    2    3 2    
     6    2    4 am   BACKBONE|DICT|INTERRES
     7    4    5 1    
     8    4   65 1    
     9    5    6 1    
    10    5   25 1    
    11    5   66 1    
    12    6    7 1    
    13    6   67 1    
    14    6   68 1    
    15    7    8 1    
    16    8    9 1    
    17    8   69 1    
    18    8   70 1    
    19    9   10 ar   
    20    9   14 ar   
    21   10   11 ar   
    22   10   71 1    
    23   11   12 ar   
    24   11   61 1    
    25   12   13 ar   
    26   12   72 1    
    27   13   14 ar   
    28   13   15 1    
    29   14   73 1    
    30   15   16 1    
    31   15   74 1    
    32   15   75 1    
    33   16   17 1    
    34   17   18 1    
    35   17   76 1    
    36   17   77 1    
    37   18   19 1    
    38   18   27 1    
    39   18   78 1    
    40   19   20 am   BACKBONE|DICT|INTERRES
    41   19   79 1    
    42   20   21 2    
    43   20   22 1    
    44   22   23 1    
    45   22   24 1    
    46   22   80 1    
    47   23   81 1    
    48   23   82 1    
    49   23   83 1    
    50   24   25 am   BACKBONE|DICT|INTERRES
    51   24   84 1    
    52   25   26 2    
    53   27   28 2    
    54   27   29 am   BACKBONE|DICT|INTERRES
    55   29   30 1    
    56   29   85 1    
    57   30   31 1    
    58   30   32 1    
    59   30   86 1    
    60   31   87 1    
    61   31   88 1    
    62   31   89 1    
    63   32   33 2    
    64   32   34 am   BACKBONE|DICT|INTERRES
    65   34   35 1    
    66   34   90 1    
    67   35   36 1    
    68   35   37 1    
    69   35   91 1    
    70   36   92 1    
    71   36   93 1    
    72   36   94 1    
    73   37   38 2    
    74   37   39 am   BACKBONE|DICT|INTERRES
    75   39   40 1    
    76   39   95 1    
    77   40   41 1    
    78   40   42 1    
    79   40   96 1    
    80   41   97 1    
    81   41   98 1    
    82   41   99 1    
    83   42   43 2    
    84   42   44 am   BACKBONE|DICT|INTERRES
    85   44   45 1    
    86   44  100 1    
    87   45   46 1    
    88   45   47 1    
    89   45  101 1    
    90   46  102 1    
    91   46  103 1    
    92   46  104 1    
    93   47   48 2    
    94   47   49 am   BACKBONE|DICT|INTERRES
    95   49   50 1    
    96   49  105 1    
    97   50   51 1    
    98   50   52 1    
    99   50  106 1    
   100   51  107 1    
   101   51  108 1    
   102   51  109 1    
   103   52   53 2    
   104   52   54 am   BACKBONE|DICT|INTERRES
   105   54   55 1    
   106   54  110 1    
   107   55   56 1    
   108   55   59 1    
   109   55  111 1    
   110   56   57 am   BACKBONE|DICT|INTERRES
   111   56   58 2    
   112   57  112 1    
   113   57  113 1    
   114   59   60 1    
   115   59  114 1    
   116   59  115 1    
   117   60   61 1    
   118   61  116 1    
   119   61  117 1    
@<TRIPOS>SUBSTRUCTURE
     1 UNK         1 GROUP             0       ****    0 ROOT    
