@<TRIPOS>MOLECULE
3R8
117   119    1
SMALL
USER_CHARGES


@<TRIPOS>ATOM
      1 CA         17.2933  -21.3296  -43.2305 C.3       0 UNK        -0.2013 
      2 C          17.7320  -22.2351  -42.0822 C.2       0 UNK         0.4866 
      3 O          18.1390  -21.7286  -41.0388 O.2       0 UNK        -0.5176 
      4 N          17.6653  -23.5686  -42.2097 N.am      1 UNK        -0.4884 
      5 CA         17.2638  -24.3415  -43.3947 C.3       1 UNK         0.0853 
      6 C6         16.9712  -25.8224  -43.0425 C.3       10 UNK        -0.0849 
      7 S7         18.3170  -26.6426  -42.1163 S.3       10 UNK        -0.2776 
      8 C8         17.5952  -28.2835  -41.7969 C.3       10 UNK         0.0316 
      9 C9         18.1675  -29.3520  -42.7192 C.ar      10 UNK        -0.0863 
     10 C10        18.9723  -30.3702  -42.1995 C.ar      10 UNK        -0.1009 
     11 C11        19.4620  -31.3854  -43.0259 C.ar      10 UNK        -0.0712 
     12 C12        19.1678  -31.3585  -44.3939 C.ar      10 UNK        -0.0894 
     13 C13        18.3656  -30.3451  -44.9287 C.ar      10 UNK        -0.0745 
     14 C14        17.8592  -29.3533  -44.0824 C.ar      10 UNK        -0.0972 
     15 C15        17.9987  -30.3500  -46.4084 C.3       10 UNK         0.0209 
     16 S16        19.3272  -29.7068  -47.4793 S.3       10 UNK        -0.2568 
     17 C17        19.4248  -27.9501  -46.9717 C.3       10 UNK        -0.0983 
     18 CA         20.8333  -27.4193  -46.5763 C.3       3 UNK         0.0876 
     19 N          20.7246  -26.2171  -45.7568 N.am      3 UNK        -0.4424 
     20 C          20.8441  -24.9630  -46.2009 C.2       2 UNK         0.4918 
     21 O          21.0567  -24.6731  -47.3799 O.2       2 UNK        -0.4875 
     22 CA         20.6926  -23.8499  -45.1424 C.3       2 UNK         0.0481 
     23 CB         20.6216  -22.4392  -45.7644 C.3       2 UNK        -0.1831 
     24 N          19.5597  -24.0594  -44.2307 N.am      2 UNK        -0.4498 
     25 C          18.2681  -24.2275  -44.5610 C.2       1 UNK         0.5027 
     26 O          17.8453  -24.2598  -45.7169 O.2       1 UNK        -0.4969 
     27 C          21.7045  -28.4061  -45.7813 C.2       3 UNK         0.5005 
     28 O          21.5254  -28.5273  -44.5670 O.2       3 UNK        -0.5279 
     29 N          22.6371  -29.0750  -46.4787 N.am      4 UNK        -0.4463 
     30 CA         23.6116  -30.0336  -45.9465 C.3       4 UNK         0.0283 
     31 CB         22.9069  -31.3590  -45.5848 C.3       4 UNK        -0.1875 
     32 C          24.4518  -29.4110  -44.8120 C.2       4 UNK         0.4949 
     33 O          25.1127  -28.3996  -45.0541 O.2       4 UNK        -0.5039 
     34 N          24.4073  -29.9936  -43.6069 N.am      5 UNK        -0.4663 
     35 CA         25.0592  -29.4527  -42.4095 C.3       5 UNK         0.0242 
     36 CB         25.4349  -30.6147  -41.4757 C.3       5 UNK        -0.1982 
     37 C          24.1805  -28.4369  -41.6551 C.2       5 UNK         0.5017 
     38 O          24.6851  -27.7935  -40.7343 O.2       5 UNK        -0.5012 
     39 N          22.8942  -28.3320  -42.0272 N.am      6 UNK        -0.4439 
     40 CA         21.8425  -27.5216  -41.4034 C.3       6 UNK         0.0297 
     41 CB         22.0738  -26.0219  -41.6834 C.3       6 UNK        -0.2006 
     42 C          21.6348  -27.8396  -39.9081 C.2       6 UNK         0.4892 
     43 O          21.4625  -26.9268  -39.0975 O.2       6 UNK        -0.5089 
     44 N          21.6775  -29.1338  -39.5702 N.am      7 UNK        -0.4243 
     45 CA         21.5829  -29.6617  -38.2112 C.3       7 UNK         0.0196 
     46 CB         22.9496  -29.5332  -37.5003 C.3       7 UNK        -0.2007 
     47 C          21.0397  -31.0964  -38.2863 C.2       7 UNK         0.5020 
     48 O          20.0844  -31.3373  -39.0233 O.2       7 UNK        -0.5147 
     49 N          21.6457  -32.0330  -37.5445 N.am      8 UNK        -0.4734 
     50 CA         21.3242  -33.4639  -37.6113 C.3       8 UNK         0.0238 
     51 CB         21.9044  -34.1751  -36.3778 C.3       8 UNK        -0.1912 
     52 C          21.8281  -34.1302  -38.9055 C.2       8 UNK         0.5038 
     53 O          21.2285  -35.1099  -39.3494 O.2       8 UNK        -0.5046 
     54 N          22.9143  -33.5856  -39.4737 N.am      9 UNK        -0.4200 
     55 CA         23.5721  -34.0249  -40.7172 C.3       9 UNK         0.0839 
     56 C          24.2365  -35.4344  -40.6435 C.2       9 UNK         0.5513 
     57 N          24.5048  -35.9763  -39.4614 N.am      9 UNK        -0.7519 
     58 O          24.5453  -36.0353  -41.6695 O.2       9 UNK        -0.4960 
     59 C59        22.6800  -33.8480  -41.9798 C.3       10 UNK        -0.0876 
     60 S60        22.0039  -32.1597  -42.1843 S.3       10 UNK        -0.2414 
     61 C61        20.2445  -32.5482  -42.4309 C.3       10 UNK         0.0169 
     62 H62        16.3229  -21.6245  -43.6273 H         1 UNK         0.0903 
     63 H63        17.2027  -20.2996  -42.8860 H         1 UNK         0.0903 
     64 H64        18.0254  -21.3440  -44.0370 H         1 UNK         0.0903 
     65 H65        17.9532  -24.1381  -41.4255 H         1 UNK         0.3096 
     66 H66        16.3256  -23.9202  -43.7610 H         1 UNK         0.1121 
     67 H67        16.0694  -25.8680  -42.4296 H         1 UNK         0.0849 
     68 H68        16.7433  -26.3959  -43.9423 H         1 UNK         0.0849 
     69 H69        16.5100  -28.2519  -41.9023 H         1 UNK         0.0865 
     70 H70        17.7870  -28.5417  -40.7542 H         1 UNK         0.0865 
     71 H71        19.1956  -30.3902  -41.1433 H         1 UNK         0.1346 
     72 H72        19.5431  -32.1393  -45.0410 H         1 UNK         0.1412 
     73 H73        17.2192  -28.5823  -44.4853 H         1 UNK         0.1426 
     74 H74        17.0902  -29.7706  -46.5807 H         1 UNK         0.0716 
     75 H75        17.7668  -31.3703  -46.7171 H         1 UNK         0.0716 
     76 H76        18.7315  -27.7883  -46.1472 H         1 UNK         0.0695 
     77 H77        19.0326  -27.3441  -47.7895 H         1 UNK         0.0695 
     78 H78        21.3734  -27.1843  -47.4962 H         1 UNK         0.0983 
     79 H79        20.6006  -26.3954  -44.7687 H         1 UNK         0.3095 
     80 H80        21.5924  -23.8922  -44.5271 H         1 UNK         0.0454 
     81 H81        20.5604  -21.6690  -44.9959 H         1 UNK         0.0851 
     82 H82        19.7571  -22.3291  -46.4199 H         1 UNK         0.0851 
     83 H83        21.5104  -22.2284  -46.3604 H         1 UNK         0.0851 
     84 H84        19.7816  -24.0620  -43.2446 H         1 UNK         0.2976 
     85 H85        22.7175  -28.8860  -47.4682 H         1 UNK         0.3116 
     86 H86        24.3135  -30.2472  -46.7539 H         1 UNK         0.0646 
     87 H87        23.6040  -32.0926  -45.1780 H         1 UNK         0.0847 
     88 H88        22.4535  -31.8090  -46.4679 H         1 UNK         0.0847 
     89 H89        22.1087  -31.2063  -44.8601 H         1 UNK         0.0847 
     90 H90        23.8158  -30.8037  -43.4780 H         1 UNK         0.3040 
     91 H91        25.9793  -28.9397  -42.6989 H         1 UNK         0.1015 
     92 H92        24.5501  -31.0693  -41.0321 H         1 UNK         0.0786 
     93 H93        26.0603  -30.2640  -40.6536 H         1 UNK         0.0786 
     94 H94        25.9934  -31.3902  -42.0000 H         1 UNK         0.0786 
     95 H95        22.5906  -28.8403  -42.8532 H         1 UNK         0.3172 
     96 H96        20.9206  -27.8153  -41.9042 H         1 UNK         0.0595 
     97 H97        22.9701  -25.6521  -41.1845 H         1 UNK         0.0839 
     98 H98        21.2327  -25.4250  -41.3290 H         1 UNK         0.0839 
     99 H99        22.1799  -25.8322  -42.7512 H         1 UNK         0.0839 
    100 H100       21.7552  -29.8264  -40.3035 H         1 UNK         0.2998 
    101 H101       20.8434  -29.0799  -37.6570 H         1 UNK         0.0822 
    102 H102       23.7236  -30.1170  -38.0003 H         1 UNK         0.0787 
    103 H103       23.2864  -28.4964  -37.4826 H         1 UNK         0.0787 
    104 H104       22.8941  -29.8596  -36.4611 H         1 UNK         0.0787 
    105 H105       22.4072  -31.7574  -36.9405 H         1 UNK         0.3055 
    106 H106       20.2374  -33.5758  -37.5914 H         1 UNK         0.1106 
    107 H107       21.6647  -35.2394  -36.3931 H         1 UNK         0.0828 
    108 H108       22.9903  -34.0864  -36.3297 H         1 UNK         0.0828 
    109 H109       21.4925  -33.7668  -35.4547 H         1 UNK         0.0828 
    110 H110       23.3347  -32.7915  -39.0164 H         1 UNK         0.2931 
    111 H111       24.4196  -33.3516  -40.8371 H         1 UNK         0.0412 
    112 H112       24.2693  -35.4918  -38.6105 H         1 UNK         0.3472 
    113 H113       24.9442  -36.8828  -39.4222 H         1 UNK         0.3472 
    114 H114       23.2525  -34.0727  -42.8814 H         1 UNK         0.0970 
    115 H115       21.8671  -34.5754  -41.9581 H         1 UNK         0.0970 
    116 H116       20.1547  -33.4168  -43.0852 H         1 UNK         0.0612 
    117 H117       19.8092  -32.8394  -41.4736 H         1 UNK         0.0612 
@<TRIPOS>BOND
     1    1    2 1    
     2    1   62 1    
     3    1   63 1    
     4    1   64 1    
     5    2    3 2    
     6    2    4 am   BACKBONE|DICT|INTERRES
     7    4    5 1    
     8    4   65 1    
     9    5    6 1    
    10    5   25 1    
    11    5   66 1    
    12    6    7 1    
    13    6   67 1    
    14    6   68 1    
    15    7    8 1    
    16    8    9 1    
    17    8   69 1    
    18    8   70 1    
    19    9   10 ar   
    20    9   14 ar   
    21   10   11 ar   
    22   10   71 1    
    23   11   12 ar   
    24   11   61 1    
    25   12   13 ar   
    26   12   72 1    
    27   13   14 ar   
    28   13   15 1    
    29   14   73 1    
    30   15   16 1    
    31   15   74 1    
    32   15   75 1    
    33   16   17 1    
    34   17   18 1    
    35   17   76 1    
    36   17   77 1    
    37   18   19 1    
    38   18   27 1    
    39   18   78 1    
    40   19   20 am   BACKBONE|DICT|INTERRES
    41   19   79 1    
    42   20   21 2    
    43   20   22 1    
    44   22   23 1    
    45   22   24 1    
    46   22   80 1    
    47   23   81 1    
    48   23   82 1    
    49   23   83 1    
    50   24   25 am   BACKBONE|DICT|INTERRES
    51   24   84 1    
    52   25   26 2    
    53   27   28 2    
    54   27   29 am   BACKBONE|DICT|INTERRES
    55   29   30 1    
    56   29   85 1    
    57   30   31 1    
    58   30   32 1    
    59   30   86 1    
    60   31   87 1    
    61   31   88 1    
    62   31   89 1    
    63   32   33 2    
    64   32   34 am   BACKBONE|DICT|INTERRES
    65   34   35 1    
    66   34   90 1    
    67   35   36 1    
    68   35   37 1    
    69   35   91 1    
    70   36   92 1    
    71   36   93 1    
    72   36   94 1    
    73   37   38 2    
    74   37   39 am   BACKBONE|DICT|INTERRES
    75   39   40 1    
    76   39   95 1    
    77   40   41 1    
    78   40   42 1    
    79   40   96 1    
    80   41   97 1    
    81   41   98 1    
    82   41   99 1    
    83   42   43 2    
    84   42   44 am   BACKBONE|DICT|INTERRES
    85   44   45 1    
    86   44  100 1    
    87   45   46 1    
    88   45   47 1    
    89   45  101 1    
    90   46  102 1    
    91   46  103 1    
    92   46  104 1    
    93   47   48 2    
    94   47   49 am   BACKBONE|DICT|INTERRES
    95   49   50 1    
    96   49  105 1    
    97   50   51 1    
    98   50   52 1    
    99   50  106 1    
   100   51  107 1    
   101   51  108 1    
   102   51  109 1    
   103   52   53 2    
   104   52   54 am   BACKBONE|DICT|INTERRES
   105   54   55 1    
   106   54  110 1    
   107   55   56 1    
   108   55   59 1    
   109   55  111 1    
   110   56   57 am   BACKBONE|DICT|INTERRES
   111   56   58 2    
   112   57  112 1    
   113   57  113 1    
   114   59   60 1    
   115   59  114 1    
   116   59  115 1    
   117   60   61 1    
   118   61  116 1    
   119   61  117 1    
@<TRIPOS>SUBSTRUCTURE
     1 UNK         1 GROUP             0       ****    0 ROOT    
