@<TRIPOS>MOLECULE
3R8
117   119    1
SMALL
USER_CHARGES


@<TRIPOS>ATOM
      1 CA         14.9885  -29.8745  -42.9102 C.3       0 UNK        -0.2013 
      2 C          15.0822  -28.5042  -43.5629 C.2       0 UNK         0.4866 
      3 O          14.2395  -27.6433  -43.3110 O.2       0 UNK        -0.5176 
      4 N          16.1061  -28.2957  -44.3983 N.am      1 UNK        -0.4884 
      5 CA         16.3562  -27.0449  -45.1275 C.3       1 UNK         0.0853 
      6 C6         17.1393  -27.3045  -46.4368 C.3       10 UNK        -0.0849 
      7 S7         16.2388  -28.2507  -47.7219 S.3       10 UNK        -0.2776 
      8 C8         16.1402  -29.9847  -47.1296 C.3       10 UNK         0.0316 
      9 C9         17.4163  -30.5780  -46.5313 C.ar      10 UNK        -0.0863 
     10 C10        17.3060  -31.5893  -45.5713 C.ar      10 UNK        -0.1009 
     11 C11        18.4447  -32.1371  -44.9735 C.ar      10 UNK        -0.0712 
     12 C12        19.7079  -31.6466  -45.3219 C.ar      10 UNK        -0.0894 
     13 C13        19.8327  -30.6343  -46.2769 C.ar      10 UNK        -0.0745 
     14 C14        18.6903  -30.1471  -46.9148 C.ar      10 UNK        -0.0972 
     15 C15        21.1896  -30.0367  -46.6153 C.3       10 UNK         0.0209 
     16 S16        21.3306  -28.3286  -45.9884 S.3       10 UNK        -0.2568 
     17 C17        21.8196  -28.6179  -44.2594 C.3       10 UNK        -0.0983 
     18 CA         21.7562  -27.3213  -43.4061 C.3       3 UNK         0.0876 
     19 N          20.3748  -26.9774  -43.0508 N.am      3 UNK        -0.4424 
     20 C          19.9295  -25.7660  -42.6898 C.2       2 UNK         0.4918 
     21 O          20.6230  -24.7474  -42.7199 O.2       2 UNK        -0.4875 
     22 CA         18.4842  -25.7144  -42.1640 C.3       2 UNK         0.0481 
     23 CB         18.0019  -24.2935  -41.7995 C.3       2 UNK        -0.1831 
     24 N          17.5677  -26.4138  -43.0697 N.am      2 UNK        -0.4498 
     25 C          17.1214  -26.0105  -44.2691 C.2       1 UNK         0.5027 
     26 O          17.3139  -24.8846  -44.7298 O.2       1 UNK        -0.4969 
     27 C          22.6136  -27.4200  -42.1238 C.2       3 UNK         0.5005 
     28 O          23.1210  -28.4963  -41.7950 O.2       3 UNK        -0.5279 
     29 N          22.7307  -26.3016  -41.3944 N.am      4 UNK        -0.4463 
     30 CA         23.4991  -26.1619  -40.1561 C.3       4 UNK         0.0283 
     31 CB         23.3108  -24.7429  -39.5983 C.3       4 UNK        -0.1875 
     32 C          24.9881  -26.4628  -40.3801 C.2       4 UNK         0.4949 
     33 O          25.5542  -26.0064  -41.3756 O.2       4 UNK        -0.5039 
     34 N          25.5753  -27.2587  -39.4765 N.am      5 UNK        -0.4663 
     35 CA         26.9448  -27.8026  -39.4806 C.3       5 UNK         0.0242 
     36 CB         28.0005  -26.6801  -39.4416 C.3       5 UNK        -0.1982 
     37 C          27.2416  -28.8029  -40.6168 C.2       5 UNK         0.5017 
     38 O          27.9370  -29.7893  -40.3735 O.2       5 UNK        -0.5012 
     39 N          26.7103  -28.5471  -41.8194 N.am      6 UNK        -0.4439 
     40 CA         26.8099  -29.3989  -43.0057 C.3       6 UNK         0.0297 
     41 CB         26.2394  -28.6506  -44.2217 C.3       6 UNK        -0.2006 
     42 C          26.1116  -30.7568  -42.8247 C.2       6 UNK         0.4892 
     43 O          26.6855  -31.7824  -43.1936 O.2       6 UNK        -0.5089 
     44 N          24.9030  -30.7346  -42.2495 N.am      7 UNK        -0.4243 
     45 CA         24.1161  -31.9238  -41.9158 C.3       7 UNK         0.0196 
     46 CB         23.0369  -32.1386  -42.9912 C.3       7 UNK        -0.2007 
     47 C          23.4743  -31.8319  -40.5226 C.2       7 UNK         0.5020 
     48 O          23.1589  -32.8761  -39.9525 O.2       7 UNK        -0.5147 
     49 N          23.2638  -30.6056  -40.0138 N.am      8 UNK        -0.4734 
     50 CA         22.4906  -30.2635  -38.8099 C.3       8 UNK         0.0238 
     51 CB         23.1510  -30.8242  -37.5324 C.3       8 UNK        -0.1912 
     52 C          21.0098  -30.6626  -38.9674 C.2       8 UNK         0.5038 
     53 O          20.4096  -31.2173  -38.0451 O.2       8 UNK        -0.5046 
     54 N          20.4754  -30.3969  -40.1645 N.am      9 UNK        -0.4200 
     55 CA         19.1624  -30.8299  -40.6399 C.3       9 UNK         0.0839 
     56 C          18.3618  -29.5853  -41.0894 C.2       9 UNK         0.5513 
     57 N          17.3959  -29.1450  -40.2955 N.am      9 UNK        -0.7519 
     58 O          18.6113  -29.0190  -42.1517 O.2       9 UNK        -0.4960 
     59 C59        19.3537  -31.8712  -41.7695 C.3       10 UNK        -0.0876 
     60 S60        17.8077  -32.6637  -42.3162 S.3       10 UNK        -0.2414 
     61 C61        18.3028  -33.2661  -43.9611 C.3       10 UNK         0.0169 
     62 H62        14.8786  -29.7725  -41.8310 H         1 UNK         0.0903 
     63 H63        14.1232  -30.4152  -43.2922 H         1 UNK         0.0903 
     64 H64        15.8777  -30.4742  -43.1008 H         1 UNK         0.0903 
     65 H65        16.7767  -29.0353  -44.5628 H         1 UNK         0.3096 
     66 H66        15.3987  -26.5882  -45.3885 H         1 UNK         0.1121 
     67 H67        18.1036  -27.7569  -46.2127 H         1 UNK         0.0849 
     68 H68        17.3873  -26.3537  -46.9135 H         1 UNK         0.0849 
     69 H69        15.3277  -30.0448  -46.4043 H         1 UNK         0.0865 
     70 H70        15.8352  -30.6120  -47.9680 H         1 UNK         0.0865 
     71 H71        16.3296  -31.9565  -45.2847 H         1 UNK         0.1346 
     72 H72        20.5919  -32.0486  -44.8471 H         1 UNK         0.1412 
     73 H73        18.8006  -29.3849  -47.6736 H         1 UNK         0.1426 
     74 H74        21.3153  -30.0263  -47.6989 H         1 UNK         0.0716 
     75 H75        22.0023  -30.6463  -46.2168 H         1 UNK         0.0716 
     76 H76        22.8312  -29.0267  -44.2906 H         1 UNK         0.0695 
     77 H77        21.1839  -29.3925  -43.8277 H         1 UNK         0.0695 
     78 H78        22.1821  -26.5061  -43.9955 H         1 UNK         0.0983 
     79 H79        19.7400  -27.7637  -42.9353 H         1 UNK         0.3095 
     80 H80        18.4820  -26.2930  -41.2393 H         1 UNK         0.0454 
     81 H81        18.0806  -23.6022  -42.6385 H         1 UNK         0.0851 
     82 H82        18.6042  -23.8793  -40.9903 H         1 UNK         0.0851 
     83 H83        16.9656  -24.2990  -41.4624 H         1 UNK         0.0851 
     84 H84        17.3951  -27.3831  -42.8311 H         1 UNK         0.2976 
     85 H85        22.2636  -25.4700  -41.7403 H         1 UNK         0.3116 
     86 H86        23.0941  -26.8737  -39.4346 H         1 UNK         0.0646 
     87 H87        22.2608  -24.5302  -39.3963 H         1 UNK         0.0847 
     88 H88        23.6795  -23.9854  -40.2914 H         1 UNK         0.0847 
     89 H89        23.8526  -24.6164  -38.6600 H         1 UNK         0.0847 
     90 H90        25.0042  -27.5822  -38.7075 H         1 UNK         0.3040 
     91 H91        27.0375  -28.3661  -38.5502 H         1 UNK         0.1015 
     92 H92        27.9999  -26.0831  -40.3539 H         1 UNK         0.0786 
     93 H93        29.0032  -27.0950  -39.3299 H         1 UNK         0.0786 
     94 H94        27.8332  -26.0075  -38.6003 H         1 UNK         0.0786 
     95 H95        26.1927  -27.6759  -41.9095 H         1 UNK         0.3172 
     96 H96        27.8692  -29.5906  -43.1890 H         1 UNK         0.0595 
     97 H97        25.1955  -28.3724  -44.0739 H         1 UNK         0.0839 
     98 H98        26.2896  -29.2676  -45.1200 H         1 UNK         0.0839 
     99 H99        26.8015  -27.7388  -44.4243 H         1 UNK         0.0839 
    100 H100       24.4873  -29.8348  -42.0308 H         1 UNK         0.2998 
    101 H101       24.7649  -32.8022  -41.8972 H         1 UNK         0.0822 
    102 H102       23.4804  -32.2653  -43.9789 H         1 UNK         0.0787 
    103 H103       22.4470  -33.0321  -42.7823 H         1 UNK         0.0787 
    104 H104       22.3492  -31.2955  -43.0378 H         1 UNK         0.0787 
    105 H105       23.4679  -29.8102  -40.6140 H         1 UNK         0.3055 
    106 H106       22.5003  -29.1757  -38.7318 H         1 UNK         0.1106 
    107 H107       23.1092  -31.9129  -37.4944 H         1 UNK         0.0828 
    108 H108       22.6475  -30.4519  -36.6394 H         1 UNK         0.0828 
    109 H109       24.1970  -30.5261  -37.4629 H         1 UNK         0.0828 
    110 H110       21.0357  -29.8936  -40.8372 H         1 UNK         0.2931 
    111 H111       18.6156  -31.3146  -39.8284 H         1 UNK         0.0412 
    112 H112       16.8639  -28.3313  -40.5542 H         1 UNK         0.3472 
    113 H113       17.1990  -29.6096  -39.4225 H         1 UNK         0.3472 
    114 H114       20.0226  -32.6644  -41.4310 H         1 UNK         0.0970 
    115 H115       19.8498  -31.4043  -42.6194 H         1 UNK         0.0970 
    116 H116       17.5514  -33.9739  -44.3140 H         1 UNK         0.0612 
    117 H117       19.2338  -33.8289  -43.8761 H         1 UNK         0.0612 
@<TRIPOS>BOND
     1    1    2 1    
     2    1   62 1    
     3    1   63 1    
     4    1   64 1    
     5    2    3 2    
     6    2    4 am   BACKBONE|DICT|INTERRES
     7    4    5 1    
     8    4   65 1    
     9    5    6 1    
    10    5   25 1    
    11    5   66 1    
    12    6    7 1    
    13    6   67 1    
    14    6   68 1    
    15    7    8 1    
    16    8    9 1    
    17    8   69 1    
    18    8   70 1    
    19    9   10 ar   
    20    9   14 ar   
    21   10   11 ar   
    22   10   71 1    
    23   11   12 ar   
    24   11   61 1    
    25   12   13 ar   
    26   12   72 1    
    27   13   14 ar   
    28   13   15 1    
    29   14   73 1    
    30   15   16 1    
    31   15   74 1    
    32   15   75 1    
    33   16   17 1    
    34   17   18 1    
    35   17   76 1    
    36   17   77 1    
    37   18   19 1    
    38   18   27 1    
    39   18   78 1    
    40   19   20 am   BACKBONE|DICT|INTERRES
    41   19   79 1    
    42   20   21 2    
    43   20   22 1    
    44   22   23 1    
    45   22   24 1    
    46   22   80 1    
    47   23   81 1    
    48   23   82 1    
    49   23   83 1    
    50   24   25 am   BACKBONE|DICT|INTERRES
    51   24   84 1    
    52   25   26 2    
    53   27   28 2    
    54   27   29 am   BACKBONE|DICT|INTERRES
    55   29   30 1    
    56   29   85 1    
    57   30   31 1    
    58   30   32 1    
    59   30   86 1    
    60   31   87 1    
    61   31   88 1    
    62   31   89 1    
    63   32   33 2    
    64   32   34 am   BACKBONE|DICT|INTERRES
    65   34   35 1    
    66   34   90 1    
    67   35   36 1    
    68   35   37 1    
    69   35   91 1    
    70   36   92 1    
    71   36   93 1    
    72   36   94 1    
    73   37   38 2    
    74   37   39 am   BACKBONE|DICT|INTERRES
    75   39   40 1    
    76   39   95 1    
    77   40   41 1    
    78   40   42 1    
    79   40   96 1    
    80   41   97 1    
    81   41   98 1    
    82   41   99 1    
    83   42   43 2    
    84   42   44 am   BACKBONE|DICT|INTERRES
    85   44   45 1    
    86   44  100 1    
    87   45   46 1    
    88   45   47 1    
    89   45  101 1    
    90   46  102 1    
    91   46  103 1    
    92   46  104 1    
    93   47   48 2    
    94   47   49 am   BACKBONE|DICT|INTERRES
    95   49   50 1    
    96   49  105 1    
    97   50   51 1    
    98   50   52 1    
    99   50  106 1    
   100   51  107 1    
   101   51  108 1    
   102   51  109 1    
   103   52   53 2    
   104   52   54 am   BACKBONE|DICT|INTERRES
   105   54   55 1    
   106   54  110 1    
   107   55   56 1    
   108   55   59 1    
   109   55  111 1    
   110   56   57 am   BACKBONE|DICT|INTERRES
   111   56   58 2    
   112   57  112 1    
   113   57  113 1    
   114   59   60 1    
   115   59  114 1    
   116   59  115 1    
   117   60   61 1    
   118   61  116 1    
   119   61  117 1    
@<TRIPOS>SUBSTRUCTURE
     1 UNK         1 GROUP             0       ****    0 ROOT    
