@<TRIPOS>MOLECULE
3R8
117   119    1
SMALL
USER_CHARGES


@<TRIPOS>ATOM
      1 CA         15.5301  -21.9052  -41.9142 C.3       0 UNK        -0.2013 
      2 C          16.4920  -22.5521  -42.8998 C.2       0 UNK         0.4866 
      3 O          17.4348  -21.9016  -43.3527 O.2       0 UNK        -0.5176 
      4 N          16.2549  -23.8234  -43.2436 N.am      1 UNK        -0.4884 
      5 CA         17.1135  -24.6319  -44.1142 C.3       1 UNK         0.0853 
      6 C6         16.3508  -25.8327  -44.7358 C.3       10 UNK        -0.0849 
      7 S7         15.3036  -26.8221  -43.5968 S.3       10 UNK        -0.2776 
      8 C8         16.4558  -27.9234  -42.6866 C.3       10 UNK         0.0316 
      9 C9         17.1224  -29.0587  -43.4696 C.ar      10 UNK        -0.0863 
     10 C10        17.8707  -30.0021  -42.7530 C.ar      10 UNK        -0.1009 
     11 C11        18.4978  -31.0683  -43.4051 C.ar      10 UNK        -0.0712 
     12 C12        18.4060  -31.1708  -44.7941 C.ar      10 UNK        -0.0894 
     13 C13        17.6866  -30.2260  -45.5274 C.ar      10 UNK        -0.0745 
     14 C14        17.0185  -29.1984  -44.8594 C.ar      10 UNK        -0.0972 
     15 C15        17.6367  -30.3018  -47.0445 C.3       10 UNK         0.0209 
     16 S16        18.7275  -29.0550  -47.8044 S.3       10 UNK        -0.2568 
     17 C17        20.3839  -29.6793  -47.3581 C.3       10 UNK        -0.0983 
     18 CA         21.3099  -28.5832  -46.7752 C.3       3 UNK         0.0876 
     19 N          20.7633  -27.9305  -45.5728 N.am      3 UNK        -0.4424 
     20 C          21.2655  -26.7994  -45.0541 C.2       2 UNK         0.4918 
     21 O          22.1957  -26.1725  -45.5635 O.2       2 UNK        -0.4875 
     22 CA         20.5891  -26.2507  -43.7920 C.3       2 UNK         0.0481 
     23 CB         21.5160  -25.2917  -43.0124 C.3       2 UNK        -0.1831 
     24 N          19.3558  -25.5887  -44.2069 N.am      2 UNK        -0.4498 
     25 C          18.4024  -25.0963  -43.4053 C.2       1 UNK         0.5027 
     26 O          18.4851  -25.0507  -42.1758 O.2       1 UNK        -0.4969 
     27 C          22.7265  -29.1551  -46.5449 C.2       3 UNK         0.5005 
     28 O          23.5168  -29.2081  -47.4891 O.2       3 UNK        -0.5279 
     29 N          23.0277  -29.5557  -45.3039 N.am      4 UNK        -0.4463 
     30 CA         24.3295  -30.0300  -44.8523 C.3       4 UNK         0.0283 
     31 CB         24.4848  -31.5266  -45.1800 C.3       4 UNK        -0.1875 
     32 C          24.4362  -29.7937  -43.3429 C.2       4 UNK         0.4949 
     33 O          23.4067  -29.6856  -42.6722 O.2       4 UNK        -0.5039 
     34 N          25.6814  -29.7356  -42.8473 N.am      5 UNK        -0.4663 
     35 CA         26.0966  -29.7810  -41.4352 C.3       5 UNK         0.0242 
     36 CB         26.0684  -31.2456  -40.9542 C.3       5 UNK        -0.1982 
     37 C          25.3276  -28.8398  -40.4836 C.2       5 UNK         0.5017 
     38 O          25.0152  -29.2290  -39.3580 O.2       5 UNK        -0.5012 
     39 N          25.0012  -27.6297  -40.9629 N.am      6 UNK        -0.4439 
     40 CA         24.2027  -26.6043  -40.2736 C.3       6 UNK         0.0297 
     41 CB         25.0025  -25.9926  -39.1032 C.3       6 UNK        -0.2006 
     42 C          22.8016  -27.0997  -39.8444 C.2       6 UNK         0.4892 
     43 O          22.3143  -26.7043  -38.7848 O.2       6 UNK        -0.5089 
     44 N          22.2010  -27.9685  -40.6739 N.am      7 UNK        -0.4243 
     45 CA         20.9162  -28.6618  -40.5068 C.3       7 UNK         0.0196 
     46 CB         19.7658  -27.6989  -40.1468 C.3       7 UNK        -0.2007 
     47 C          20.9678  -29.8679  -39.5531 C.2       7 UNK         0.5020 
     48 O          19.9571  -30.5586  -39.4224 O.2       7 UNK        -0.5147 
     49 N          22.1254  -30.1590  -38.9440 N.am      8 UNK        -0.4734 
     50 CA         22.3620  -31.3609  -38.1397 C.3       8 UNK         0.0238 
     51 CB         23.2789  -31.0056  -36.9541 C.3       8 UNK        -0.1912 
     52 C          22.9379  -32.4745  -39.0330 C.2       8 UNK         0.5038 
     53 O          24.0181  -32.9960  -38.7504 O.2       8 UNK        -0.5046 
     54 N          22.2181  -32.7735  -40.1227 N.am      9 UNK        -0.4200 
     55 CA         22.5849  -33.7117  -41.1928 C.3       9 UNK         0.0839 
     56 C          22.9172  -35.1405  -40.6815 C.2       9 UNK         0.5513 
     57 N          23.9410  -35.7762  -41.2347 N.am      9 UNK        -0.7519 
     58 O          22.2230  -35.6921  -39.8297 O.2       9 UNK        -0.4960 
     59 C59        21.4838  -33.7843  -42.2824 C.3       10 UNK        -0.0876 
     60 S60        21.0185  -32.1593  -42.9794 S.3       10 UNK        -0.2414 
     61 C61        19.2344  -32.1415  -42.6178 C.3       10 UNK         0.0169 
     62 H62        14.7413  -22.5907  -41.6047 H         1 UNK         0.0903 
     63 H63        16.0678  -21.5828  -41.0229 H         1 UNK         0.0903 
     64 H64        15.0618  -21.0307  -42.3653 H         1 UNK         0.0903 
     65 H65        15.4847  -24.3247  -42.8229 H         1 UNK         0.3096 
     66 H66        17.4356  -23.9893  -44.9376 H         1 UNK         0.1121 
     67 H67        15.6730  -25.4408  -45.4959 H         1 UNK         0.0849 
     68 H68        17.0323  -26.4750  -45.2914 H         1 UNK         0.0849 
     69 H69        15.8812  -28.3743  -41.8761 H         1 UNK         0.0865 
     70 H70        17.2251  -27.3298  -42.1970 H         1 UNK         0.0865 
     71 H71        17.9462  -29.9223  -41.6769 H         1 UNK         0.1346 
     72 H72        18.9013  -31.9875  -45.3017 H         1 UNK         0.1412 
     73 H73        16.4270  -28.5140  -45.4465 H         1 UNK         0.1426 
     74 H74        16.6138  -30.1332  -47.3844 H         1 UNK         0.0716 
     75 H75        17.9173  -31.2956  -47.3973 H         1 UNK         0.0716 
     76 H76        20.8213  -30.0975  -48.2669 H         1 UNK         0.0695 
     77 H77        20.2999  -30.5131  -46.6612 H         1 UNK         0.0695 
     78 H78        21.4140  -27.8087  -47.5389 H         1 UNK         0.0983 
     79 H79        19.9688  -28.3789  -45.1381 H         1 UNK         0.3095 
     80 H80        20.3371  -27.0981  -43.1521 H         1 UNK         0.0454 
     81 H81        21.6776  -24.3588  -43.5532 H         1 UNK         0.0851 
     82 H82        22.4932  -25.7458  -42.8490 H         1 UNK         0.0851 
     83 H83        21.1122  -25.0448  -42.0311 H         1 UNK         0.0851 
     84 H84        19.2057  -25.5723  -45.2072 H         1 UNK         0.2976 
     85 H85        22.3422  -29.4693  -44.5633 H         1 UNK         0.3116 
     86 H86        25.1150  -29.4578  -45.3505 H         1 UNK         0.0646 
     87 H87        23.7109  -32.1245  -44.6967 H         1 UNK         0.0847 
     88 H88        25.4494  -31.9066  -44.8414 H         1 UNK         0.0847 
     89 H89        24.4256  -31.7080  -46.2531 H         1 UNK         0.0847 
     90 H90        26.4433  -29.7807  -43.5109 H         1 UNK         0.3040 
     91 H91        27.1343  -29.4448  -41.4035 H         1 UNK         0.1015 
     92 H92        25.0547  -31.6434  -40.9678 H         1 UNK         0.0786 
     93 H93        26.4434  -31.3411  -39.9341 H         1 UNK         0.0786 
     94 H94        26.6865  -31.8846  -41.5846 H         1 UNK         0.0786 
     95 H95        25.2848  -27.4121  -41.9085 H         1 UNK         0.3172 
     96 H96        24.0330  -25.8093  -41.0003 H         1 UNK         0.0595 
     97 H97        24.4754  -25.1411  -38.6709 H         1 UNK         0.0839 
     98 H98        25.9775  -25.6336  -39.4322 H         1 UNK         0.0839 
     99 H99        25.1635  -26.7147  -38.3019 H         1 UNK         0.0839 
    100 H100       22.7430  -28.3071  -41.4653 H         1 UNK         0.2998 
    101 H101       20.6929  -29.0794  -41.4901 H         1 UNK         0.0822 
    102 H102       18.7976  -28.1864  -40.2592 H         1 UNK         0.0787 
    103 H103       19.8292  -27.3562  -39.1141 H         1 UNK         0.0787 
    104 H104       19.7650  -26.8212  -40.7894 H         1 UNK         0.0787 
    105 H105       22.9421  -29.5883  -39.1374 H         1 UNK         0.3055 
    106 H106       21.4205  -31.7310  -37.7272 H         1 UNK         0.1106 
    107 H107       23.4271  -31.8691  -36.3045 H         1 UNK         0.0828 
    108 H108       24.2639  -30.6764  -37.2858 H         1 UNK         0.0828 
    109 H109       22.8485  -30.2113  -36.3442 H         1 UNK         0.0828 
    110 H110       21.3502  -32.2753  -40.2619 H         1 UNK         0.2931 
    111 H111       23.4833  -33.3030  -41.6588 H         1 UNK         0.0412 
    112 H112       24.5081  -35.3362  -41.9427 H         1 UNK         0.3472 
    113 H113       24.1605  -36.7115  -40.9283 H         1 UNK         0.3472 
    114 H114       21.8205  -34.4082  -43.1126 H         1 UNK         0.0970 
    115 H115       20.5965  -34.2789  -41.8821 H         1 UNK         0.0970 
    116 H116       19.0867  -32.0120  -41.5451 H         1 UNK         0.0612 
    117 H117       18.8022  -33.1094  -42.8756 H         1 UNK         0.0612 
@<TRIPOS>BOND
     1    1    2 1    
     2    1   62 1    
     3    1   63 1    
     4    1   64 1    
     5    2    3 2    
     6    2    4 am   BACKBONE|DICT|INTERRES
     7    4    5 1    
     8    4   65 1    
     9    5    6 1    
    10    5   25 1    
    11    5   66 1    
    12    6    7 1    
    13    6   67 1    
    14    6   68 1    
    15    7    8 1    
    16    8    9 1    
    17    8   69 1    
    18    8   70 1    
    19    9   10 ar   
    20    9   14 ar   
    21   10   11 ar   
    22   10   71 1    
    23   11   12 ar   
    24   11   61 1    
    25   12   13 ar   
    26   12   72 1    
    27   13   14 ar   
    28   13   15 1    
    29   14   73 1    
    30   15   16 1    
    31   15   74 1    
    32   15   75 1    
    33   16   17 1    
    34   17   18 1    
    35   17   76 1    
    36   17   77 1    
    37   18   19 1    
    38   18   27 1    
    39   18   78 1    
    40   19   20 am   BACKBONE|DICT|INTERRES
    41   19   79 1    
    42   20   21 2    
    43   20   22 1    
    44   22   23 1    
    45   22   24 1    
    46   22   80 1    
    47   23   81 1    
    48   23   82 1    
    49   23   83 1    
    50   24   25 am   BACKBONE|DICT|INTERRES
    51   24   84 1    
    52   25   26 2    
    53   27   28 2    
    54   27   29 am   BACKBONE|DICT|INTERRES
    55   29   30 1    
    56   29   85 1    
    57   30   31 1    
    58   30   32 1    
    59   30   86 1    
    60   31   87 1    
    61   31   88 1    
    62   31   89 1    
    63   32   33 2    
    64   32   34 am   BACKBONE|DICT|INTERRES
    65   34   35 1    
    66   34   90 1    
    67   35   36 1    
    68   35   37 1    
    69   35   91 1    
    70   36   92 1    
    71   36   93 1    
    72   36   94 1    
    73   37   38 2    
    74   37   39 am   BACKBONE|DICT|INTERRES
    75   39   40 1    
    76   39   95 1    
    77   40   41 1    
    78   40   42 1    
    79   40   96 1    
    80   41   97 1    
    81   41   98 1    
    82   41   99 1    
    83   42   43 2    
    84   42   44 am   BACKBONE|DICT|INTERRES
    85   44   45 1    
    86   44  100 1    
    87   45   46 1    
    88   45   47 1    
    89   45  101 1    
    90   46  102 1    
    91   46  103 1    
    92   46  104 1    
    93   47   48 2    
    94   47   49 am   BACKBONE|DICT|INTERRES
    95   49   50 1    
    96   49  105 1    
    97   50   51 1    
    98   50   52 1    
    99   50  106 1    
   100   51  107 1    
   101   51  108 1    
   102   51  109 1    
   103   52   53 2    
   104   52   54 am   BACKBONE|DICT|INTERRES
   105   54   55 1    
   106   54  110 1    
   107   55   56 1    
   108   55   59 1    
   109   55  111 1    
   110   56   57 am   BACKBONE|DICT|INTERRES
   111   56   58 2    
   112   57  112 1    
   113   57  113 1    
   114   59   60 1    
   115   59  114 1    
   116   59  115 1    
   117   60   61 1    
   118   61  116 1    
   119   61  117 1    
@<TRIPOS>SUBSTRUCTURE
     1 UNK         1 GROUP             0       ****    0 ROOT    
