@<TRIPOS>MOLECULE
3R8
117   119    1
SMALL
USER_CHARGES


@<TRIPOS>ATOM
      1 CA         20.8156  -29.7756  -48.2904 C.3       0 UNK        -0.2013 
      2 C          20.2984  -29.2834  -46.9482 C.2       0 UNK         0.4866 
      3 O          20.8836  -29.5995  -45.9123 O.2       0 UNK        -0.5176 
      4 N          19.2184  -28.4927  -46.9556 N.am      1 UNK        -0.4884 
      5 CA         18.5160  -27.9574  -45.7782 C.3       1 UNK         0.0853 
      6 C6         17.0398  -27.6080  -46.1173 C.3       10 UNK        -0.0849 
      7 S7         16.1012  -29.0413  -46.7578 S.3       10 UNK        -0.2776 
      8 C8         15.0813  -29.5145  -45.3219 C.3       10 UNK         0.0316 
      9 C9         15.9393  -29.9099  -44.1296 C.ar      10 UNK        -0.0863 
     10 C10        16.5799  -31.1503  -44.1010 C.ar      10 UNK        -0.1009 
     11 C11        17.4063  -31.5077  -43.0314 C.ar      10 UNK        -0.0712 
     12 C12        17.5843  -30.5953  -41.9803 C.ar      10 UNK        -0.0894 
     13 C13        16.9694  -29.3387  -42.0058 C.ar      10 UNK        -0.0745 
     14 C14        16.1201  -29.0198  -43.0701 C.ar      10 UNK        -0.0972 
     15 C15        17.2493  -28.3277  -40.8947 C.3       10 UNK         0.0209 
     16 S16        17.5116  -26.6431  -41.5480 S.3       10 UNK        -0.2568 
     17 C17        18.7057  -25.9229  -40.3739 C.3       10 UNK        -0.0983 
     18 CA         20.1796  -26.1363  -40.8044 C.3       3 UNK         0.0876 
     19 N          20.4073  -25.8329  -42.2272 N.am      3 UNK        -0.4424 
     20 C          21.5519  -26.0151  -42.8983 C.2       2 UNK         0.4918 
     21 O          22.6139  -26.3288  -42.3589 O.2       2 UNK        -0.4875 
     22 CA         21.4847  -25.8625  -44.4270 C.3       2 UNK         0.0481 
     23 CB         22.8693  -25.9882  -45.0894 C.3       2 UNK        -0.1831 
     24 N          20.5928  -26.8688  -45.0058 N.am      2 UNK        -0.4498 
     25 C          19.2643  -26.7629  -45.1329 C.2       1 UNK         0.5027 
     26 O          18.6425  -25.7632  -44.7680 O.2       1 UNK        -0.4969 
     27 C          21.1367  -25.4016  -39.8424 C.2       3 UNK         0.5005 
     28 O          21.4904  -25.9582  -38.8025 O.2       3 UNK        -0.5279 
     29 N          21.5919  -24.1996  -40.2276 N.am      4 UNK        -0.4463 
     30 CA         22.6114  -23.4154  -39.5193 C.3       4 UNK         0.0283 
     31 CB         22.7222  -22.0272  -40.1698 C.3       4 UNK        -0.1875 
     32 C          23.9962  -24.0933  -39.4654 C.2       4 UNK         0.4949 
     33 O          24.7700  -23.8063  -38.5525 O.2       4 UNK        -0.5039 
     34 N          24.2721  -24.9898  -40.4215 N.am      5 UNK        -0.4663 
     35 CA         25.4652  -25.8358  -40.4900 C.3       5 UNK         0.0242 
     36 CB         26.0710  -25.7091  -41.9005 C.3       5 UNK        -0.1982 
     37 C          25.1310  -27.3022  -40.1458 C.2       5 UNK         0.5017 
     38 O          25.8977  -28.1937  -40.5098 O.2       5 UNK        -0.5012 
     39 N          23.9890  -27.5282  -39.4751 N.am      6 UNK        -0.4439 
     40 CA         23.4025  -28.8136  -39.0685 C.3       6 UNK         0.0297 
     41 CB         24.3713  -29.6325  -38.1886 C.3       6 UNK        -0.2006 
     42 C          22.8081  -29.6518  -40.2198 C.2       6 UNK         0.4892 
     43 O          22.3395  -30.7588  -39.9525 O.2       6 UNK        -0.5089 
     44 N          22.7837  -29.0990  -41.4439 N.am      7 UNK        -0.4243 
     45 CA         22.2368  -29.6511  -42.6910 C.3       7 UNK         0.0196 
     46 CB         20.7150  -29.8589  -42.5579 C.3       7 UNK        -0.2007 
     47 C          22.9428  -30.9228  -43.1978 C.2       7 UNK         0.5020 
     48 O          23.8145  -31.4837  -42.5312 O.2       7 UNK        -0.5147 
     49 N          22.5443  -31.3653  -44.3980 N.am      8 UNK        -0.4734 
     50 CA         23.0432  -32.5789  -45.0572 C.3       8 UNK         0.0238 
     51 CB         22.4811  -32.6433  -46.4857 C.3       8 UNK        -0.1912 
     52 C          22.7306  -33.8806  -44.2948 C.2       8 UNK         0.5038 
     53 O          23.4575  -34.8615  -44.4577 O.2       8 UNK        -0.5046 
     54 N          21.6736  -33.8597  -43.4738 N.am      9 UNK        -0.4200 
     55 CA         21.3163  -34.9219  -42.5238 C.3       9 UNK         0.0839 
     56 C          22.1822  -34.9533  -41.2287 C.2       9 UNK         0.5513 
     57 N          23.0714  -33.9978  -40.9843 N.am      9 UNK        -0.7519 
     58 O          22.0579  -35.8834  -40.4358 O.2       9 UNK        -0.4960 
     59 C59        19.7930  -34.9360  -42.2223 C.3       10 UNK        -0.0876 
     60 S60        19.1254  -33.3304  -41.6563 S.3       10 UNK        -0.2414 
     61 C61        18.0969  -32.8725  -43.0947 C.3       10 UNK         0.0169 
     62 H62        21.8801  -29.5625  -48.3832 H         1 UNK         0.0903 
     63 H63        20.6738  -30.8525  -48.3733 H         1 UNK         0.0903 
     64 H64        20.3010  -29.2995  -49.1247 H         1 UNK         0.0903 
     65 H65        18.7931  -28.2598  -47.8418 H         1 UNK         0.3096 
     66 H66        18.4995  -28.7398  -45.0152 H         1 UNK         0.1121 
     67 H67        16.5223  -27.2080  -45.2439 H         1 UNK         0.0849 
     68 H68        17.0027  -26.8170  -46.8688 H         1 UNK         0.0849 
     69 H69        14.4395  -30.3511  -45.6019 H         1 UNK         0.0865 
     70 H70        14.4124  -28.6916  -45.0649 H         1 UNK         0.0865 
     71 H71        16.4474  -31.8344  -44.9286 H         1 UNK         0.1346 
     72 H72        18.2249  -30.8411  -41.1464 H         1 UNK         0.1412 
     73 H73        15.6287  -28.0569  -43.0940 H         1 UNK         0.1426 
     74 H74        18.1330  -28.6299  -40.3307 H         1 UNK         0.0716 
     75 H75        16.4149  -28.3175  -40.1929 H         1 UNK         0.0716 
     76 H76        18.5278  -26.3380  -39.3799 H         1 UNK         0.0695 
     77 H77        18.4822  -24.8566  -40.3022 H         1 UNK         0.0695 
     78 H78        20.4004  -27.1988  -40.6861 H         1 UNK         0.0983 
     79 H79        19.5770  -25.6105  -42.7648 H         1 UNK         0.3095 
     80 H80        21.1005  -24.8638  -44.6437 H         1 UNK         0.0454 
     81 H81        22.8085  -25.8308  -46.1662 H         1 UNK         0.0851 
     82 H82        23.3146  -26.9693  -44.9196 H         1 UNK         0.0851 
     83 H83        23.5612  -25.2437  -44.6931 H         1 UNK         0.0851 
     84 H84        21.0100  -27.7475  -45.2978 H         1 UNK         0.2976 
     85 H85        21.2502  -23.8219  -41.1000 H         1 UNK         0.3116 
     86 H86        22.2729  -23.2850  -38.4893 H         1 UNK         0.0646 
     87 H87        23.4529  -21.4087  -39.6464 H         1 UNK         0.0847 
     88 H88        21.7712  -21.4955  -40.1386 H         1 UNK         0.0847 
     89 H89        23.0390  -22.0925  -41.2114 H         1 UNK         0.0847 
     90 H90        23.5639  -25.1936  -41.1215 H         1 UNK         0.3040 
     91 H91        26.2113  -25.5021  -39.7655 H         1 UNK         0.1015 
     92 H92        26.2972  -24.6704  -42.1421 H         1 UNK         0.0786 
     93 H93        25.3934  -26.0910  -42.6653 H         1 UNK         0.0786 
     94 H94        27.0043  -26.2680  -41.9811 H         1 UNK         0.0786 
     95 H95        23.4192  -26.7217  -39.2416 H         1 UNK         0.3172 
     96 H96        22.5516  -28.5475  -38.4397 H         1 UNK         0.0595 
     97 H97        25.2102  -30.0253  -38.7634 H         1 UNK         0.0839 
     98 H98        23.8625  -30.4877  -37.7422 H         1 UNK         0.0839 
     99 H99        24.7720  -29.0333  -37.3712 H         1 UNK         0.0839 
    100 H100       23.1801  -28.1717  -41.5391 H         1 UNK         0.2998 
    101 H101       22.4066  -28.8918  -43.4547 H         1 UNK         0.0822 
    102 H102       20.4814  -30.5923  -41.7876 H         1 UNK         0.0787 
    103 H103       20.2066  -28.9303  -42.3033 H         1 UNK         0.0787 
    104 H104       20.2638  -30.2181  -43.4820 H         1 UNK         0.0787 
    105 H105       21.8606  -30.8133  -44.9154 H         1 UNK         0.3055 
    106 H106       24.1307  -32.4994  -45.1181 H         1 UNK         0.1106 
    107 H107       22.8340  -33.5340  -47.0068 H         1 UNK         0.0828 
    108 H108       21.3911  -32.6718  -46.4891 H         1 UNK         0.0828 
    109 H109       22.7971  -31.7809  -47.0724 H         1 UNK         0.0828 
    110 H110       21.1537  -32.9996  -43.3847 H         1 UNK         0.2931 
    111 H111       21.5310  -35.8712  -43.0184 H         1 UNK         0.0412 
    112 H112       23.1842  -33.2042  -41.6052 H         1 UNK         0.3472 
    113 H113       23.6154  -34.0426  -40.1379 H         1 UNK         0.3472 
    114 H114       19.2574  -35.2511  -43.1187 H         1 UNK         0.0970 
    115 H115       19.5535  -35.6925  -41.4728 H         1 UNK         0.0970 
    116 H116       18.7249  -32.8965  -43.9874 H         1 UNK         0.0612 
    117 H117       17.3341  -33.6421  -43.2267 H         1 UNK         0.0612 
@<TRIPOS>BOND
     1    1    2 1    
     2    1   62 1    
     3    1   63 1    
     4    1   64 1    
     5    2    3 2    
     6    2    4 am   BACKBONE|DICT|INTERRES
     7    4    5 1    
     8    4   65 1    
     9    5    6 1    
    10    5   25 1    
    11    5   66 1    
    12    6    7 1    
    13    6   67 1    
    14    6   68 1    
    15    7    8 1    
    16    8    9 1    
    17    8   69 1    
    18    8   70 1    
    19    9   10 ar   
    20    9   14 ar   
    21   10   11 ar   
    22   10   71 1    
    23   11   12 ar   
    24   11   61 1    
    25   12   13 ar   
    26   12   72 1    
    27   13   14 ar   
    28   13   15 1    
    29   14   73 1    
    30   15   16 1    
    31   15   74 1    
    32   15   75 1    
    33   16   17 1    
    34   17   18 1    
    35   17   76 1    
    36   17   77 1    
    37   18   19 1    
    38   18   27 1    
    39   18   78 1    
    40   19   20 am   BACKBONE|DICT|INTERRES
    41   19   79 1    
    42   20   21 2    
    43   20   22 1    
    44   22   23 1    
    45   22   24 1    
    46   22   80 1    
    47   23   81 1    
    48   23   82 1    
    49   23   83 1    
    50   24   25 am   BACKBONE|DICT|INTERRES
    51   24   84 1    
    52   25   26 2    
    53   27   28 2    
    54   27   29 am   BACKBONE|DICT|INTERRES
    55   29   30 1    
    56   29   85 1    
    57   30   31 1    
    58   30   32 1    
    59   30   86 1    
    60   31   87 1    
    61   31   88 1    
    62   31   89 1    
    63   32   33 2    
    64   32   34 am   BACKBONE|DICT|INTERRES
    65   34   35 1    
    66   34   90 1    
    67   35   36 1    
    68   35   37 1    
    69   35   91 1    
    70   36   92 1    
    71   36   93 1    
    72   36   94 1    
    73   37   38 2    
    74   37   39 am   BACKBONE|DICT|INTERRES
    75   39   40 1    
    76   39   95 1    
    77   40   41 1    
    78   40   42 1    
    79   40   96 1    
    80   41   97 1    
    81   41   98 1    
    82   41   99 1    
    83   42   43 2    
    84   42   44 am   BACKBONE|DICT|INTERRES
    85   44   45 1    
    86   44  100 1    
    87   45   46 1    
    88   45   47 1    
    89   45  101 1    
    90   46  102 1    
    91   46  103 1    
    92   46  104 1    
    93   47   48 2    
    94   47   49 am   BACKBONE|DICT|INTERRES
    95   49   50 1    
    96   49  105 1    
    97   50   51 1    
    98   50   52 1    
    99   50  106 1    
   100   51  107 1    
   101   51  108 1    
   102   51  109 1    
   103   52   53 2    
   104   52   54 am   BACKBONE|DICT|INTERRES
   105   54   55 1    
   106   54  110 1    
   107   55   56 1    
   108   55   59 1    
   109   55  111 1    
   110   56   57 am   BACKBONE|DICT|INTERRES
   111   56   58 2    
   112   57  112 1    
   113   57  113 1    
   114   59   60 1    
   115   59  114 1    
   116   59  115 1    
   117   60   61 1    
   118   61  116 1    
   119   61  117 1    
@<TRIPOS>SUBSTRUCTURE
     1 UNK         1 GROUP             0       ****    0 ROOT    
