@<TRIPOS>MOLECULE
3R8
117   119    1
SMALL
USER_CHARGES


@<TRIPOS>ATOM
      1 CA         16.4352  -25.1096  -49.1347 C.3       0 UNK        -0.2013 
      2 C          17.6915  -24.8508  -48.3164 C.2       0 UNK         0.4866 
      3 O          18.0536  -23.6939  -48.0983 O.2       0 UNK        -0.5176 
      4 N          18.3642  -25.9182  -47.8702 N.am      1 UNK        -0.4884 
      5 CA         19.5434  -25.8644  -47.0006 C.3       1 UNK         0.0853 
      6 C6         20.3622  -27.1811  -47.0763 C.3       10 UNK        -0.0849 
      7 S7         19.4106  -28.6856  -46.6545 S.3       10 UNK        -0.2776 
      8 C8         20.0821  -29.0534  -45.0054 C.3       10 UNK         0.0316 
      9 C9         19.0903  -29.8308  -44.1572 C.ar      10 UNK        -0.0863 
     10 C10        19.2899  -31.1872  -43.8914 C.ar      10 UNK        -0.1009 
     11 C11        18.4301  -31.8718  -43.0281 C.ar      10 UNK        -0.0712 
     12 C12        17.3499  -31.1968  -42.4512 C.ar      10 UNK        -0.0894 
     13 C13        17.1242  -29.8436  -42.7252 C.ar      10 UNK        -0.0745 
     14 C14        17.9954  -29.1724  -43.5922 C.ar      10 UNK        -0.0972 
     15 C15        15.9215  -29.1453  -42.0909 C.3       10 UNK         0.0209 
     16 S16        16.1541  -27.3638  -41.7612 S.3       10 UNK        -0.2568 
     17 C17        17.3612  -27.3656  -40.3899 C.3       10 UNK        -0.0983 
     18 CA         18.8271  -27.1043  -40.8307 C.3       3 UNK         0.0876 
     19 N          18.9387  -25.9733  -41.7627 N.am      3 UNK        -0.4424 
     20 C          20.0240  -25.6781  -42.4875 C.2       2 UNK         0.4918 
     21 O          21.0864  -26.2982  -42.4222 O.2       2 UNK        -0.4875 
     22 CA         19.9117  -24.4667  -43.4256 C.3       2 UNK         0.0481 
     23 CB         20.9515  -23.3935  -43.0650 C.3       2 UNK        -0.1831 
     24 N          20.0893  -24.8671  -44.8216 N.am      2 UNK        -0.4498 
     25 C          19.1540  -25.4897  -45.5517 C.2       1 UNK         0.5027 
     26 O          18.0326  -25.7712  -45.1197 O.2       1 UNK        -0.4969 
     27 C          19.7296  -26.9423  -39.5872 C.2       3 UNK         0.5005 
     28 O          20.1458  -27.9426  -39.0030 O.2       3 UNK        -0.5279 
     29 N          20.0043  -25.6875  -39.2009 N.am      4 UNK        -0.4463 
     30 CA         20.8376  -25.3192  -38.0528 C.3       4 UNK         0.0283 
     31 CB         20.3728  -23.9495  -37.5285 C.3       4 UNK        -0.1875 
     32 C          22.3460  -25.2885  -38.3669 C.2       4 UNK         0.4949 
     33 O          23.1411  -25.1462  -37.4368 O.2       4 UNK        -0.5039 
     34 N          22.7193  -25.3899  -39.6500 N.am      5 UNK        -0.4663 
     35 CA         24.1065  -25.4023  -40.1201 C.3       5 UNK         0.0242 
     36 CB         24.1706  -24.6640  -41.4722 C.3       5 UNK        -0.1982 
     37 C          24.6418  -26.8457  -40.1987 C.2       5 UNK         0.5017 
     38 O          24.1485  -27.7306  -39.4940 O.2       5 UNK        -0.5012 
     39 N          25.6356  -27.0767  -41.0684 N.am      6 UNK        -0.4439 
     40 CA         26.1863  -28.3941  -41.4025 C.3       6 UNK         0.0297 
     41 CB         27.5688  -28.2104  -42.0558 C.3       6 UNK        -0.2006 
     42 C          25.2096  -29.1864  -42.2949 C.2       6 UNK         0.4892 
     43 O          25.4787  -29.3978  -43.4784 O.2       6 UNK        -0.5089 
     44 N          24.0667  -29.5582  -41.7061 N.am      7 UNK        -0.4243 
     45 CA         22.9286  -30.2078  -42.3550 C.3       7 UNK         0.0196 
     46 CB         21.7635  -30.2514  -41.3557 C.3       7 UNK        -0.2007 
     47 C          23.2458  -31.6078  -42.9072 C.2       7 UNK         0.5020 
     48 O          22.7691  -31.9445  -43.9907 O.2       7 UNK        -0.5147 
     49 N          24.0660  -32.3719  -42.1660 N.am      8 UNK        -0.4734 
     50 CA         24.6061  -33.6960  -42.5131 C.3       8 UNK         0.0238 
     51 CB         25.6564  -33.5597  -43.6365 C.3       8 UNK        -0.1912 
     52 C          23.5161  -34.7392  -42.8376 C.2       8 UNK         0.5038 
     53 O          23.6050  -35.4327  -43.8532 O.2       8 UNK        -0.5046 
     54 N          22.4970  -34.8129  -41.9716 N.am      9 UNK        -0.4200 
     55 CA         21.3089  -35.6694  -42.1371 C.3       9 UNK         0.0839 
     56 C          21.5664  -37.1997  -42.0118 C.2       9 UNK         0.5513 
     57 N          22.7059  -37.6445  -41.4956 N.am      9 UNK        -0.7519 
     58 O          20.7127  -37.9971  -42.3912 O.2       9 UNK        -0.4960 
     59 C59        20.1401  -35.2405  -41.2081 C.3       10 UNK        -0.0876 
     60 S60        19.7929  -33.4509  -41.2474 S.3       10 UNK        -0.2414 
     61 C61        18.6949  -33.3295  -42.6900 C.3       10 UNK         0.0169 
     62 H62        15.5700  -24.6649  -48.6436 H         1 UNK         0.0903 
     63 H63        16.5327  -24.6634  -50.1240 H         1 UNK         0.0903 
     64 H64        16.2429  -26.1750  -49.2606 H         1 UNK         0.0903 
     65 H65        18.0043  -26.8471  -48.0403 H         1 UNK         0.3096 
     66 H66        20.1839  -25.0620  -47.3750 H         1 UNK         0.1121 
     67 H67        20.7346  -27.3089  -48.0940 H         1 UNK         0.0849 
     68 H68        21.2574  -27.1159  -46.4549 H         1 UNK         0.0849 
     69 H69        21.0171  -29.6051  -45.1158 H         1 UNK         0.0865 
     70 H70        20.3323  -28.1286  -44.4838 H         1 UNK         0.0865 
     71 H71        20.1388  -31.7021  -44.3205 H         1 UNK         0.1346 
     72 H72        16.6886  -31.7277  -41.7799 H         1 UNK         0.1412 
     73 H73        17.8388  -28.1267  -43.8192 H         1 UNK         0.1426 
     74 H74        15.6435  -29.6373  -41.1575 H         1 UNK         0.0716 
     75 H75        15.0707  -29.2596  -42.7634 H         1 UNK         0.0716 
     76 H76        17.0351  -26.5989  -39.6841 H         1 UNK         0.0695 
     77 H77        17.2919  -28.3143  -39.8540 H         1 UNK         0.0695 
     78 H78        19.1838  -27.9920  -41.3569 H         1 UNK         0.0983 
     79 H79        18.0919  -25.4422  -41.9100 H         1 UNK         0.3095 
     80 H80        18.9216  -24.0192  -43.3124 H         1 UNK         0.0454 
     81 H81        20.8812  -23.1133  -42.0131 H         1 UNK         0.0851 
     82 H82        21.9691  -23.7401  -43.2442 H         1 UNK         0.0851 
     83 H83        20.8018  -22.4866  -43.6509 H         1 UNK         0.0851 
     84 H84        20.9996  -24.6969  -45.2248 H         1 UNK         0.2976 
     85 H85        19.6084  -24.9284  -39.7365 H         1 UNK         0.3116 
     86 H86        20.6883  -26.0531  -37.2579 H         1 UNK         0.0646 
     87 H87        20.9378  -23.6575  -36.6420 H         1 UNK         0.0847 
     88 H88        19.3204  -23.9680  -37.2450 H         1 UNK         0.0847 
     89 H89        20.5082  -23.1636  -38.2726 H         1 UNK         0.0847 
     90 H90        22.0112  -25.5877  -40.3441 H         1 UNK         0.3040 
     91 H91        24.7384  -24.8637  -39.4103 H         1 UNK         0.1015 
     92 H92        23.6961  -23.6846  -41.4069 H         1 UNK         0.0786 
     93 H93        23.6704  -25.2257  -42.2626 H         1 UNK         0.0786 
     94 H94        25.1997  -24.4892  -41.7877 H         1 UNK         0.0786 
     95 H95        25.9657  -26.3023  -41.6261 H         1 UNK         0.3172 
     96 H96        26.3278  -28.9621  -40.4803 H         1 UNK         0.0595 
     97 H97        28.2614  -27.7031  -41.3840 H         1 UNK         0.0839 
     98 H98        27.5096  -27.6306  -42.9779 H         1 UNK         0.0839 
     99 H99        28.0119  -29.1753  -42.3064 H         1 UNK         0.0839 
    100 H100       23.9296  -29.2532  -40.7470 H         1 UNK         0.2998 
    101 H101       22.6319  -29.5806  -43.1978 H         1 UNK         0.0822 
    102 H102       21.4778  -29.2471  -41.0433 H         1 UNK         0.0787 
    103 H103       20.8815  -30.7114  -41.7951 H         1 UNK         0.0787 
    104 H104       22.0143  -30.8230  -40.4615 H         1 UNK         0.0787 
    105 H105       24.3836  -31.9859  -41.2874 H         1 UNK         0.3055 
    106 H106       25.1225  -34.0667  -41.6261 H         1 UNK         0.1106 
    107 H107       26.4357  -32.8468  -43.3669 H         1 UNK         0.0828 
    108 H108       25.2061  -33.2238  -44.5713 H         1 UNK         0.0828 
    109 H109       26.1457  -34.5142  -43.8348 H         1 UNK         0.0828 
    110 H110       22.4882  -34.1927  -41.1757 H         1 UNK         0.2931 
    111 H111       20.9681  -35.5157  -43.1629 H         1 UNK         0.0412 
    112 H112       22.8614  -38.6380  -41.4222 H         1 UNK         0.3472 
    113 H113       23.4122  -36.9982  -41.1823 H         1 UNK         0.3472 
    114 H114       20.3661  -35.5068  -40.1738 H         1 UNK         0.0970 
    115 H115       19.2268  -35.7818  -41.4634 H         1 UNK         0.0970 
    116 H116       17.7589  -33.8506  -42.4831 H         1 UNK         0.0612 
    117 H117       19.1533  -33.8323  -43.5428 H         1 UNK         0.0612 
@<TRIPOS>BOND
     1    1    2 1    
     2    1   62 1    
     3    1   63 1    
     4    1   64 1    
     5    2    3 2    
     6    2    4 am   BACKBONE|DICT|INTERRES
     7    4    5 1    
     8    4   65 1    
     9    5    6 1    
    10    5   25 1    
    11    5   66 1    
    12    6    7 1    
    13    6   67 1    
    14    6   68 1    
    15    7    8 1    
    16    8    9 1    
    17    8   69 1    
    18    8   70 1    
    19    9   10 ar   
    20    9   14 ar   
    21   10   11 ar   
    22   10   71 1    
    23   11   12 ar   
    24   11   61 1    
    25   12   13 ar   
    26   12   72 1    
    27   13   14 ar   
    28   13   15 1    
    29   14   73 1    
    30   15   16 1    
    31   15   74 1    
    32   15   75 1    
    33   16   17 1    
    34   17   18 1    
    35   17   76 1    
    36   17   77 1    
    37   18   19 1    
    38   18   27 1    
    39   18   78 1    
    40   19   20 am   BACKBONE|DICT|INTERRES
    41   19   79 1    
    42   20   21 2    
    43   20   22 1    
    44   22   23 1    
    45   22   24 1    
    46   22   80 1    
    47   23   81 1    
    48   23   82 1    
    49   23   83 1    
    50   24   25 am   BACKBONE|DICT|INTERRES
    51   24   84 1    
    52   25   26 2    
    53   27   28 2    
    54   27   29 am   BACKBONE|DICT|INTERRES
    55   29   30 1    
    56   29   85 1    
    57   30   31 1    
    58   30   32 1    
    59   30   86 1    
    60   31   87 1    
    61   31   88 1    
    62   31   89 1    
    63   32   33 2    
    64   32   34 am   BACKBONE|DICT|INTERRES
    65   34   35 1    
    66   34   90 1    
    67   35   36 1    
    68   35   37 1    
    69   35   91 1    
    70   36   92 1    
    71   36   93 1    
    72   36   94 1    
    73   37   38 2    
    74   37   39 am   BACKBONE|DICT|INTERRES
    75   39   40 1    
    76   39   95 1    
    77   40   41 1    
    78   40   42 1    
    79   40   96 1    
    80   41   97 1    
    81   41   98 1    
    82   41   99 1    
    83   42   43 2    
    84   42   44 am   BACKBONE|DICT|INTERRES
    85   44   45 1    
    86   44  100 1    
    87   45   46 1    
    88   45   47 1    
    89   45  101 1    
    90   46  102 1    
    91   46  103 1    
    92   46  104 1    
    93   47   48 2    
    94   47   49 am   BACKBONE|DICT|INTERRES
    95   49   50 1    
    96   49  105 1    
    97   50   51 1    
    98   50   52 1    
    99   50  106 1    
   100   51  107 1    
   101   51  108 1    
   102   51  109 1    
   103   52   53 2    
   104   52   54 am   BACKBONE|DICT|INTERRES
   105   54   55 1    
   106   54  110 1    
   107   55   56 1    
   108   55   59 1    
   109   55  111 1    
   110   56   57 am   BACKBONE|DICT|INTERRES
   111   56   58 2    
   112   57  112 1    
   113   57  113 1    
   114   59   60 1    
   115   59  114 1    
   116   59  115 1    
   117   60   61 1    
   118   61  116 1    
   119   61  117 1    
@<TRIPOS>SUBSTRUCTURE
     1 UNK         1 GROUP             0       ****    0 ROOT    
