@<TRIPOS>MOLECULE
3R8
117   119    1
SMALL
USER_CHARGES


@<TRIPOS>ATOM
      1 CA         14.8656  -22.0722  -42.6494 C.3       0 UNK        -0.2013 
      2 C          15.4351  -22.9114  -43.7835 C.2       0 UNK         0.4866 
      3 O          15.1715  -22.6224  -44.9515 O.2       0 UNK        -0.5176 
      4 N          16.2055  -23.9539  -43.4495 N.am      1 UNK        -0.4884 
      5 CA         16.8738  -24.8441  -44.4055 C.3       1 UNK         0.0853 
      6 C6         17.3983  -26.1323  -43.7238 C.3       10 UNK        -0.0849 
      7 S7         16.0744  -27.0930  -42.9081 S.3       10 UNK        -0.2776 
      8 C8         15.9544  -28.5830  -43.9560 C.3       10 UNK         0.0316 
      9 C9         17.2538  -29.3781  -43.9844 C.ar      10 UNK        -0.0863 
     10 C10        17.7872  -29.9030  -42.8031 C.ar      10 UNK        -0.1009 
     11 C11        19.0069  -30.5850  -42.8168 C.ar      10 UNK        -0.0712 
     12 C12        19.6873  -30.7558  -44.0255 C.ar      10 UNK        -0.0894 
     13 C13        19.1554  -30.2517  -45.2166 C.ar      10 UNK        -0.0745 
     14 C14        17.9341  -29.5714  -45.1908 C.ar      10 UNK        -0.0972 
     15 C15        19.9183  -30.4144  -46.5252 C.3       10 UNK         0.0209 
     16 S16        20.4355  -28.8156  -47.2353 S.3       10 UNK        -0.2568 
     17 C17        21.3736  -28.0869  -45.8499 C.3       10 UNK        -0.0983 
     18 CA         21.7870  -26.6151  -46.1004 C.3       3 UNK         0.0876 
     19 N          20.6281  -25.7840  -46.4335 N.am      3 UNK        -0.4424 
     20 C          20.6715  -24.5529  -46.9565 C.2       2 UNK         0.4918 
     21 O          21.7150  -23.9685  -47.2510 O.2       2 UNK        -0.4875 
     22 CA         19.3193  -23.8636  -47.2241 C.3       2 UNK         0.0481 
     23 CB         18.9477  -23.9825  -48.7111 C.3       2 UNK        -0.1831 
     24 N          18.2225  -24.4024  -46.4103 N.am      2 UNK        -0.4498 
     25 C          18.0328  -24.1129  -45.1151 C.2       1 UNK         0.5027 
     26 O          18.7454  -23.3342  -44.4760 O.2       1 UNK        -0.4969 
     27 C          22.5256  -26.0759  -44.8590 C.2       3 UNK         0.5005 
     28 O          21.9242  -25.3928  -44.0241 O.2       3 UNK        -0.5279 
     29 N          23.7989  -26.4657  -44.7111 N.am      4 UNK        -0.4463 
     30 CA         24.6162  -26.2343  -43.5165 C.3       4 UNK         0.0283 
     31 CB         26.1049  -26.3331  -43.8994 C.3       4 UNK        -0.1875 
     32 C          24.2294  -27.2123  -42.3881 C.2       4 UNK         0.4949 
     33 O          25.0164  -28.0889  -42.0298 O.2       4 UNK        -0.5039 
     34 N          22.9983  -27.0670  -41.8839 N.am      5 UNK        -0.4663 
     35 CA         22.4096  -27.8747  -40.8141 C.3       5 UNK         0.0242 
     36 CB         20.9164  -27.5150  -40.7090 C.3       5 UNK        -0.1982 
     37 C          23.1272  -27.6642  -39.4581 C.2       5 UNK         0.5017 
     38 O          23.6566  -26.5755  -39.2301 O.2       5 UNK        -0.5012 
     39 N          23.1204  -28.6333  -38.5285 N.am      6 UNK        -0.4439 
     40 CA         22.5492  -29.9778  -38.6360 C.3       6 UNK         0.0297 
     41 CB         22.3468  -30.5730  -37.2325 C.3       6 UNK        -0.2006 
     42 C          23.4034  -30.9087  -39.5067 C.2       6 UNK         0.4892 
     43 O          22.8699  -31.4761  -40.4578 O.2       6 UNK        -0.5089 
     44 N          24.7001  -31.0339  -39.1841 N.am      7 UNK        -0.4243 
     45 CA         25.6926  -31.8763  -39.8674 C.3       7 UNK         0.0196 
     46 CB         26.1098  -31.2288  -41.2072 C.3       7 UNK        -0.2007 
     47 C          25.2090  -33.3345  -40.0063 C.2       7 UNK         0.5020 
     48 O          25.1882  -34.0582  -39.0102 O.2       7 UNK        -0.5147 
     49 N          24.7772  -33.7206  -41.2152 N.am      8 UNK        -0.4734 
     50 CA         24.1740  -35.0187  -41.5343 C.3       8 UNK         0.0238 
     51 CB         23.9509  -35.1095  -43.0526 C.3       8 UNK        -0.1912 
     52 C          22.8606  -35.3103  -40.7819 C.2       8 UNK         0.5038 
     53 O          22.5493  -36.4832  -40.5699 O.2       8 UNK        -0.5046 
     54 N          22.1301  -34.2613  -40.3771 N.am      9 UNK        -0.4200 
     55 CA         20.9529  -34.3613  -39.4991 C.3       9 UNK         0.0839 
     56 C          21.3022  -34.6224  -38.0030 C.2       9 UNK         0.5513 
     57 N          22.5617  -34.5789  -37.5815 N.am      9 UNK        -0.7519 
     58 O          20.4048  -34.8752  -37.2037 O.2       9 UNK        -0.4960 
     59 C59        20.0042  -33.1396  -39.6348 C.3       10 UNK        -0.0876 
     60 S60        19.3671  -32.8921  -41.3274 S.3       10 UNK        -0.2414 
     61 C61        19.6115  -31.1002  -41.5218 C.3       10 UNK         0.0169 
     62 H62        15.2094  -21.0418  -42.7364 H         1 UNK         0.0903 
     63 H63        13.7768  -22.0732  -42.6917 H         1 UNK         0.0903 
     64 H64        15.1670  -22.4487  -41.6720 H         1 UNK         0.0903 
     65 H65        16.3943  -24.1440  -42.4757 H         1 UNK         0.3096 
     66 H66        16.1369  -25.1307  -45.1595 H         1 UNK         0.1121 
     67 H67        18.1476  -25.8878  -42.9678 H         1 UNK         0.0849 
     68 H68        17.9101  -26.7645  -44.4507 H         1 UNK         0.0849 
     69 H69        15.1566  -29.2213  -43.5738 H         1 UNK         0.0865 
     70 H70        15.6533  -28.2861  -44.9619 H         1 UNK         0.0865 
     71 H71        17.2635  -29.7545  -41.8684 H         1 UNK         0.1346 
     72 H72        20.6366  -31.2740  -44.0323 H         1 UNK         0.1412 
     73 H73        17.5314  -29.1695  -46.1108 H         1 UNK         0.1426 
     74 H74        19.2861  -30.9346  -47.2459 H         1 UNK         0.0716 
     75 H75        20.8023  -31.0386  -46.3848 H         1 UNK         0.0716 
     76 H76        22.2505  -28.7131  -45.6742 H         1 UNK         0.0695 
     77 H77        20.7673  -28.1475  -44.9440 H         1 UNK         0.0695 
     78 H78        22.4754  -26.5817  -46.9478 H         1 UNK         0.0983 
     79 H79        19.7279  -26.1849  -46.2258 H         1 UNK         0.3095 
     80 H80        19.4381  -22.8032  -46.9908 H         1 UNK         0.0454 
     81 H81        19.7297  -23.5595  -49.3433 H         1 UNK         0.0851 
     82 H82        18.0272  -23.4433  -48.9354 H         1 UNK         0.0851 
     83 H83        18.8124  -25.0217  -49.0137 H         1 UNK         0.0851 
     84 H84        17.5871  -25.0373  -46.8731 H         1 UNK         0.2976 
     85 H85        24.2092  -27.0578  -45.4196 H         1 UNK         0.3116 
     86 H86        24.4348  -25.2211  -43.1507 H         1 UNK         0.0646 
     87 H87        26.7419  -26.1497  -43.0331 H         1 UNK         0.0847 
     88 H88        26.3606  -27.3198  -44.2876 H         1 UNK         0.0847 
     89 H89        26.3704  -25.5948  -44.6562 H         1 UNK         0.0847 
     90 H90        22.4208  -26.3316  -42.2786 H         1 UNK         0.3040 
     91 H91        22.4982  -28.9126  -41.1306 H         1 UNK         0.1015 
     92 H92        20.4169  -28.0912  -39.9303 H         1 UNK         0.0786 
     93 H93        20.3930  -27.7196  -41.6439 H         1 UNK         0.0786 
     94 H94        20.7743  -26.4602  -40.4700 H         1 UNK         0.0786 
     95 H95        23.5826  -28.4282  -37.6546 H         1 UNK         0.3172 
     96 H96        21.5632  -29.9055  -39.0962 H         1 UNK         0.0595 
     97 H97        23.2809  -30.6387  -36.6736 H         1 UNK         0.0839 
     98 H98        21.9333  -31.5807  -37.2889 H         1 UNK         0.0839 
     99 H99        21.6495  -29.9738  -36.6464 H         1 UNK         0.0839 
    100 H100       25.0371  -30.5348  -38.3733 H         1 UNK         0.2998 
    101 H101       26.5753  -31.9081  -39.2268 H         1 UNK         0.0822 
    102 H102       26.8388  -31.8444  -41.7360 H         1 UNK         0.0787 
    103 H103       25.2617  -31.0652  -41.8734 H         1 UNK         0.0787 
    104 H104       26.5763  -30.2581  -41.0384 H         1 UNK         0.0787 
    105 H105       24.7898  -33.0340  -41.9557 H         1 UNK         0.3055 
    106 H106       24.8872  -35.7929  -41.2431 H         1 UNK         0.1106 
    107 H107       24.8871  -34.9989  -43.6002 H         1 UNK         0.0828 
    108 H108       23.5298  -36.0776  -43.3281 H         1 UNK         0.0828 
    109 H109       23.2604  -34.3422  -43.4053 H         1 UNK         0.0828 
    110 H110       22.4581  -33.3200  -40.5773 H         1 UNK         0.2931 
    111 H111       20.3837  -35.2355  -39.8213 H         1 UNK         0.0412 
    112 H112       23.3288  -34.3965  -38.2181 H         1 UNK         0.3472 
    113 H113       22.7562  -34.7586  -36.6093 H         1 UNK         0.3472 
    114 H114       19.1365  -33.2570  -38.9828 H         1 UNK         0.0970 
    115 H115       20.5094  -32.2351  -39.2959 H         1 UNK         0.0970 
    116 H116       19.1762  -30.5804  -40.6667 H         1 UNK         0.0612 
    117 H117       20.6756  -30.8714  -41.5136 H         1 UNK         0.0612 
@<TRIPOS>BOND
     1    1    2 1    
     2    1   62 1    
     3    1   63 1    
     4    1   64 1    
     5    2    3 2    
     6    2    4 am   BACKBONE|DICT|INTERRES
     7    4    5 1    
     8    4   65 1    
     9    5    6 1    
    10    5   25 1    
    11    5   66 1    
    12    6    7 1    
    13    6   67 1    
    14    6   68 1    
    15    7    8 1    
    16    8    9 1    
    17    8   69 1    
    18    8   70 1    
    19    9   10 ar   
    20    9   14 ar   
    21   10   11 ar   
    22   10   71 1    
    23   11   12 ar   
    24   11   61 1    
    25   12   13 ar   
    26   12   72 1    
    27   13   14 ar   
    28   13   15 1    
    29   14   73 1    
    30   15   16 1    
    31   15   74 1    
    32   15   75 1    
    33   16   17 1    
    34   17   18 1    
    35   17   76 1    
    36   17   77 1    
    37   18   19 1    
    38   18   27 1    
    39   18   78 1    
    40   19   20 am   BACKBONE|DICT|INTERRES
    41   19   79 1    
    42   20   21 2    
    43   20   22 1    
    44   22   23 1    
    45   22   24 1    
    46   22   80 1    
    47   23   81 1    
    48   23   82 1    
    49   23   83 1    
    50   24   25 am   BACKBONE|DICT|INTERRES
    51   24   84 1    
    52   25   26 2    
    53   27   28 2    
    54   27   29 am   BACKBONE|DICT|INTERRES
    55   29   30 1    
    56   29   85 1    
    57   30   31 1    
    58   30   32 1    
    59   30   86 1    
    60   31   87 1    
    61   31   88 1    
    62   31   89 1    
    63   32   33 2    
    64   32   34 am   BACKBONE|DICT|INTERRES
    65   34   35 1    
    66   34   90 1    
    67   35   36 1    
    68   35   37 1    
    69   35   91 1    
    70   36   92 1    
    71   36   93 1    
    72   36   94 1    
    73   37   38 2    
    74   37   39 am   BACKBONE|DICT|INTERRES
    75   39   40 1    
    76   39   95 1    
    77   40   41 1    
    78   40   42 1    
    79   40   96 1    
    80   41   97 1    
    81   41   98 1    
    82   41   99 1    
    83   42   43 2    
    84   42   44 am   BACKBONE|DICT|INTERRES
    85   44   45 1    
    86   44  100 1    
    87   45   46 1    
    88   45   47 1    
    89   45  101 1    
    90   46  102 1    
    91   46  103 1    
    92   46  104 1    
    93   47   48 2    
    94   47   49 am   BACKBONE|DICT|INTERRES
    95   49   50 1    
    96   49  105 1    
    97   50   51 1    
    98   50   52 1    
    99   50  106 1    
   100   51  107 1    
   101   51  108 1    
   102   51  109 1    
   103   52   53 2    
   104   52   54 am   BACKBONE|DICT|INTERRES
   105   54   55 1    
   106   54  110 1    
   107   55   56 1    
   108   55   59 1    
   109   55  111 1    
   110   56   57 am   BACKBONE|DICT|INTERRES
   111   56   58 2    
   112   57  112 1    
   113   57  113 1    
   114   59   60 1    
   115   59  114 1    
   116   59  115 1    
   117   60   61 1    
   118   61  116 1    
   119   61  117 1    
@<TRIPOS>SUBSTRUCTURE
     1 UNK         1 GROUP             0       ****    0 ROOT    
