@<TRIPOS>MOLECULE
3R8
117   119    1
SMALL
USER_CHARGES


@<TRIPOS>ATOM
      1 CA         16.7838  -24.0188  -40.2314 C.3       0 UNK        -0.2013 
      2 C          16.4180  -24.6671  -41.5583 C.2       0 UNK         0.4866 
      3 O          15.2660  -25.0551  -41.7542 O.2       0 UNK        -0.5176 
      4 N          17.3869  -24.7850  -42.4708 N.am      1 UNK        -0.4884 
      5 CA         17.2315  -25.3420  -43.8127 C.3       1 UNK         0.0853 
      6 C6         17.2087  -26.8928  -43.8019 C.3       10 UNK        -0.0849 
      7 S7         16.4545  -27.5924  -45.3099 S.3       10 UNK        -0.2776 
      8 C8         16.3431  -29.3570  -44.8700 C.3       10 UNK         0.0316 
      9 C9         17.7040  -29.9467  -44.5272 C.ar      10 UNK        -0.0863 
     10 C10        17.9741  -30.3885  -43.2287 C.ar      10 UNK        -0.1009 
     11 C11        19.2243  -30.9248  -42.9079 C.ar      10 UNK        -0.0712 
     12 C12        20.2164  -30.9944  -43.8901 C.ar      10 UNK        -0.0894 
     13 C13        19.9604  -30.5528  -45.1919 C.ar      10 UNK        -0.0745 
     14 C14        18.6954  -30.0464  -45.5075 C.ar      10 UNK        -0.0972 
     15 C15        21.0462  -30.6441  -46.2573 C.3       10 UNK         0.0209 
     16 S16        21.3516  -29.0565  -47.0987 S.3       10 UNK        -0.2568 
     17 C17        22.0571  -28.0515  -45.7505 C.3       10 UNK        -0.0983 
     18 CA         22.1225  -26.5540  -46.1375 C.3       3 UNK         0.0876 
     19 N          20.7888  -25.9933  -46.3850 N.am      3 UNK        -0.4424 
     20 C          20.5504  -24.8248  -46.9958 C.2       2 UNK         0.4918 
     21 O          21.4311  -24.1199  -47.4890 O.2       2 UNK        -0.4875 
     22 CA         19.0884  -24.3419  -47.0541 C.3       2 UNK         0.0481 
     23 CB         18.4862  -24.6453  -48.4353 C.3       2 UNK        -0.1831 
     24 N          18.2013  -24.8851  -46.0169 N.am      2 UNK        -0.4498 
     25 C          18.3615  -24.7724  -44.6907 C.2       1 UNK         0.5027 
     26 O          19.3539  -24.2641  -44.1585 O.2       1 UNK        -0.4969 
     27 C          22.9263  -25.7467  -45.0924 C.2       3 UNK         0.5005 
     28 O          24.1558  -25.8239  -45.1060 O.2       3 UNK        -0.5279 
     29 N          22.2339  -24.9805  -44.2296 N.am      4 UNK        -0.4463 
     30 CA         22.7757  -24.0638  -43.2169 C.3       4 UNK         0.0283 
     31 CB         23.4386  -22.8467  -43.8963 C.3       4 UNK        -0.1875 
     32 C          23.6951  -24.7419  -42.1800 C.2       4 UNK         0.4949 
     33 O          24.6594  -24.1296  -41.7171 O.2       4 UNK        -0.5039 
     34 N          23.3780  -25.9912  -41.8251 N.am      5 UNK        -0.4663 
     35 CA         24.1055  -26.8093  -40.8604 C.3       5 UNK         0.0242 
     36 CB         25.2835  -27.5133  -41.5607 C.3       5 UNK        -0.1982 
     37 C          23.1418  -27.8337  -40.2541 C.2       5 UNK         0.5017 
     38 O          22.1134  -28.1408  -40.8628 O.2       5 UNK        -0.5012 
     39 N          23.5053  -28.3573  -39.0764 N.am      6 UNK        -0.4439 
     40 CA         22.7736  -29.4263  -38.3905 C.3       6 UNK         0.0297 
     41 CB         23.1493  -29.4278  -36.9000 C.3       6 UNK        -0.2006 
     42 C          23.0257  -30.8138  -39.0057 C.2       6 UNK         0.4892 
     43 O          22.1891  -31.7007  -38.8441 O.2       6 UNK        -0.5089 
     44 N          24.1673  -30.9916  -39.6837 N.am      7 UNK        -0.4243 
     45 CA         24.5136  -32.2151  -40.4059 C.3       7 UNK         0.0196 
     46 CB         26.0253  -32.2167  -40.6866 C.3       7 UNK        -0.2007 
     47 C          23.7208  -32.3096  -41.7261 C.2       7 UNK         0.5020 
     48 O          23.4700  -31.2750  -42.3417 O.2       7 UNK        -0.5147 
     49 N          23.3493  -33.5049  -42.2053 N.am      8 UNK        -0.4734 
     50 CA         23.5738  -34.8320  -41.6161 C.3       8 UNK         0.0238 
     51 CB         23.6472  -35.8567  -42.7620 C.3       8 UNK        -0.1912 
     52 C          22.4945  -35.2472  -40.5946 C.2       8 UNK         0.5038 
     53 O          22.5795  -36.3544  -40.0621 O.2       8 UNK        -0.5046 
     54 N          21.4960  -34.3844  -40.3634 N.am      9 UNK        -0.4200 
     55 CA         20.3423  -34.6176  -39.4792 C.3       9 UNK         0.0839 
     56 C          20.7224  -34.8837  -37.9969 C.2       9 UNK         0.5513 
     57 N          21.6412  -34.1152  -37.4277 N.am      9 UNK        -0.7519 
     58 O          20.1805  -35.7880  -37.3665 O.2       9 UNK        -0.4960 
     59 C59        19.2997  -33.4716  -39.5672 C.3       10 UNK        -0.0876 
     60 S60        18.7842  -33.0983  -41.2772 S.3       10 UNK        -0.2414 
     61 C61        19.4954  -31.4378  -41.5029 C.3       10 UNK         0.0169 
     62 H62        17.8337  -23.7284  -40.1952 H         1 UNK         0.0903 
     63 H63        16.1793  -23.1266  -40.0702 H         1 UNK         0.0903 
     64 H64        16.5954  -24.7111  -39.4113 H         1 UNK         0.0903 
     65 H65        18.3116  -24.4060  -42.3007 H         1 UNK         0.3096 
     66 H66        16.2869  -24.9680  -44.2155 H         1 UNK         0.1121 
     67 H67        16.6220  -27.2532  -42.9555 H         1 UNK         0.0849 
     68 H68        18.2122  -27.3006  -43.6635 H         1 UNK         0.0849 
     69 H69        15.6454  -29.4743  -44.0392 H         1 UNK         0.0865 
     70 H70        15.9144  -29.9068  -45.7090 H         1 UNK         0.0865 
     71 H71        17.2098  -30.3266  -42.4659 H         1 UNK         0.1346 
     72 H72        21.1873  -31.3988  -43.6408 H         1 UNK         0.1412 
     73 H73        18.4885  -29.7072  -46.5136 H         1 UNK         0.1426 
     74 H74        20.7445  -31.3827  -47.0010 H         1 UNK         0.0716 
     75 H75        21.9849  -31.0011  -45.8302 H         1 UNK         0.0716 
     76 H76        21.4646  -28.1875  -44.8436 H         1 UNK         0.0695 
     77 H77        23.0533  -28.4415  -45.5314 H         1 UNK         0.0695 
     78 H78        22.6841  -26.4771  -47.0715 H         1 UNK         0.0983 
     79 H79        20.0050  -26.5301  -46.0450 H         1 UNK         0.3095 
     80 H80        19.1063  -23.2582  -46.9229 H         1 UNK         0.0454 
     81 H81        19.1046  -24.2297  -49.2324 H         1 UNK         0.0851 
     82 H82        18.4051  -25.7186  -48.6127 H         1 UNK         0.0851 
     83 H83        17.4925  -24.2101  -48.5416 H         1 UNK         0.0851 
     84 H84        17.3772  -25.3690  -46.3480 H         1 UNK         0.2976 
     85 H85        21.2215  -24.9637  -44.3131 H         1 UNK         0.3116 
     86 H86        21.9150  -23.6954  -42.6568 H         1 UNK         0.0646 
     87 H87        23.7196  -22.0910  -43.1618 H         1 UNK         0.0847 
     88 H88        22.7608  -22.3708  -44.6050 H         1 UNK         0.0847 
     89 H89        24.3435  -23.1290  -44.4354 H         1 UNK         0.0847 
     90 H90        22.5441  -26.4259  -42.2007 H         1 UNK         0.3040 
     91 H91        24.4809  -26.1707  -40.0573 H         1 UNK         0.1015 
     92 H92        25.9677  -26.7926  -42.0090 H         1 UNK         0.0786 
     93 H93        24.9377  -28.1804  -42.3521 H         1 UNK         0.0786 
     94 H94        25.8629  -28.1119  -40.8571 H         1 UNK         0.0786 
     95 H95        24.3568  -28.0349  -38.6378 H         1 UNK         0.3172 
     96 H96        21.7032  -29.2233  -38.4692 H         1 UNK         0.0595 
     97 H97        22.5964  -30.1985  -36.3607 H         1 UNK         0.0839 
     98 H98        22.9124  -28.4736  -36.4291 H         1 UNK         0.0839 
     99 H99        24.2114  -29.6246  -36.7487 H         1 UNK         0.0839 
    100 H100       24.7814  -30.2016  -39.8064 H         1 UNK         0.2998 
    101 H101       24.2752  -33.0557  -39.7536 H         1 UNK         0.0822 
    102 H102       26.6010  -32.1648  -39.7622 H         1 UNK         0.0787 
    103 H103       26.3284  -33.1271  -41.2051 H         1 UNK         0.0787 
    104 H104       26.3198  -31.3737  -41.3135 H         1 UNK         0.0787 
    105 H105       22.8491  -33.5121  -43.0825 H         1 UNK         0.3055 
    106 H106       24.5358  -34.8559  -41.1016 H         1 UNK         0.1106 
    107 H107       22.7059  -35.9202  -43.3096 H         1 UNK         0.0828 
    108 H108       24.4333  -35.6022  -43.4732 H         1 UNK         0.0828 
    109 H109       23.8709  -36.8556  -42.3843 H         1 UNK         0.0828 
    110 H110       21.5134  -33.4921  -40.8325 H         1 UNK         0.2931 
    111 H111       19.8576  -35.5239  -39.8477 H         1 UNK         0.0412 
    112 H112       21.9033  -34.2731  -36.4680 H         1 UNK         0.3472 
    113 H113       22.0036  -33.3116  -37.9353 H         1 UNK         0.3472 
    114 H114       19.6835  -32.5642  -39.0973 H         1 UNK         0.0970 
    115 H115       18.4034  -33.7391  -39.0042 H         1 UNK         0.0970 
    116 H116       20.5687  -31.4671  -41.3070 H         1 UNK         0.0612 
    117 H117       19.0652  -30.7531  -40.7703 H         1 UNK         0.0612 
@<TRIPOS>BOND
     1    1    2 1    
     2    1   62 1    
     3    1   63 1    
     4    1   64 1    
     5    2    3 2    
     6    2    4 am   BACKBONE|DICT|INTERRES
     7    4    5 1    
     8    4   65 1    
     9    5    6 1    
    10    5   25 1    
    11    5   66 1    
    12    6    7 1    
    13    6   67 1    
    14    6   68 1    
    15    7    8 1    
    16    8    9 1    
    17    8   69 1    
    18    8   70 1    
    19    9   10 ar   
    20    9   14 ar   
    21   10   11 ar   
    22   10   71 1    
    23   11   12 ar   
    24   11   61 1    
    25   12   13 ar   
    26   12   72 1    
    27   13   14 ar   
    28   13   15 1    
    29   14   73 1    
    30   15   16 1    
    31   15   74 1    
    32   15   75 1    
    33   16   17 1    
    34   17   18 1    
    35   17   76 1    
    36   17   77 1    
    37   18   19 1    
    38   18   27 1    
    39   18   78 1    
    40   19   20 am   BACKBONE|DICT|INTERRES
    41   19   79 1    
    42   20   21 2    
    43   20   22 1    
    44   22   23 1    
    45   22   24 1    
    46   22   80 1    
    47   23   81 1    
    48   23   82 1    
    49   23   83 1    
    50   24   25 am   BACKBONE|DICT|INTERRES
    51   24   84 1    
    52   25   26 2    
    53   27   28 2    
    54   27   29 am   BACKBONE|DICT|INTERRES
    55   29   30 1    
    56   29   85 1    
    57   30   31 1    
    58   30   32 1    
    59   30   86 1    
    60   31   87 1    
    61   31   88 1    
    62   31   89 1    
    63   32   33 2    
    64   32   34 am   BACKBONE|DICT|INTERRES
    65   34   35 1    
    66   34   90 1    
    67   35   36 1    
    68   35   37 1    
    69   35   91 1    
    70   36   92 1    
    71   36   93 1    
    72   36   94 1    
    73   37   38 2    
    74   37   39 am   BACKBONE|DICT|INTERRES
    75   39   40 1    
    76   39   95 1    
    77   40   41 1    
    78   40   42 1    
    79   40   96 1    
    80   41   97 1    
    81   41   98 1    
    82   41   99 1    
    83   42   43 2    
    84   42   44 am   BACKBONE|DICT|INTERRES
    85   44   45 1    
    86   44  100 1    
    87   45   46 1    
    88   45   47 1    
    89   45  101 1    
    90   46  102 1    
    91   46  103 1    
    92   46  104 1    
    93   47   48 2    
    94   47   49 am   BACKBONE|DICT|INTERRES
    95   49   50 1    
    96   49  105 1    
    97   50   51 1    
    98   50   52 1    
    99   50  106 1    
   100   51  107 1    
   101   51  108 1    
   102   51  109 1    
   103   52   53 2    
   104   52   54 am   BACKBONE|DICT|INTERRES
   105   54   55 1    
   106   54  110 1    
   107   55   56 1    
   108   55   59 1    
   109   55  111 1    
   110   56   57 am   BACKBONE|DICT|INTERRES
   111   56   58 2    
   112   57  112 1    
   113   57  113 1    
   114   59   60 1    
   115   59  114 1    
   116   59  115 1    
   117   60   61 1    
   118   61  116 1    
   119   61  117 1    
@<TRIPOS>SUBSTRUCTURE
     1 UNK         1 GROUP             0       ****    0 ROOT    
