@<TRIPOS>MOLECULE
3R8
117   119    1
SMALL
USER_CHARGES


@<TRIPOS>ATOM
      1 CA         15.8764  -23.8282  -44.9994 C.3       0 UNK        -0.2013 
      2 C          16.0254  -25.1853  -44.3289 C.2       0 UNK         0.4866 
      3 O          15.4269  -26.1600  -44.7823 O.2       0 UNK        -0.5176 
      4 N          16.8168  -25.2552  -43.2535 N.am      1 UNK        -0.4884 
      5 CA         17.1010  -26.4755  -42.4989 C.3       1 UNK         0.0853 
      6 C6         15.9555  -26.8515  -41.5212 C.3       10 UNK        -0.0849 
      7 S7         15.9519  -28.6235  -41.0812 S.3       10 UNK        -0.2776 
      8 C8         14.9300  -29.3635  -42.3959 C.3       10 UNK         0.0316 
      9 C9         15.7616  -30.2378  -43.3244 C.ar      10 UNK        -0.0863 
     10 C10        15.9489  -31.5940  -43.0379 C.ar      10 UNK        -0.1009 
     11 C11        16.6778  -32.4119  -43.9083 C.ar      10 UNK        -0.0712 
     12 C12        17.2429  -31.8560  -45.0615 C.ar      10 UNK        -0.0894 
     13 C13        17.0779  -30.4982  -45.3494 C.ar      10 UNK        -0.0745 
     14 C14        16.3203  -29.7009  -44.4868 C.ar      10 UNK        -0.0972 
     15 C15        17.6797  -29.8947  -46.6104 C.3       10 UNK         0.0209 
     16 S16        18.8806  -28.5778  -46.2381 S.3       10 UNK        -0.2568 
     17 C17        20.3781  -29.5333  -45.8216 C.3       10 UNK        -0.0983 
     18 CA         21.5023  -28.5885  -45.3319 C.3       3 UNK         0.0876 
     19 N          21.1537  -27.9629  -44.0539 N.am      3 UNK        -0.4424 
     20 C          21.6760  -26.8235  -43.5856 C.2       2 UNK         0.4918 
     21 O          22.6556  -26.2693  -44.0840 O.2       2 UNK        -0.4875 
     22 CA         20.9271  -26.1758  -42.4123 C.3       2 UNK         0.0481 
     23 CB         21.3889  -24.7379  -42.1107 C.3       2 UNK        -0.1831 
     24 N          19.4991  -26.1988  -42.7277 N.am      2 UNK        -0.4498 
     25 C          18.4909  -26.3203  -41.8579 C.2       1 UNK         0.5027 
     26 O          18.6250  -26.2677  -40.6347 O.2       1 UNK        -0.4969 
     27 C          22.8896  -29.2616  -45.3427 C.2       3 UNK         0.5005 
     28 O          23.4170  -29.5005  -46.4306 O.2       3 UNK        -0.5279 
     29 N          23.4822  -29.5102  -44.1660 N.am      4 UNK        -0.4463 
     30 CA         24.8766  -29.9419  -44.0215 C.3       4 UNK         0.0283 
     31 CB         24.9305  -31.1740  -43.1052 C.3       4 UNK        -0.1875 
     32 C          25.7769  -28.8145  -43.4849 C.2       4 UNK         0.4949 
     33 O          26.9433  -29.0778  -43.1895 O.2       4 UNK        -0.5039 
     34 N          25.2331  -27.5957  -43.3303 N.am      5 UNK        -0.4663 
     35 CA         25.8232  -26.3788  -42.7497 C.3       5 UNK         0.0242 
     36 CB         27.0529  -25.9015  -43.5468 C.3       5 UNK        -0.1982 
     37 C          26.1334  -26.4986  -41.2475 C.2       5 UNK         0.5017 
     38 O          25.6650  -25.6748  -40.4623 O.2       5 UNK        -0.5012 
     39 N          26.8899  -27.5367  -40.8761 N.am      6 UNK        -0.4439 
     40 CA         27.2121  -27.9171  -39.5009 C.3       6 UNK         0.0297 
     41 CB         28.4930  -28.7676  -39.5126 C.3       6 UNK        -0.2006 
     42 C          26.0694  -28.6762  -38.7996 C.2       6 UNK         0.4892 
     43 O          26.1267  -28.8382  -37.5799 O.2       6 UNK        -0.5089 
     44 N          25.0658  -29.1320  -39.5603 N.am      7 UNK        -0.4243 
     45 CA         23.8816  -29.8274  -39.0688 C.3       7 UNK         0.0196 
     46 CB         24.1371  -31.3451  -39.0250 C.3       7 UNK        -0.2007 
     47 C          22.6807  -29.4795  -39.9553 C.2       7 UNK         0.5020 
     48 O          22.8556  -29.0373  -41.0961 O.2       7 UNK        -0.5147 
     49 N          21.4841  -29.6866  -39.3916 N.am      8 UNK        -0.4734 
     50 CA         20.1865  -29.3572  -39.9846 C.3       8 UNK         0.0238 
     51 CB         19.0800  -29.6212  -38.9508 C.3       8 UNK        -0.1912 
     52 C          19.9025  -30.0997  -41.2988 C.2       8 UNK         0.5038 
     53 O          19.5301  -29.4672  -42.2871 O.2       8 UNK        -0.5046 
     54 N          20.1206  -31.4171  -41.2768 N.am      9 UNK        -0.4200 
     55 CA         20.0016  -32.3160  -42.4256 C.3       9 UNK         0.0839 
     56 C          21.4140  -32.7200  -42.9148 C.2       9 UNK         0.5513 
     57 N          21.6341  -32.7593  -44.2216 N.am      9 UNK        -0.7519 
     58 O          22.2964  -33.0314  -42.1179 O.2       9 UNK        -0.4960 
     59 C59        19.1417  -33.5503  -42.0525 C.3       10 UNK        -0.0876 
     60 S60        18.5473  -34.4558  -43.5202 S.3       10 UNK        -0.2414 
     61 C61        16.8147  -33.9032  -43.6232 C.3       10 UNK         0.0169 
     62 H62        16.4753  -23.0611  -44.5080 H         1 UNK         0.0903 
     63 H63        16.1915  -23.8887  -46.0412 H         1 UNK         0.0903 
     64 H64        14.8336  -23.5115  -44.9766 H         1 UNK         0.0903 
     65 H65        17.2944  -24.4260  -42.9243 H         1 UNK         0.3096 
     66 H66        17.2061  -27.2909  -43.2167 H         1 UNK         0.1121 
     67 H67        14.9859  -26.6106  -41.9583 H         1 UNK         0.0849 
     68 H68        16.0080  -26.2578  -40.6072 H         1 UNK         0.0849 
     69 H69        14.1440  -29.9615  -41.9326 H         1 UNK         0.0865 
     70 H70        14.4164  -28.5913  -42.9704 H         1 UNK         0.0865 
     71 H71        15.5089  -32.0156  -42.1444 H         1 UNK         0.1346 
     72 H72        17.8053  -32.4865  -45.7364 H         1 UNK         0.1412 
     73 H73        16.1675  -28.6583  -44.7271 H         1 UNK         0.1426 
     74 H74        16.8747  -29.4713  -47.2126 H         1 UNK         0.0716 
     75 H75        18.1562  -30.6575  -47.2280 H         1 UNK         0.0716 
     76 H76        20.6841  -30.0820  -46.7144 H         1 UNK         0.0695 
     77 H77        20.1352  -30.2760  -45.0605 H         1 UNK         0.0695 
     78 H78        21.5852  -27.7815  -46.0641 H         1 UNK         0.0983 
     79 H79        20.3990  -28.4066  -43.5321 H         1 UNK         0.3095 
     80 H80        21.1256  -26.7904  -41.5351 H         1 UNK         0.0454 
     81 H81        21.2382  -24.0790  -42.9665 H         1 UNK         0.0851 
     82 H82        22.4503  -24.7138  -41.8600 H         1 UNK         0.0851 
     83 H83        20.8479  -24.3173  -41.2633 H         1 UNK         0.0851 
     84 H84        19.2808  -26.2332  -43.7152 H         1 UNK         0.2976 
     85 H85        22.9872  -29.2948  -43.3064 H         1 UNK         0.3116 
     86 H86        25.2962  -30.2322  -44.9864 H         1 UNK         0.0646 
     87 H87        24.4640  -30.9759  -42.1426 H         1 UNK         0.0847 
     88 H88        25.9562  -31.4930  -42.9162 H         1 UNK         0.0847 
     89 H89        24.4155  -32.0199  -43.5577 H         1 UNK         0.0847 
     90 H90        24.2705  -27.4763  -43.6270 H         1 UNK         0.3040 
     91 H91        25.0572  -25.6071  -42.8457 H         1 UNK         0.1015 
     92 H92        27.8790  -26.6111  -43.4993 H         1 UNK         0.0786 
     93 H93        27.4216  -24.9516  -43.1577 H         1 UNK         0.0786 
     94 H94        26.8055  -25.7466  -44.5969 H         1 UNK         0.0786 
     95 H95        27.1853  -28.1714  -41.6166 H         1 UNK         0.3172 
     96 H96        27.4075  -27.0107  -38.9240 H         1 UNK         0.0595 
     97 H97        28.3599  -29.6892  -40.0808 H         1 UNK         0.0839 
     98 H98        28.7864  -29.0481  -38.5000 H         1 UNK         0.0839 
     99 H99        29.3286  -28.2211  -39.9501 H         1 UNK         0.0839 
    100 H100       25.0426  -28.8986  -40.5438 H         1 UNK         0.2998 
    101 H101       23.6570  -29.4748  -38.0595 H         1 UNK         0.0822 
    102 H102       24.9752  -31.5851  -38.3705 H         1 UNK         0.0787 
    103 H103       23.2676  -31.8806  -38.6423 H         1 UNK         0.0787 
    104 H104       24.3588  -31.7525  -40.0105 H         1 UNK         0.0787 
    105 H105       21.4597  -30.0586  -38.4526 H         1 UNK         0.3055 
    106 H106       20.1896  -28.2909  -40.2015 H         1 UNK         0.1106 
    107 H107       19.0431  -30.6677  -38.6465 H         1 UNK         0.0828 
    108 H108       18.1017  -29.3663  -39.3552 H         1 UNK         0.0828 
    109 H109       19.2204  -29.0144  -38.0562 H         1 UNK         0.0828 
    110 H110       20.5130  -31.8251  -40.4412 H         1 UNK         0.2931 
    111 H111       19.4962  -31.7868  -43.2350 H         1 UNK         0.0412 
    112 H112       20.8941  -32.5664  -44.8764 H         1 UNK         0.3472 
    113 H113       22.5401  -33.0432  -44.5570 H         1 UNK         0.3472 
    114 H114       18.2753  -33.2370  -41.4682 H         1 UNK         0.0970 
    115 H115       19.6960  -34.2379  -41.4112 H         1 UNK         0.0970 
    116 H116       16.3201  -34.4577  -44.4216 H         1 UNK         0.0612 
    117 H117       16.3016  -34.1748  -42.6993 H         1 UNK         0.0612 
@<TRIPOS>BOND
     1    1    2 1    
     2    1   62 1    
     3    1   63 1    
     4    1   64 1    
     5    2    3 2    
     6    2    4 am   BACKBONE|DICT|INTERRES
     7    4    5 1    
     8    4   65 1    
     9    5    6 1    
    10    5   25 1    
    11    5   66 1    
    12    6    7 1    
    13    6   67 1    
    14    6   68 1    
    15    7    8 1    
    16    8    9 1    
    17    8   69 1    
    18    8   70 1    
    19    9   10 ar   
    20    9   14 ar   
    21   10   11 ar   
    22   10   71 1    
    23   11   12 ar   
    24   11   61 1    
    25   12   13 ar   
    26   12   72 1    
    27   13   14 ar   
    28   13   15 1    
    29   14   73 1    
    30   15   16 1    
    31   15   74 1    
    32   15   75 1    
    33   16   17 1    
    34   17   18 1    
    35   17   76 1    
    36   17   77 1    
    37   18   19 1    
    38   18   27 1    
    39   18   78 1    
    40   19   20 am   BACKBONE|DICT|INTERRES
    41   19   79 1    
    42   20   21 2    
    43   20   22 1    
    44   22   23 1    
    45   22   24 1    
    46   22   80 1    
    47   23   81 1    
    48   23   82 1    
    49   23   83 1    
    50   24   25 am   BACKBONE|DICT|INTERRES
    51   24   84 1    
    52   25   26 2    
    53   27   28 2    
    54   27   29 am   BACKBONE|DICT|INTERRES
    55   29   30 1    
    56   29   85 1    
    57   30   31 1    
    58   30   32 1    
    59   30   86 1    
    60   31   87 1    
    61   31   88 1    
    62   31   89 1    
    63   32   33 2    
    64   32   34 am   BACKBONE|DICT|INTERRES
    65   34   35 1    
    66   34   90 1    
    67   35   36 1    
    68   35   37 1    
    69   35   91 1    
    70   36   92 1    
    71   36   93 1    
    72   36   94 1    
    73   37   38 2    
    74   37   39 am   BACKBONE|DICT|INTERRES
    75   39   40 1    
    76   39   95 1    
    77   40   41 1    
    78   40   42 1    
    79   40   96 1    
    80   41   97 1    
    81   41   98 1    
    82   41   99 1    
    83   42   43 2    
    84   42   44 am   BACKBONE|DICT|INTERRES
    85   44   45 1    
    86   44  100 1    
    87   45   46 1    
    88   45   47 1    
    89   45  101 1    
    90   46  102 1    
    91   46  103 1    
    92   46  104 1    
    93   47   48 2    
    94   47   49 am   BACKBONE|DICT|INTERRES
    95   49   50 1    
    96   49  105 1    
    97   50   51 1    
    98   50   52 1    
    99   50  106 1    
   100   51  107 1    
   101   51  108 1    
   102   51  109 1    
   103   52   53 2    
   104   52   54 am   BACKBONE|DICT|INTERRES
   105   54   55 1    
   106   54  110 1    
   107   55   56 1    
   108   55   59 1    
   109   55  111 1    
   110   56   57 am   BACKBONE|DICT|INTERRES
   111   56   58 2    
   112   57  112 1    
   113   57  113 1    
   114   59   60 1    
   115   59  114 1    
   116   59  115 1    
   117   60   61 1    
   118   61  116 1    
   119   61  117 1    
@<TRIPOS>SUBSTRUCTURE
     1 UNK         1 GROUP             0       ****    0 ROOT    
