@<TRIPOS>MOLECULE
3R8
117   119    1
SMALL
USER_CHARGES


@<TRIPOS>ATOM
      1 CA         17.9547  -28.9596  -48.0724 C.3       0 UNK        -0.2013 
      2 C          18.8176  -27.7322  -48.3399 C.2       0 UNK         0.4866 
      3 O          19.3720  -27.6122  -49.4307 O.2       0 UNK        -0.5176 
      4 N          18.9703  -26.7991  -47.3941 N.am      1 UNK        -0.4884 
      5 CA         18.4352  -26.7932  -46.0305 C.3       1 UNK         0.0853 
      6 C6         17.0015  -26.1902  -45.9781 C.3       10 UNK        -0.0849 
      7 S7         16.1132  -26.4266  -44.3964 S.3       10 UNK        -0.2776 
      8 C8         15.3745  -28.0819  -44.5736 C.3       10 UNK         0.0316 
      9 C9         16.2048  -29.1422  -43.8634 C.ar      10 UNK        -0.0863 
     10 C10        16.9655  -30.0603  -44.5927 C.ar      10 UNK        -0.1009 
     11 C11        17.7122  -31.0435  -43.9377 C.ar      10 UNK        -0.0712 
     12 C12        17.6785  -31.1189  -42.5425 C.ar      10 UNK        -0.0894 
     13 C13        16.9115  -30.2166  -41.8011 C.ar      10 UNK        -0.0745 
     14 C14        16.1819  -29.2266  -42.4672 C.ar      10 UNK        -0.0972 
     15 C15        16.8383  -30.3408  -40.2851 C.3       10 UNK         0.0209 
     16 S16        18.4018  -29.8899  -39.4684 S.3       10 UNK        -0.2568 
     17 C17        18.5309  -28.1112  -39.8461 C.3       10 UNK        -0.0983 
     18 CA         19.7743  -27.7709  -40.7090 C.3       3 UNK         0.0876 
     19 N          19.5486  -26.5403  -41.4805 N.am      3 UNK        -0.4424 
     20 C          20.4408  -25.8078  -42.1624 C.2       2 UNK         0.4918 
     21 O          21.6582  -25.9858  -42.1401 O.2       2 UNK        -0.4875 
     22 CA         19.8342  -24.7140  -43.0571 C.3       2 UNK         0.0481 
     23 CB         20.8848  -23.7202  -43.5982 C.3       2 UNK        -0.1831 
     24 N          19.0469  -25.3221  -44.1377 N.am      2 UNK        -0.4498 
     25 C          19.4891  -26.1093  -45.1308 C.2       1 UNK         0.5027 
     26 O          20.6825  -26.3171  -45.3571 O.2       1 UNK        -0.4969 
     27 C          21.0598  -27.7849  -39.8525 C.2       3 UNK         0.5005 
     28 O          21.8322  -28.7415  -39.9346 O.2       3 UNK        -0.5279 
     29 N          21.2735  -26.7192  -39.0671 N.am      4 UNK        -0.4463 
     30 CA         22.4212  -26.5708  -38.1677 C.3       4 UNK         0.0283 
     31 CB         22.1616  -25.4099  -37.1945 C.3       4 UNK        -0.1875 
     32 C          23.7590  -26.3675  -38.8995 C.2       4 UNK         0.4949 
     33 O          24.7837  -26.8534  -38.4216 O.2       4 UNK        -0.5039 
     34 N          23.7313  -25.6644  -40.0395 N.am      5 UNK        -0.4663 
     35 CA         24.9020  -25.4240  -40.8879 C.3       5 UNK         0.0242 
     36 CB         24.6659  -24.1711  -41.7473 C.3       5 UNK        -0.1982 
     37 C          25.2155  -26.6395  -41.7726 C.2       5 UNK         0.5017 
     38 O          26.3860  -26.9687  -41.9644 O.2       5 UNK        -0.5012 
     39 N          24.1592  -27.2932  -42.2734 N.am      6 UNK        -0.4439 
     40 CA         24.2170  -28.5089  -43.0855 C.3       6 UNK         0.0297 
     41 CB         22.8587  -28.6983  -43.7808 C.3       6 UNK        -0.2006 
     42 C          24.5826  -29.7737  -42.2886 C.2       6 UNK         0.4892 
     43 O          24.8884  -30.7897  -42.9118 O.2       6 UNK        -0.5089 
     44 N          24.4995  -29.7096  -40.9498 N.am      7 UNK        -0.4243 
     45 CA         24.6563  -30.8117  -39.9913 C.3       7 UNK         0.0196 
     46 CB         26.1094  -31.3315  -39.9758 C.3       7 UNK        -0.2007 
     47 C          23.6151  -31.9182  -40.2420 C.2       7 UNK         0.5020 
     48 O          23.9687  -33.0873  -40.4075 O.2       7 UNK        -0.5147 
     49 N          22.3454  -31.4964  -40.3414 N.am      8 UNK        -0.4734 
     50 CA         21.1661  -32.2916  -40.7132 C.3       8 UNK         0.0238 
     51 CB         20.8212  -33.3125  -39.6095 C.3       8 UNK        -0.1912 
     52 C          21.2652  -32.9335  -42.1131 C.2       8 UNK         0.5038 
     53 O          20.6223  -33.9534  -42.3659 O.2       8 UNK        -0.5046 
     54 N          22.0674  -32.3155  -42.9896 N.am      9 UNK        -0.4200 
     55 CA         22.4006  -32.7562  -44.3527 C.3       9 UNK         0.0839 
     56 C          23.2965  -34.0309  -44.4048 C.2       9 UNK         0.5513 
     57 N          23.9473  -34.4312  -43.3174 N.am      9 UNK        -0.7519 
     58 O          23.4270  -34.6564  -45.4541 O.2       9 UNK        -0.4960 
     59 C59        21.1748  -32.8339  -45.3108 C.3       10 UNK        -0.0876 
     60 S60        20.1234  -31.3367  -45.2607 S.3       10 UNK        -0.2414 
     61 C61        18.5318  -32.0458  -44.7332 C.3       10 UNK         0.0169 
     62 H62        18.4814  -29.6523  -47.4171 H         1 UNK         0.0903 
     63 H63        17.0009  -28.6915  -47.6226 H         1 UNK         0.0903 
     64 H64        17.7395  -29.4828  -49.0039 H         1 UNK         0.0903 
     65 H65        19.6102  -26.0373  -47.5782 H         1 UNK         0.3096 
     66 H66        18.3924  -27.8218  -45.6692 H         1 UNK         0.1121 
     67 H67        16.3843  -26.6088  -46.7733 H         1 UNK         0.0849 
     68 H68        17.0391  -25.1203  -46.1923 H         1 UNK         0.0849 
     69 H69        14.3747  -28.0647  -44.1371 H         1 UNK         0.0865 
     70 H70        15.2350  -28.3303  -45.6266 H         1 UNK         0.0865 
     71 H71        16.9700  -30.0221  -45.6708 H         1 UNK         0.1346 
     72 H72        18.2370  -31.8908  -42.0315 H         1 UNK         0.1412 
     73 H73        15.5821  -28.5265  -41.9014 H         1 UNK         0.1426 
     74 H74        16.0325  -29.7261  -39.8809 H         1 UNK         0.0716 
     75 H75        16.5929  -31.3713  -40.0244 H         1 UNK         0.0716 
     76 H76        18.5267  -27.5510  -38.9090 H         1 UNK         0.0695 
     77 H77        17.6196  -27.8070  -40.3623 H         1 UNK         0.0695 
     78 H78        19.8913  -28.5547  -41.4608 H         1 UNK         0.0983 
     79 H79        18.5783  -26.2854  -41.5899 H         1 UNK         0.3095 
     80 H80        19.1348  -24.1461  -42.4418 H         1 UNK         0.0454 
     81 H81        20.4240  -22.9607  -44.2291 H         1 UNK         0.0851 
     82 H82        21.6615  -24.2145  -44.1820 H         1 UNK         0.0851 
     83 H83        21.3833  -23.2026  -42.7780 H         1 UNK         0.0851 
     84 H84        18.0410  -25.2404  -44.0448 H         1 UNK         0.2976 
     85 H85        20.5951  -25.9711  -39.0755 H         1 UNK         0.3116 
     86 H86        22.5060  -27.4890  -37.5820 H         1 UNK         0.0646 
     87 H87        21.2637  -25.5815  -36.6007 H         1 UNK         0.0847 
     88 H88        22.9915  -25.2946  -36.4957 H         1 UNK         0.0847 
     89 H89        22.0436  -24.4602  -37.7179 H         1 UNK         0.0847 
     90 H90        22.8356  -25.3696  -40.4071 H         1 UNK         0.3040 
     91 H91        25.7706  -25.2412  -40.2507 H         1 UNK         0.1015 
     92 H92        23.8151  -24.2925  -42.4187 H         1 UNK         0.0786 
     93 H93        25.5385  -23.9535  -42.3647 H         1 UNK         0.0786 
     94 H94        24.4814  -23.2939  -41.1271 H         1 UNK         0.0786 
     95 H95        23.2338  -26.8995  -42.1092 H         1 UNK         0.3172 
     96 H96        24.9808  -28.3712  -43.8535 H         1 UNK         0.0595 
     97 H97        22.0511  -28.8466  -43.0627 H         1 UNK         0.0839 
     98 H98        22.8703  -29.5618  -44.4461 H         1 UNK         0.0839 
     99 H99        22.6068  -27.8310  -44.3901 H         1 UNK         0.0839 
    100 H100       24.1700  -28.8386  -40.5549 H         1 UNK         0.2998 
    101 H101       24.4397  -30.3986  -39.0047 H         1 UNK         0.0822 
    102 H102       26.2455  -32.0806  -39.1949 H         1 UNK         0.0787 
    103 H103       26.3864  -31.7969  -40.9223 H         1 UNK         0.0787 
    104 H104       26.8157  -30.5249  -39.7795 H         1 UNK         0.0787 
    105 H105       22.1705  -30.5009  -40.1934 H         1 UNK         0.3055 
    106 H106       20.3401  -31.5844  -40.7788 H         1 UNK         0.1106 
    107 H107       19.8709  -33.8064  -39.8154 H         1 UNK         0.0828 
    108 H108       21.5809  -34.0902  -39.5261 H         1 UNK         0.0828 
    109 H109       20.7266  -32.8273  -38.6382 H         1 UNK         0.0828 
    110 H110       22.5973  -31.5223  -42.6601 H         1 UNK         0.2931 
    111 H111       23.0438  -31.9671  -44.7423 H         1 UNK         0.0412 
    112 H112       24.5314  -35.2508  -43.3662 H         1 UNK         0.3472 
    113 H113       23.8711  -33.9170  -42.4484 H         1 UNK         0.3472 
    114 H114       20.5816  -33.7227  -45.0918 H         1 UNK         0.0970 
    115 H115       21.5156  -32.9581  -46.3400 H         1 UNK         0.0970 
    116 H116       18.6976  -32.9376  -44.1276 H         1 UNK         0.0612 
    117 H117       17.9759  -32.3723  -45.6132 H         1 UNK         0.0612 
@<TRIPOS>BOND
     1    1    2 1    
     2    1   62 1    
     3    1   63 1    
     4    1   64 1    
     5    2    3 2    
     6    2    4 am   BACKBONE|DICT|INTERRES
     7    4    5 1    
     8    4   65 1    
     9    5    6 1    
    10    5   25 1    
    11    5   66 1    
    12    6    7 1    
    13    6   67 1    
    14    6   68 1    
    15    7    8 1    
    16    8    9 1    
    17    8   69 1    
    18    8   70 1    
    19    9   10 ar   
    20    9   14 ar   
    21   10   11 ar   
    22   10   71 1    
    23   11   12 ar   
    24   11   61 1    
    25   12   13 ar   
    26   12   72 1    
    27   13   14 ar   
    28   13   15 1    
    29   14   73 1    
    30   15   16 1    
    31   15   74 1    
    32   15   75 1    
    33   16   17 1    
    34   17   18 1    
    35   17   76 1    
    36   17   77 1    
    37   18   19 1    
    38   18   27 1    
    39   18   78 1    
    40   19   20 am   BACKBONE|DICT|INTERRES
    41   19   79 1    
    42   20   21 2    
    43   20   22 1    
    44   22   23 1    
    45   22   24 1    
    46   22   80 1    
    47   23   81 1    
    48   23   82 1    
    49   23   83 1    
    50   24   25 am   BACKBONE|DICT|INTERRES
    51   24   84 1    
    52   25   26 2    
    53   27   28 2    
    54   27   29 am   BACKBONE|DICT|INTERRES
    55   29   30 1    
    56   29   85 1    
    57   30   31 1    
    58   30   32 1    
    59   30   86 1    
    60   31   87 1    
    61   31   88 1    
    62   31   89 1    
    63   32   33 2    
    64   32   34 am   BACKBONE|DICT|INTERRES
    65   34   35 1    
    66   34   90 1    
    67   35   36 1    
    68   35   37 1    
    69   35   91 1    
    70   36   92 1    
    71   36   93 1    
    72   36   94 1    
    73   37   38 2    
    74   37   39 am   BACKBONE|DICT|INTERRES
    75   39   40 1    
    76   39   95 1    
    77   40   41 1    
    78   40   42 1    
    79   40   96 1    
    80   41   97 1    
    81   41   98 1    
    82   41   99 1    
    83   42   43 2    
    84   42   44 am   BACKBONE|DICT|INTERRES
    85   44   45 1    
    86   44  100 1    
    87   45   46 1    
    88   45   47 1    
    89   45  101 1    
    90   46  102 1    
    91   46  103 1    
    92   46  104 1    
    93   47   48 2    
    94   47   49 am   BACKBONE|DICT|INTERRES
    95   49   50 1    
    96   49  105 1    
    97   50   51 1    
    98   50   52 1    
    99   50  106 1    
   100   51  107 1    
   101   51  108 1    
   102   51  109 1    
   103   52   53 2    
   104   52   54 am   BACKBONE|DICT|INTERRES
   105   54   55 1    
   106   54  110 1    
   107   55   56 1    
   108   55   59 1    
   109   55  111 1    
   110   56   57 am   BACKBONE|DICT|INTERRES
   111   56   58 2    
   112   57  112 1    
   113   57  113 1    
   114   59   60 1    
   115   59  114 1    
   116   59  115 1    
   117   60   61 1    
   118   61  116 1    
   119   61  117 1    
@<TRIPOS>SUBSTRUCTURE
     1 UNK         1 GROUP             0       ****    0 ROOT    
