@<TRIPOS>MOLECULE
3R8
117   119    1
SMALL
USER_CHARGES


@<TRIPOS>ATOM
      1 CA         15.4209  -22.3551  -42.7188 C.3       0 UNK        -0.2013 
      2 C          16.1516  -23.1481  -43.7920 C.2       0 UNK         0.4866 
      3 O          16.7448  -22.5563  -44.6946 O.2       0 UNK        -0.5176 
      4 N          16.1049  -24.4830  -43.7074 N.am      1 UNK        -0.4884 
      5 CA         16.8084  -25.4123  -44.5966 C.3       1 UNK         0.0853 
      6 C6         16.2232  -26.8488  -44.5225 C.3       10 UNK        -0.0849 
      7 S7         15.8309  -27.4574  -42.8397 S.3       10 UNK        -0.2776 
      8 C8         17.3407  -28.3475  -42.3539 C.3       10 UNK         0.0316 
      9 C9         17.4832  -29.6902  -43.0519 C.ar      10 UNK        -0.0863 
     10 C10        16.9639  -30.8466  -42.4650 C.ar      10 UNK        -0.1009 
     11 C11        17.1418  -32.0948  -43.0685 C.ar      10 UNK        -0.0712 
     12 C12        17.8330  -32.1693  -44.2840 C.ar      10 UNK        -0.0894 
     13 C13        18.3967  -31.0287  -44.8636 C.ar      10 UNK        -0.0745 
     14 C14        18.1883  -29.7876  -44.2527 C.ar      10 UNK        -0.0972 
     15 C15        19.2532  -31.1840  -46.1229 C.3       10 UNK         0.0209 
     16 S16        20.5821  -29.9414  -46.3518 S.3       10 UNK        -0.2568 
     17 C17        21.4252  -29.9058  -44.7240 C.3       10 UNK        -0.0983 
     18 CA         21.9305  -28.4979  -44.2921 C.3       3 UNK         0.0876 
     19 N          21.1046  -27.3860  -44.7982 N.am      3 UNK        -0.4424 
     20 C          21.4406  -26.0895  -44.7342 C.2       2 UNK         0.4918 
     21 O          22.4213  -25.6694  -44.1205 O.2       2 UNK        -0.4875 
     22 CA         20.5437  -25.0884  -45.4794 C.3       2 UNK         0.0481 
     23 CB         21.0126  -24.9443  -46.9358 C.3       2 UNK        -0.1831 
     24 N          19.1087  -25.3942  -45.4585 N.am      2 UNK        -0.4498 
     25 C          18.3362  -25.3616  -44.3624 C.2       1 UNK         0.5027 
     26 O          18.7816  -25.2705  -43.2157 O.2       1 UNK        -0.4969 
     27 C          22.1644  -28.4400  -42.7644 C.2       3 UNK         0.5005 
     28 O          23.1737  -28.9571  -42.2802 O.2       3 UNK        -0.5279 
     29 N          21.2640  -27.7564  -42.0396 N.am      4 UNK        -0.4463 
     30 CA         21.3605  -27.4713  -40.6067 C.3       4 UNK         0.0283 
     31 CB         20.0721  -26.7843  -40.1292 C.3       4 UNK        -0.1875 
     32 C          22.5876  -26.6276  -40.2186 C.2       4 UNK         0.4949 
     33 O          23.0431  -26.7412  -39.0818 O.2       4 UNK        -0.5039 
     34 N          23.1430  -25.8467  -41.1593 N.am      5 UNK        -0.4663 
     35 CA         24.3942  -25.1008  -40.9744 C.3       5 UNK         0.0242 
     36 CB         24.5885  -24.1251  -42.1454 C.3       5 UNK        -0.1982 
     37 C          25.6262  -26.0137  -40.8234 C.2       5 UNK         0.5017 
     38 O          26.5960  -25.6122  -40.1800 O.2       5 UNK        -0.5012 
     39 N          25.5535  -27.2257  -41.3911 N.am      6 UNK        -0.4439 
     40 CA         26.5416  -28.2949  -41.2341 C.3       6 UNK         0.0297 
     41 CB         26.7442  -28.9730  -42.6010 C.3       6 UNK        -0.2006 
     42 C          26.1081  -29.3314  -40.1782 C.2       6 UNK         0.4892 
     43 O          26.8428  -30.2953  -39.9593 O.2       6 UNK        -0.5089 
     44 N          24.9238  -29.1381  -39.5718 N.am      7 UNK        -0.4243 
     45 CA         24.2065  -30.0577  -38.6791 C.3       7 UNK         0.0196 
     46 CB         24.9457  -30.2009  -37.3319 C.3       7 UNK        -0.2007 
     47 C          23.8953  -31.4141  -39.3465 C.2       7 UNK         0.5020 
     48 O          23.9335  -32.4504  -38.6802 O.2       7 UNK        -0.5147 
     49 N          23.6172  -31.3865  -40.6555 N.am      8 UNK        -0.4734 
     50 CA         23.4164  -32.5653  -41.4941 C.3       8 UNK         0.0238 
     51 CB         24.2734  -32.3959  -42.7613 C.3       8 UNK        -0.1912 
     52 C          21.9383  -32.7376  -41.8694 C.2       8 UNK         0.5038 
     53 O          21.1616  -31.7835  -41.8009 O.2       8 UNK        -0.5046 
     54 N          21.6013  -33.9543  -42.3036 N.am      9 UNK        -0.4200 
     55 CA         20.3277  -34.3455  -42.9093 C.3       9 UNK         0.0839 
     56 C          20.5665  -35.6668  -43.6840 C.2       9 UNK         0.5513 
     57 N          20.1458  -35.7481  -44.9386 N.am      9 UNK        -0.7519 
     58 O          21.1285  -36.6211  -43.1496 O.2       9 UNK        -0.4960 
     59 C59        19.1732  -34.4415  -41.8699 C.3       10 UNK        -0.0876 
     60 S60        17.5537  -34.8636  -42.6130 S.3       10 UNK        -0.2414 
     61 C61        16.5750  -33.3374  -42.3829 C.3       10 UNK         0.0169 
     62 H62        14.6604  -21.7205  -43.1731 H         1 UNK         0.0903 
     63 H63        14.9313  -23.0053  -41.9939 H         1 UNK         0.0903 
     64 H64        16.1220  -21.7166  -42.1821 H         1 UNK         0.0903 
     65 H65        15.6299  -24.9226  -42.9307 H         1 UNK         0.3096 
     66 H66        16.6360  -25.0547  -45.6148 H         1 UNK         0.1121 
     67 H67        16.8477  -27.5604  -45.0594 H         1 UNK         0.0849 
     68 H68        15.2779  -26.8561  -45.0675 H         1 UNK         0.0849 
     69 H69        17.3114  -28.5028  -41.2745 H         1 UNK         0.0865 
     70 H70        18.2172  -27.7295  -42.5410 H         1 UNK         0.0865 
     71 H71        16.4294  -30.7745  -41.5274 H         1 UNK         0.1346 
     72 H72        17.9666  -33.1275  -44.7651 H         1 UNK         0.1412 
     73 H73        18.6132  -28.8977  -44.6892 H         1 UNK         0.1426 
     74 H74        18.5983  -31.1561  -46.9945 H         1 UNK         0.0716 
     75 H75        19.7247  -32.1681  -46.1232 H         1 UNK         0.0716 
     76 H76        22.2671  -30.5977  -44.7704 H         1 UNK         0.0695 
     77 H77        20.7650  -30.3239  -43.9658 H         1 UNK         0.0695 
     78 H78        22.9139  -28.3624  -44.7479 H         1 UNK         0.0983 
     79 H79        20.3137  -27.6512  -45.3658 H         1 UNK         0.3095 
     80 H80        20.6739  -24.1196  -44.9922 H         1 UNK         0.0454 
     81 H81        20.8747  -25.8675  -47.5002 H         1 UNK         0.0851 
     82 H82        22.0730  -24.6910  -46.9816 H         1 UNK         0.0851 
     83 H83        20.4722  -24.1503  -47.4515 H         1 UNK         0.0851 
     84 H84        18.6641  -25.4881  -46.3610 H         1 UNK         0.2976 
     85 H85        20.4969  -27.3242  -42.5343 H         1 UNK         0.3116 
     86 H86        21.4495  -28.4287  -40.0889 H         1 UNK         0.0646 
     87 H87        19.2094  -27.4388  -40.2400 H         1 UNK         0.0847 
     88 H88        19.8741  -25.8641  -40.6807 H         1 UNK         0.0847 
     89 H89        20.1362  -26.5224  -39.0719 H         1 UNK         0.0847 
     90 H90        22.7265  -25.8109  -42.0848 H         1 UNK         0.3040 
     91 H91        24.3051  -24.5185  -40.0544 H         1 UNK         0.1015 
     92 H92        25.4743  -23.5065  -41.9941 H         1 UNK         0.0786 
     93 H93        23.7369  -23.4524  -42.2490 H         1 UNK         0.0786 
     94 H94        24.7176  -24.6511  -43.0921 H         1 UNK         0.0786 
     95 H95        24.7031  -27.4812  -41.8809 H         1 UNK         0.3172 
     96 H96        27.4992  -27.8807  -40.9128 H         1 UNK         0.0595 
     97 H97        25.8282  -29.4466  -42.9567 H         1 UNK         0.0839 
     98 H98        27.5097  -29.7481  -42.5451 H         1 UNK         0.0839 
     99 H99        27.0667  -28.2560  -43.3560 H         1 UNK         0.0839 
    100 H100       24.4235  -28.2869  -39.7918 H         1 UNK         0.2998 
    101 H101       23.2402  -29.5936  -38.4765 H         1 UNK         0.0822 
    102 H102       25.1383  -29.2274  -36.8810 H         1 UNK         0.0787 
    103 H103       24.3525  -30.7751  -36.6191 H         1 UNK         0.0787 
    104 H104       25.9014  -30.7133  -37.4465 H         1 UNK         0.0787 
    105 H105       23.5212  -30.4900  -41.1267 H         1 UNK         0.3055 
    106 H106       23.7450  -33.4652  -40.9689 H         1 UNK         0.1106 
    107 H107       23.9894  -31.5060  -43.3237 H         1 UNK         0.0828 
    108 H108       24.1728  -33.2522  -43.4293 H         1 UNK         0.0828 
    109 H109       25.3307  -32.3046  -42.5111 H         1 UNK         0.0828 
    110 H110       22.3012  -34.6844  -42.3247 H         1 UNK         0.2931 
    111 H111       20.0794  -33.5701  -43.6346 H         1 UNK         0.0412 
    112 H112       20.2926  -36.6053  -45.4488 H         1 UNK         0.3472 
    113 H113       19.6733  -34.9774  -45.3827 H         1 UNK         0.3472 
    114 H114       19.4090  -35.1919  -41.1135 H         1 UNK         0.0970 
    115 H115       19.0771  -33.4971  -41.3325 H         1 UNK         0.0970 
    116 H116       16.4715  -33.1624  -41.3108 H         1 UNK         0.0612 
    117 H117       15.5690  -33.5121  -42.7657 H         1 UNK         0.0612 
@<TRIPOS>BOND
     1    1    2 1    
     2    1   62 1    
     3    1   63 1    
     4    1   64 1    
     5    2    3 2    
     6    2    4 am   BACKBONE|DICT|INTERRES
     7    4    5 1    
     8    4   65 1    
     9    5    6 1    
    10    5   25 1    
    11    5   66 1    
    12    6    7 1    
    13    6   67 1    
    14    6   68 1    
    15    7    8 1    
    16    8    9 1    
    17    8   69 1    
    18    8   70 1    
    19    9   10 ar   
    20    9   14 ar   
    21   10   11 ar   
    22   10   71 1    
    23   11   12 ar   
    24   11   61 1    
    25   12   13 ar   
    26   12   72 1    
    27   13   14 ar   
    28   13   15 1    
    29   14   73 1    
    30   15   16 1    
    31   15   74 1    
    32   15   75 1    
    33   16   17 1    
    34   17   18 1    
    35   17   76 1    
    36   17   77 1    
    37   18   19 1    
    38   18   27 1    
    39   18   78 1    
    40   19   20 am   BACKBONE|DICT|INTERRES
    41   19   79 1    
    42   20   21 2    
    43   20   22 1    
    44   22   23 1    
    45   22   24 1    
    46   22   80 1    
    47   23   81 1    
    48   23   82 1    
    49   23   83 1    
    50   24   25 am   BACKBONE|DICT|INTERRES
    51   24   84 1    
    52   25   26 2    
    53   27   28 2    
    54   27   29 am   BACKBONE|DICT|INTERRES
    55   29   30 1    
    56   29   85 1    
    57   30   31 1    
    58   30   32 1    
    59   30   86 1    
    60   31   87 1    
    61   31   88 1    
    62   31   89 1    
    63   32   33 2    
    64   32   34 am   BACKBONE|DICT|INTERRES
    65   34   35 1    
    66   34   90 1    
    67   35   36 1    
    68   35   37 1    
    69   35   91 1    
    70   36   92 1    
    71   36   93 1    
    72   36   94 1    
    73   37   38 2    
    74   37   39 am   BACKBONE|DICT|INTERRES
    75   39   40 1    
    76   39   95 1    
    77   40   41 1    
    78   40   42 1    
    79   40   96 1    
    80   41   97 1    
    81   41   98 1    
    82   41   99 1    
    83   42   43 2    
    84   42   44 am   BACKBONE|DICT|INTERRES
    85   44   45 1    
    86   44  100 1    
    87   45   46 1    
    88   45   47 1    
    89   45  101 1    
    90   46  102 1    
    91   46  103 1    
    92   46  104 1    
    93   47   48 2    
    94   47   49 am   BACKBONE|DICT|INTERRES
    95   49   50 1    
    96   49  105 1    
    97   50   51 1    
    98   50   52 1    
    99   50  106 1    
   100   51  107 1    
   101   51  108 1    
   102   51  109 1    
   103   52   53 2    
   104   52   54 am   BACKBONE|DICT|INTERRES
   105   54   55 1    
   106   54  110 1    
   107   55   56 1    
   108   55   59 1    
   109   55  111 1    
   110   56   57 am   BACKBONE|DICT|INTERRES
   111   56   58 2    
   112   57  112 1    
   113   57  113 1    
   114   59   60 1    
   115   59  114 1    
   116   59  115 1    
   117   60   61 1    
   118   61  116 1    
   119   61  117 1    
@<TRIPOS>SUBSTRUCTURE
     1 UNK         1 GROUP             0       ****    0 ROOT    
