@<TRIPOS>MOLECULE
3R8
117   119    1
SMALL
USER_CHARGES


@<TRIPOS>ATOM
      1 CA         20.2494  -22.8113  -47.6212 C.3       0 UNK        -0.2013 
      2 C          18.9769  -23.4738  -48.1449 C.2       0 UNK         0.4866 
      3 O          18.2089  -22.8254  -48.8532 O.2       0 UNK        -0.5176 
      4 N          18.7105  -24.7537  -47.8466 N.am      1 UNK        -0.4884 
      5 CA         19.4687  -25.6328  -46.9487 C.3       1 UNK         0.0853 
      6 C6         19.0760  -27.1127  -47.1726 C.3       10 UNK        -0.0849 
      7 S7         20.3740  -28.2789  -46.6388 S.3       10 UNK        -0.2776 
      8 C8         19.4619  -29.8564  -46.6612 C.3       10 UNK         0.0316 
      9 C9         18.7644  -30.1188  -45.3346 C.ar      10 UNK        -0.0863 
     10 C10        19.4083  -30.8601  -44.3409 C.ar      10 UNK        -0.1009 
     11 C11        18.7856  -31.0948  -43.1116 C.ar      10 UNK        -0.0712 
     12 C12        17.5064  -30.5824  -42.8757 C.ar      10 UNK        -0.0894 
     13 C13        16.8641  -29.8167  -43.8542 C.ar      10 UNK        -0.0745 
     14 C14        17.4846  -29.6145  -45.0900 C.ar      10 UNK        -0.0972 
     15 C15        15.5211  -29.1616  -43.5726 C.3       10 UNK         0.0209 
     16 S16        15.7166  -27.3691  -43.2935 S.3       10 UNK        -0.2568 
     17 C17        16.3803  -27.3151  -41.5948 C.3       10 UNK        -0.0983 
     18 CA         17.9282  -27.3337  -41.5259 C.3       3 UNK         0.0876 
     19 N          18.5580  -26.2310  -42.2574 N.am      3 UNK        -0.4424 
     20 C          19.8802  -26.0951  -42.4190 C.2       2 UNK         0.4918 
     21 O          20.7080  -26.8856  -41.9598 O.2       2 UNK        -0.4875 
     22 CA         20.3509  -24.9051  -43.2702 C.3       2 UNK         0.0481 
     23 CB         21.7682  -24.4352  -42.8949 C.3       2 UNK        -0.1831 
     24 N          20.3397  -25.2722  -44.6842 N.am      2 UNK        -0.4498 
     25 C          19.2646  -25.2109  -45.4779 C.2       1 UNK         0.5027 
     26 O          18.1538  -24.8314  -45.0978 O.2       1 UNK        -0.4969 
     27 C          18.4018  -27.3902  -40.0594 C.2       3 UNK         0.5005 
     28 O          18.3171  -26.3828  -39.3533 O.2       3 UNK        -0.5279 
     29 N          18.9012  -28.5662  -39.6524 N.am      4 UNK        -0.4463 
     30 CA         19.4917  -28.8917  -38.3477 C.3       4 UNK         0.0283 
     31 CB         18.4728  -28.6987  -37.2040 C.3       4 UNK        -0.1875 
     32 C          20.8390  -28.1922  -38.0656 C.2       4 UNK         0.4949 
     33 O          21.2750  -28.1865  -36.9134 O.2       4 UNK        -0.5039 
     34 N          21.4872  -27.6385  -39.0999 N.am      5 UNK        -0.4663 
     35 CA         22.7822  -26.9575  -39.0019 C.3       5 UNK         0.0242 
     36 CB         22.5591  -25.4370  -39.0161 C.3       5 UNK        -0.1982 
     37 C          23.7705  -27.3871  -40.0984 C.2       5 UNK         0.5017 
     38 O          24.9773  -27.3424  -39.8537 O.2       5 UNK        -0.5012 
     39 N          23.2678  -27.7917  -41.2741 N.am      6 UNK        -0.4439 
     40 CA         24.0486  -28.3239  -42.3933 C.3       6 UNK         0.0297 
     41 CB         23.1122  -28.5408  -43.5957 C.3       6 UNK        -0.2006 
     42 C          24.7701  -29.6370  -42.0415 C.2       6 UNK         0.4892 
     43 O          24.2872  -30.4064  -41.2088 O.2       6 UNK        -0.5089 
     44 N          25.8899  -29.8968  -42.7304 N.am      7 UNK        -0.4243 
     45 CA         26.7329  -31.0880  -42.5549 C.3       7 UNK         0.0196 
     46 CB         28.0045  -30.9322  -43.4052 C.3       7 UNK        -0.2007 
     47 C          26.0324  -32.4234  -42.8751 C.2       7 UNK         0.5020 
     48 O          26.4842  -33.4684  -42.4068 O.2       7 UNK        -0.5147 
     49 N          24.9460  -32.3698  -43.6568 N.am      8 UNK        -0.4734 
     50 CA         24.0793  -33.5084  -43.9637 C.3       8 UNK         0.0238 
     51 CB         23.2117  -33.1559  -45.1839 C.3       8 UNK        -0.1912 
     52 C          23.1884  -33.9414  -42.7833 C.2       8 UNK         0.5038 
     53 O          22.7176  -35.0799  -42.7872 O.2       8 UNK        -0.5046 
     54 N          22.9446  -33.0410  -41.8214 N.am      9 UNK        -0.4200 
     55 CA         22.0976  -33.2894  -40.6474 C.3       9 UNK         0.0839 
     56 C          22.8176  -34.1423  -39.5694 C.2       9 UNK         0.5513 
     57 N          22.0675  -34.9003  -38.7809 N.am      9 UNK        -0.7519 
     58 O          24.0359  -34.0974  -39.4122 O.2       9 UNK        -0.4960 
     59 C59        21.5472  -31.9710  -40.0383 C.3       10 UNK        -0.0876 
     60 S60        20.7742  -30.8317  -41.2401 S.3       10 UNK        -0.2414 
     61 C61        19.5179  -31.8775  -42.0364 C.3       10 UNK         0.0169 
     62 H62        20.1980  -22.6644  -46.5430 H         1 UNK         0.0903 
     63 H63        21.1332  -23.4019  -47.8585 H         1 UNK         0.0903 
     64 H64        20.3819  -21.8314  -48.0797 H         1 UNK         0.0903 
     65 H65        17.8450  -25.1444  -48.1907 H         1 UNK         0.3096 
     66 H66        20.5252  -25.5258  -47.2016 H         1 UNK         0.1121 
     67 H67        18.1298  -27.3393  -46.6816 H         1 UNK         0.0849 
     68 H68        18.9116  -27.2987  -48.2356 H         1 UNK         0.0849 
     69 H69        18.7412  -29.8639  -47.4805 H         1 UNK         0.0865 
     70 H70        20.1657  -30.6627  -46.8740 H         1 UNK         0.0865 
     71 H71        20.4045  -31.2424  -44.5151 H         1 UNK         0.1346 
     72 H72        17.0281  -30.7457  -41.9195 H         1 UNK         0.1412 
     73 H73        16.9755  -29.0360  -45.8475 H         1 UNK         0.1426 
     74 H74        15.0267  -29.6228  -42.7164 H         1 UNK         0.0716 
     75 H75        14.8596  -29.3152  -44.4265 H         1 UNK         0.0716 
     76 H76        15.9611  -28.1518  -41.0325 H         1 UNK         0.0695 
     77 H77        15.9946  -26.4119  -41.1181 H         1 UNK         0.0695 
     78 H78        18.2815  -28.2371  -42.0203 H         1 UNK         0.0983 
     79 H79        17.9364  -25.5759  -42.7109 H         1 UNK         0.3095 
     80 H80        19.6707  -24.0670  -43.1034 H         1 UNK         0.0454 
     81 H81        22.5044  -25.2368  -42.9666 H         1 UNK         0.0851 
     82 H82        21.7915  -24.0563  -41.8742 H         1 UNK         0.0851 
     83 H83        22.0988  -23.6216  -43.5405 H         1 UNK         0.0851 
     84 H84        21.1988  -25.6547  -45.0529 H         1 UNK         0.2976 
     85 H85        18.9720  -29.3099  -40.3354 H         1 UNK         0.3116 
     86 H86        19.7228  -29.9567  -38.3910 H         1 UNK         0.0646 
     87 H87        18.2555  -27.6453  -37.0261 H         1 UNK         0.0847 
     88 H88        18.8525  -29.1105  -36.2683 H         1 UNK         0.0847 
     89 H89        17.5320  -29.2051  -37.4190 H         1 UNK         0.0847 
     90 H90        21.0526  -27.6648  -40.0143 H         1 UNK         0.3040 
     91 H91        23.2653  -27.2161  -38.0568 H         1 UNK         0.1015 
     92 H92        21.9848  -25.1282  -39.8876 H         1 UNK         0.0786 
     93 H93        23.5064  -24.8961  -39.0316 H         1 UNK         0.0786 
     94 H94        22.0141  -25.1130  -38.1293 H         1 UNK         0.0786 
     95 H95        22.2686  -27.7099  -41.4362 H         1 UNK         0.3172 
     96 H96        24.7974  -27.5757  -42.6609 H         1 UNK         0.0595 
     97 H97        23.6572  -28.9152  -44.4629 H         1 UNK         0.0839 
     98 H98        22.6302  -27.6117  -43.8989 H         1 UNK         0.0839 
     99 H99        22.3248  -29.2613  -43.3696 H         1 UNK         0.0839 
    100 H100       26.2079  -29.2188  -43.4087 H         1 UNK         0.2998 
    101 H101       27.0262  -31.1280  -41.5036 H         1 UNK         0.0822 
    102 H102       28.6697  -31.7870  -43.2738 H         1 UNK         0.0787 
    103 H103       27.7725  -30.8609  -44.4687 H         1 UNK         0.0787 
    104 H104       28.5665  -30.0421  -43.1218 H         1 UNK         0.0787 
    105 H105       24.6574  -31.4676  -44.0051 H         1 UNK         0.3055 
    106 H106       24.7095  -34.3623  -44.2233 H         1 UNK         0.1106 
    107 H107       22.5589  -33.9876  -45.4534 H         1 UNK         0.0828 
    108 H108       22.5752  -32.2918  -44.9908 H         1 UNK         0.0828 
    109 H109       23.8255  -32.9334  -46.0569 H         1 UNK         0.0828 
    110 H110       23.4104  -32.1403  -41.8415 H         1 UNK         0.2931 
    111 H111       21.2416  -33.8771  -40.9831 H         1 UNK         0.0412 
    112 H112       21.0664  -34.9433  -38.8941 H         1 UNK         0.3472 
    113 H113       22.5131  -35.4517  -38.0637 H         1 UNK         0.3472 
    114 H114       20.8141  -32.1918  -39.2606 H         1 UNK         0.0970 
    115 H115       22.3510  -31.4207  -39.5450 H         1 UNK         0.0970 
    116 H116       18.8237  -32.2545  -41.2839 H         1 UNK         0.0612 
    117 H117       19.9903  -32.7453  -42.4972 H         1 UNK         0.0612 
@<TRIPOS>BOND
     1    1    2 1    
     2    1   62 1    
     3    1   63 1    
     4    1   64 1    
     5    2    3 2    
     6    2    4 am   BACKBONE|DICT|INTERRES
     7    4    5 1    
     8    4   65 1    
     9    5    6 1    
    10    5   25 1    
    11    5   66 1    
    12    6    7 1    
    13    6   67 1    
    14    6   68 1    
    15    7    8 1    
    16    8    9 1    
    17    8   69 1    
    18    8   70 1    
    19    9   10 ar   
    20    9   14 ar   
    21   10   11 ar   
    22   10   71 1    
    23   11   12 ar   
    24   11   61 1    
    25   12   13 ar   
    26   12   72 1    
    27   13   14 ar   
    28   13   15 1    
    29   14   73 1    
    30   15   16 1    
    31   15   74 1    
    32   15   75 1    
    33   16   17 1    
    34   17   18 1    
    35   17   76 1    
    36   17   77 1    
    37   18   19 1    
    38   18   27 1    
    39   18   78 1    
    40   19   20 am   BACKBONE|DICT|INTERRES
    41   19   79 1    
    42   20   21 2    
    43   20   22 1    
    44   22   23 1    
    45   22   24 1    
    46   22   80 1    
    47   23   81 1    
    48   23   82 1    
    49   23   83 1    
    50   24   25 am   BACKBONE|DICT|INTERRES
    51   24   84 1    
    52   25   26 2    
    53   27   28 2    
    54   27   29 am   BACKBONE|DICT|INTERRES
    55   29   30 1    
    56   29   85 1    
    57   30   31 1    
    58   30   32 1    
    59   30   86 1    
    60   31   87 1    
    61   31   88 1    
    62   31   89 1    
    63   32   33 2    
    64   32   34 am   BACKBONE|DICT|INTERRES
    65   34   35 1    
    66   34   90 1    
    67   35   36 1    
    68   35   37 1    
    69   35   91 1    
    70   36   92 1    
    71   36   93 1    
    72   36   94 1    
    73   37   38 2    
    74   37   39 am   BACKBONE|DICT|INTERRES
    75   39   40 1    
    76   39   95 1    
    77   40   41 1    
    78   40   42 1    
    79   40   96 1    
    80   41   97 1    
    81   41   98 1    
    82   41   99 1    
    83   42   43 2    
    84   42   44 am   BACKBONE|DICT|INTERRES
    85   44   45 1    
    86   44  100 1    
    87   45   46 1    
    88   45   47 1    
    89   45  101 1    
    90   46  102 1    
    91   46  103 1    
    92   46  104 1    
    93   47   48 2    
    94   47   49 am   BACKBONE|DICT|INTERRES
    95   49   50 1    
    96   49  105 1    
    97   50   51 1    
    98   50   52 1    
    99   50  106 1    
   100   51  107 1    
   101   51  108 1    
   102   51  109 1    
   103   52   53 2    
   104   52   54 am   BACKBONE|DICT|INTERRES
   105   54   55 1    
   106   54  110 1    
   107   55   56 1    
   108   55   59 1    
   109   55  111 1    
   110   56   57 am   BACKBONE|DICT|INTERRES
   111   56   58 2    
   112   57  112 1    
   113   57  113 1    
   114   59   60 1    
   115   59  114 1    
   116   59  115 1    
   117   60   61 1    
   118   61  116 1    
   119   61  117 1    
@<TRIPOS>SUBSTRUCTURE
     1 UNK         1 GROUP             0       ****    0 ROOT    
