@<TRIPOS>MOLECULE
3R8
117   119    1
SMALL
USER_CHARGES


@<TRIPOS>ATOM
      1 CA         21.1951  -25.3450  -38.7531 C.3       0 UNK        -0.2013 
      2 C          20.0857  -25.4059  -39.7928 C.2       0 UNK         0.4866 
      3 O          19.3322  -24.4431  -39.9404 O.2       0 UNK        -0.5176 
      4 N          19.9769  -26.5312  -40.5089 N.am      1 UNK        -0.4884 
      5 CA         19.0270  -26.7491  -41.6052 C.3       1 UNK         0.0853 
      6 C6         18.8816  -28.2619  -41.9413 C.3       10 UNK        -0.0849 
      7 S7         17.1492  -28.8261  -41.8477 S.3       10 UNK        -0.2776 
      8 C8         16.6811  -29.0283  -43.6031 C.3       10 UNK         0.0316 
      9 C9         17.5309  -30.0320  -44.3802 C.ar      10 UNK        -0.0863 
     10 C10        18.0096  -31.2054  -43.7845 C.ar      10 UNK        -0.1009 
     11 C11        18.7791  -32.1138  -44.5165 C.ar      10 UNK        -0.0712 
     12 C12        19.0620  -31.8499  -45.8587 C.ar      10 UNK        -0.0894 
     13 C13        18.5902  -30.6856  -46.4704 C.ar      10 UNK        -0.0745 
     14 C14        17.8154  -29.7876  -45.7278 C.ar      10 UNK        -0.0972 
     15 C15        18.9211  -30.4188  -47.9353 C.3       10 UNK         0.0209 
     16 S16        19.5323  -28.7305  -48.2568 S.3       10 UNK        -0.2568 
     17 C17        20.9815  -28.6144  -47.1508 C.3       10 UNK        -0.0983 
     18 CA         21.2165  -27.1547  -46.6920 C.3       3 UNK         0.0876 
     19 N          20.0875  -26.6202  -45.9350 N.am      3 UNK        -0.4424 
     20 C          19.7355  -25.3294  -45.9162 C.2       2 UNK         0.4918 
     21 O          20.2946  -24.4587  -46.5843 O.2       2 UNK        -0.4875 
     22 CA         18.5735  -24.9303  -44.9854 C.3       2 UNK         0.0481 
     23 CB         17.2433  -24.9749  -45.7543 C.3       2 UNK        -0.1831 
     24 N          18.4480  -25.7287  -43.7584 N.am      2 UNK        -0.4498 
     25 C          19.4165  -25.9279  -42.8528 C.2       1 UNK         0.5027 
     26 O          20.5720  -25.5209  -42.9913 O.2       1 UNK        -0.4969 
     27 C          22.4948  -27.0151  -45.8452 C.2       3 UNK         0.5005 
     28 O          22.7215  -27.8203  -44.9393 O.2       3 UNK        -0.5279 
     29 N          23.2967  -25.9851  -46.1556 N.am      4 UNK        -0.4463 
     30 CA         24.6639  -25.7360  -45.6734 C.3       4 UNK         0.0283 
     31 CB         25.6237  -26.7946  -46.2588 C.3       4 UNK        -0.1875 
     32 C          24.8257  -25.5985  -44.1439 C.2       4 UNK         0.4949 
     33 O          25.9300  -25.8089  -43.6398 O.2       4 UNK        -0.5039 
     34 N          23.7431  -25.2458  -43.4332 N.am      5 UNK        -0.4663 
     35 CA         23.6556  -25.1267  -41.9700 C.3       5 UNK         0.0242 
     36 CB         24.5374  -23.9700  -41.4505 C.3       5 UNK        -0.1982 
     37 C          23.9119  -26.4591  -41.2347 C.2       5 UNK         0.5017 
     38 O          24.4315  -26.4446  -40.1169 O.2       5 UNK        -0.5012 
     39 N          23.5507  -27.5858  -41.8696 N.am      6 UNK        -0.4439 
     40 CA         23.6856  -28.9387  -41.3221 C.3       6 UNK         0.0297 
     41 CB         23.2761  -29.9585  -42.3977 C.3       6 UNK        -0.2006 
     42 C          22.8334  -29.1390  -40.0593 C.2       6 UNK         0.4892 
     43 O          21.7054  -28.6456  -40.0044 O.2       6 UNK        -0.5089 
     44 N          23.3531  -29.8984  -39.0871 N.am      7 UNK        -0.4243 
     45 CA         22.6747  -30.2353  -37.8295 C.3       7 UNK         0.0196 
     46 CB         23.7333  -30.6235  -36.7805 C.3       7 UNK        -0.2007 
     47 C          21.6166  -31.3365  -38.0378 C.2       7 UNK         0.5020 
     48 O          21.7654  -32.4462  -37.5228 O.2       7 UNK        -0.5147 
     49 N          20.6047  -31.0275  -38.8628 N.am      8 UNK        -0.4734 
     50 CA         19.5201  -31.9051  -39.3340 C.3       8 UNK         0.0238 
     51 CB         18.5591  -32.2416  -38.1748 C.3       8 UNK        -0.1912 
     52 C          20.0189  -33.1695  -40.0685 C.2       8 UNK         0.5038 
     53 O          19.2996  -34.1681  -40.1257 O.2       8 UNK        -0.5046 
     54 N          21.2469  -33.0991  -40.6008 N.am      9 UNK        -0.4200 
     55 CA         22.0113  -34.1971  -41.2138 C.3       9 UNK         0.0839 
     56 C          22.3994  -35.3369  -40.2220 C.2       9 UNK         0.5513 
     57 N          22.3953  -35.1056  -38.9134 N.am      9 UNK        -0.7519 
     58 O          22.7412  -36.4399  -40.6413 O.2       9 UNK        -0.4960 
     59 C59        21.3847  -34.7220  -42.5368 C.3       10 UNK        -0.0876 
     60 S60        21.1127  -33.3803  -43.7446 S.3       10 UNK        -0.2414 
     61 C61        19.2971  -33.3843  -43.8612 C.3       10 UNK         0.0169 
     62 H62        20.7763  -25.1437  -37.7676 H         1 UNK         0.0903 
     63 H63        21.7557  -26.2779  -38.6976 H         1 UNK         0.0903 
     64 H64        21.8946  -24.5459  -38.9971 H         1 UNK         0.0903 
     65 H65        20.6397  -27.2898  -40.3456 H         1 UNK         0.3096 
     66 H66        18.0673  -26.3579  -41.2595 H         1 UNK         0.1121 
     67 H67        19.4291  -28.8742  -41.2250 H         1 UNK         0.0849 
     68 H68        19.3163  -28.5246  -42.9081 H         1 UNK         0.0849 
     69 H69        15.6418  -29.3565  -43.6459 H         1 UNK         0.0865 
     70 H70        16.7101  -28.0516  -44.0865 H         1 UNK         0.0865 
     71 H71        17.7834  -31.4145  -42.7483 H         1 UNK         0.1346 
     72 H72        19.6590  -32.5539  -46.4226 H         1 UNK         0.1412 
     73 H73        17.4387  -28.8929  -46.2048 H         1 UNK         0.1426 
     74 H74        18.0240  -30.5864  -48.5325 H         1 UNK         0.0716 
     75 H75        19.6690  -31.1261  -48.2972 H         1 UNK         0.0716 
     76 H76        21.8503  -28.9917  -47.6933 H         1 UNK         0.0695 
     77 H77        20.8515  -29.2689  -46.2874 H         1 UNK         0.0695 
     78 H78        21.3469  -26.5607  -47.6000 H         1 UNK         0.0983 
     79 H79        19.6048  -27.2696  -45.3340 H         1 UNK         0.3095 
     80 H80        18.7512  -23.8986  -44.6756 H         1 UNK         0.0454 
     81 H81        16.9875  -25.9898  -46.0616 H         1 UNK         0.0851 
     82 H82        17.2943  -24.3658  -46.6580 H         1 UNK         0.0851 
     83 H83        16.4210  -24.5866  -45.1533 H         1 UNK         0.0851 
     84 H84        17.5275  -26.0914  -43.5582 H         1 UNK         0.2976 
     85 H85        22.9667  -25.3332  -46.8556 H         1 UNK         0.3116 
     86 H86        24.9537  -24.7686  -46.0859 H         1 UNK         0.0646 
     87 H87        25.5296  -26.8623  -47.3425 H         1 UNK         0.0847 
     88 H88        25.4316  -27.7843  -45.8425 H         1 UNK         0.0847 
     89 H89        26.6643  -26.5482  -46.0442 H         1 UNK         0.0847 
     90 H90        22.8664  -25.1355  -43.9272 H         1 UNK         0.3040 
     91 H91        22.6254  -24.8590  -41.7389 H         1 UNK         0.1015 
     92 H92        25.6004  -24.1881  -41.5563 H         1 UNK         0.0786 
     93 H93        24.3504  -23.7819  -40.3925 H         1 UNK         0.0786 
     94 H94        24.3294  -23.0423  -41.9834 H         1 UNK         0.0786 
     95 H95        23.1445  -27.5088  -42.7962 H         1 UNK         0.3172 
     96 H96        24.7365  -29.0938  -41.0703 H         1 UNK         0.0595 
     97 H97        22.2333  -29.8350  -42.6953 H         1 UNK         0.0839 
     98 H98        23.3947  -30.9821  -42.0403 H         1 UNK         0.0839 
     99 H99        23.8891  -29.8575  -43.2937 H         1 UNK         0.0839 
    100 H100       24.2744  -30.2916  -39.2178 H         1 UNK         0.2998 
    101 H101       22.1526  -29.3490  -37.4614 H         1 UNK         0.0822 
    102 H102       24.4335  -29.8070  -36.6030 H         1 UNK         0.0787 
    103 H103       23.2658  -30.8607  -35.8237 H         1 UNK         0.0787 
    104 H104       24.3080  -31.4981  -37.0883 H         1 UNK         0.0787 
    105 H105       20.6342  -30.0978  -39.2745 H         1 UNK         0.3055 
    106 H106       18.9590  -31.3327  -40.0750 H         1 UNK         0.1106 
    107 H107       19.0378  -32.8698  -37.4230 H         1 UNK         0.0828 
    108 H108       17.6807  -32.7783  -38.5353 H         1 UNK         0.0828 
    109 H109       18.2026  -31.3381  -37.6804 H         1 UNK         0.0828 
    110 H110       21.7497  -32.2333  -40.4859 H         1 UNK         0.2931 
    111 H111       22.9681  -33.7475  -41.4823 H         1 UNK         0.0412 
    112 H112       22.6584  -35.8467  -38.2833 H         1 UNK         0.3472 
    113 H113       22.1286  -34.2006  -38.5409 H         1 UNK         0.3472 
    114 H114       20.4518  -35.2517  -42.3379 H         1 UNK         0.0970 
    115 H115       22.0469  -35.4514  -43.0065 H         1 UNK         0.0970 
    116 H116       18.9748  -34.2521  -44.4382 H         1 UNK         0.0612 
    117 H117       18.8687  -33.4967  -42.8645 H         1 UNK         0.0612 
@<TRIPOS>BOND
     1    1    2 1    
     2    1   62 1    
     3    1   63 1    
     4    1   64 1    
     5    2    3 2    
     6    2    4 am   BACKBONE|DICT|INTERRES
     7    4    5 1    
     8    4   65 1    
     9    5    6 1    
    10    5   25 1    
    11    5   66 1    
    12    6    7 1    
    13    6   67 1    
    14    6   68 1    
    15    7    8 1    
    16    8    9 1    
    17    8   69 1    
    18    8   70 1    
    19    9   10 ar   
    20    9   14 ar   
    21   10   11 ar   
    22   10   71 1    
    23   11   12 ar   
    24   11   61 1    
    25   12   13 ar   
    26   12   72 1    
    27   13   14 ar   
    28   13   15 1    
    29   14   73 1    
    30   15   16 1    
    31   15   74 1    
    32   15   75 1    
    33   16   17 1    
    34   17   18 1    
    35   17   76 1    
    36   17   77 1    
    37   18   19 1    
    38   18   27 1    
    39   18   78 1    
    40   19   20 am   BACKBONE|DICT|INTERRES
    41   19   79 1    
    42   20   21 2    
    43   20   22 1    
    44   22   23 1    
    45   22   24 1    
    46   22   80 1    
    47   23   81 1    
    48   23   82 1    
    49   23   83 1    
    50   24   25 am   BACKBONE|DICT|INTERRES
    51   24   84 1    
    52   25   26 2    
    53   27   28 2    
    54   27   29 am   BACKBONE|DICT|INTERRES
    55   29   30 1    
    56   29   85 1    
    57   30   31 1    
    58   30   32 1    
    59   30   86 1    
    60   31   87 1    
    61   31   88 1    
    62   31   89 1    
    63   32   33 2    
    64   32   34 am   BACKBONE|DICT|INTERRES
    65   34   35 1    
    66   34   90 1    
    67   35   36 1    
    68   35   37 1    
    69   35   91 1    
    70   36   92 1    
    71   36   93 1    
    72   36   94 1    
    73   37   38 2    
    74   37   39 am   BACKBONE|DICT|INTERRES
    75   39   40 1    
    76   39   95 1    
    77   40   41 1    
    78   40   42 1    
    79   40   96 1    
    80   41   97 1    
    81   41   98 1    
    82   41   99 1    
    83   42   43 2    
    84   42   44 am   BACKBONE|DICT|INTERRES
    85   44   45 1    
    86   44  100 1    
    87   45   46 1    
    88   45   47 1    
    89   45  101 1    
    90   46  102 1    
    91   46  103 1    
    92   46  104 1    
    93   47   48 2    
    94   47   49 am   BACKBONE|DICT|INTERRES
    95   49   50 1    
    96   49  105 1    
    97   50   51 1    
    98   50   52 1    
    99   50  106 1    
   100   51  107 1    
   101   51  108 1    
   102   51  109 1    
   103   52   53 2    
   104   52   54 am   BACKBONE|DICT|INTERRES
   105   54   55 1    
   106   54  110 1    
   107   55   56 1    
   108   55   59 1    
   109   55  111 1    
   110   56   57 am   BACKBONE|DICT|INTERRES
   111   56   58 2    
   112   57  112 1    
   113   57  113 1    
   114   59   60 1    
   115   59  114 1    
   116   59  115 1    
   117   60   61 1    
   118   61  116 1    
   119   61  117 1    
@<TRIPOS>SUBSTRUCTURE
     1 UNK         1 GROUP             0       ****    0 ROOT    
