@<TRIPOS>MOLECULE
3R8
117   119    1
SMALL
USER_CHARGES


@<TRIPOS>ATOM
      1 CA         23.4750  -24.9206  -45.5874 C.3       0 UNK        -0.2013 
      2 C          21.9628  -24.9536  -45.4266 C.2       0 UNK         0.4866 
      3 O          21.3495  -23.9101  -45.2023 O.2       0 UNK        -0.5176 
      4 N          21.3644  -26.1471  -45.5397 N.am      1 UNK        -0.4884 
      5 CA         19.9336  -26.4178  -45.3653 C.3       1 UNK         0.0853 
      6 C6         19.0526  -25.7879  -46.4876 C.3       10 UNK        -0.0849 
      7 S7         17.3011  -26.3315  -46.5398 S.3       10 UNK        -0.2776 
      8 C8         17.3337  -27.8323  -47.5689 C.3       10 UNK         0.0316 
      9 C9         17.6158  -29.0790  -46.7418 C.ar      10 UNK        -0.0863 
     10 C10        18.8897  -29.6495  -46.7478 C.ar      10 UNK        -0.1009 
     11 C11        19.1572  -30.7976  -45.9987 C.ar      10 UNK        -0.0712 
     12 C12        18.1305  -31.4014  -45.2687 C.ar      10 UNK        -0.0894 
     13 C13        16.8478  -30.8422  -45.2519 C.ar      10 UNK        -0.0745 
     14 C14        16.5987  -29.6774  -45.9882 C.ar      10 UNK        -0.0972 
     15 C15        15.7291  -31.5083  -44.4558 C.3       10 UNK         0.0209 
     16 S16        16.1349  -31.7166  -42.6872 S.3       10 UNK        -0.2568 
     17 C17        16.1343  -29.9916  -42.0954 C.3       10 UNK        -0.0983 
     18 CA         17.5407  -29.3396  -42.1907 C.3       3 UNK         0.0876 
     19 N          17.4697  -27.9388  -42.5975 N.am      3 UNK        -0.4424 
     20 C          17.1584  -26.8665  -41.8552 C.2       2 UNK         0.4918 
     21 O          16.6586  -26.9285  -40.7320 O.2       2 UNK        -0.4875 
     22 CA         17.5258  -25.4887  -42.4567 C.3       2 UNK         0.0481 
     23 CB         18.2550  -24.6029  -41.4259 C.3       2 UNK        -0.1831 
     24 N          18.3017  -25.5738  -43.7077 N.am      2 UNK        -0.4498 
     25 C          19.4917  -26.1634  -43.9050 C.2       1 UNK         0.5027 
     26 O          20.1702  -26.6290  -42.9844 O.2       1 UNK        -0.4969 
     27 C          18.4582  -29.5670  -40.9627 C.2       3 UNK         0.5005 
     28 O          18.1923  -30.4666  -40.1632 O.2       3 UNK        -0.5279 
     29 N          19.5133  -28.7426  -40.8176 N.am      4 UNK        -0.4463 
     30 CA         20.3885  -28.7486  -39.6409 C.3       4 UNK         0.0283 
     31 CB         19.6374  -28.2089  -38.4051 C.3       4 UNK        -0.1875 
     32 C          21.7007  -27.9661  -39.8037 C.2       4 UNK         0.4949 
     33 O          22.6696  -28.3116  -39.1261 O.2       4 UNK        -0.5039 
     34 N          21.7247  -26.9099  -40.6312 N.am      5 UNK        -0.4663 
     35 CA         22.8122  -25.9221  -40.6498 C.3       5 UNK         0.0242 
     36 CB         22.3795  -24.6816  -41.4467 C.3       5 UNK        -0.1982 
     37 C          24.1478  -26.4647  -41.1772 C.2       5 UNK         0.5017 
     38 O          25.2002  -26.0686  -40.6745 O.2       5 UNK        -0.5012 
     39 N          24.0918  -27.3846  -42.1480 N.am      6 UNK        -0.4439 
     40 CA         25.2593  -28.0597  -42.7196 C.3       6 UNK         0.0297 
     41 CB         24.9527  -28.4566  -44.1744 C.3       6 UNK        -0.2006 
     42 C          25.6873  -29.2599  -41.8536 C.2       6 UNK         0.4892 
     43 O          25.6982  -30.3907  -42.3406 O.2       6 UNK        -0.5089 
     44 N          25.9997  -28.9931  -40.5759 N.am      7 UNK        -0.4243 
     45 CA         26.4394  -29.9450  -39.5449 C.3       7 UNK         0.0196 
     46 CB         27.8865  -30.4020  -39.8266 C.3       7 UNK        -0.2007 
     47 C          25.4629  -31.1261  -39.3753 C.2       7 UNK         0.5020 
     48 O          25.8465  -32.2803  -39.5688 O.2       7 UNK        -0.5147 
     49 N          24.1986  -30.7949  -39.0765 N.am      8 UNK        -0.4734 
     50 CA         23.0228  -31.6755  -38.9825 C.3       8 UNK         0.0238 
     51 CB         23.2605  -32.8891  -38.0584 C.3       8 UNK        -0.1912 
     52 C          22.4386  -32.0930  -40.3475 C.2       8 UNK         0.5038 
     53 O          21.3723  -32.7071  -40.3698 O.2       8 UNK        -0.5046 
     54 N          23.1080  -31.7351  -41.4526 N.am      9 UNK        -0.4200 
     55 CA         22.7172  -32.0198  -42.8423 C.3       9 UNK         0.0839 
     56 C          22.7305  -33.5319  -43.2251 C.2       9 UNK         0.5513 
     57 N          23.4590  -34.3802  -42.5085 N.am      9 UNK        -0.7519 
     58 O          22.0989  -33.9459  -44.1929 O.2       9 UNK        -0.4960 
     59 C59        21.4233  -31.2569  -43.2694 C.3       10 UNK        -0.0876 
     60 S60        21.6364  -30.4108  -44.8730 S.3       10 UNK        -0.2414 
     61 C61        20.5623  -31.3715  -45.9820 C.3       10 UNK         0.0169 
     62 H62        23.7812  -24.0091  -46.1003 H         1 UNK         0.0903 
     63 H63        23.9578  -24.9410  -44.6105 H         1 UNK         0.0903 
     64 H64        23.8356  -25.7673  -46.1707 H         1 UNK         0.0903 
     65 H65        21.9355  -26.9666  -45.6944 H         1 UNK         0.3096 
     66 H66        19.8518  -27.4980  -45.4721 H         1 UNK         0.1121 
     67 H67        19.4995  -25.9999  -47.4601 H         1 UNK         0.0849 
     68 H68        19.0606  -24.6999  -46.4019 H         1 UNK         0.0849 
     69 H69        16.3632  -27.9410  -48.0557 H         1 UNK         0.0865 
     70 H70        18.0606  -27.7209  -48.3750 H         1 UNK         0.0865 
     71 H71        19.6825  -29.1932  -47.3252 H         1 UNK         0.1346 
     72 H72        18.3312  -32.2985  -44.6988 H         1 UNK         0.1412 
     73 H73        15.6101  -29.2383  -45.9847 H         1 UNK         0.1426 
     74 H74        14.7966  -30.9490  -44.5452 H         1 UNK         0.0716 
     75 H75        15.5364  -32.4920  -44.8858 H         1 UNK         0.0716 
     76 H76        15.7457  -29.9558  -41.0761 H         1 UNK         0.0695 
     77 H77        15.4128  -29.4368  -42.6975 H         1 UNK         0.0695 
     78 H78        18.0826  -29.8151  -43.0072 H         1 UNK         0.0983 
     79 H79        17.8257  -27.7522  -43.5224 H         1 UNK         0.3095 
     80 H80        16.5842  -25.0021  -42.7142 H         1 UNK         0.0454 
     81 H81        19.1552  -25.0820  -41.0419 H         1 UNK         0.0851 
     82 H82        17.6135  -24.3923  -40.5695 H         1 UNK         0.0851 
     83 H83        18.5425  -23.6443  -41.8572 H         1 UNK         0.0851 
     84 H84        17.8018  -25.2846  -44.5406 H         1 UNK         0.2976 
     85 H85        19.6993  -28.0520  -41.5364 H         1 UNK         0.3116 
     86 H86        20.6635  -29.7849  -39.4474 H         1 UNK         0.0646 
     87 H87        18.7980  -28.8462  -38.1282 H         1 UNK         0.0847 
     88 H88        20.2932  -28.1578  -37.5346 H         1 UNK         0.0847 
     89 H89        19.2488  -27.2050  -38.5810 H         1 UNK         0.0847 
     90 H90        20.9422  -26.7120  -41.2457 H         1 UNK         0.3040 
     91 H91        22.9857  -25.6083  -39.6177 H         1 UNK         0.1015 
     92 H92        22.1660  -24.9237  -42.4868 H         1 UNK         0.0786 
     93 H93        23.1631  -23.9226  -41.4449 H         1 UNK         0.0786 
     94 H94        21.4880  -24.2238  -41.0187 H         1 UNK         0.0786 
     95 H95        23.1810  -27.6824  -42.4674 H         1 UNK         0.3172 
     96 H96        26.1012  -27.3645  -42.7447 H         1 UNK         0.0595 
     97 H97        24.1357  -29.1735  -44.2314 H         1 UNK         0.0839 
     98 H98        25.8221  -28.9191  -44.6436 H         1 UNK         0.0839 
     99 H99        24.6853  -27.5900  -44.7768 H         1 UNK         0.0839 
    100 H100       25.9149  -28.0260  -40.2806 H         1 UNK         0.2998 
    101 H101       26.4412  -29.4047  -38.5968 H         1 UNK         0.0822 
    102 H102       28.2513  -31.0552  -39.0329 H         1 UNK         0.0787 
    103 H103       27.9616  -30.9550  -40.7637 H         1 UNK         0.0787 
    104 H104       28.5664  -29.5520  -39.8843 H         1 UNK         0.0787 
    105 H105       23.9742  -29.8058  -38.9910 H         1 UNK         0.3055 
    106 H106       22.2546  -31.0713  -38.5005 H         1 UNK         0.1106 
    107 H107       22.3212  -33.4011  -37.8453 H         1 UNK         0.0828 
    108 H108       23.9266  -33.6254  -38.5080 H         1 UNK         0.0828 
    109 H109       23.6866  -32.5858  -37.1022 H         1 UNK         0.0828 
    110 H110       24.0056  -31.2774  -41.3497 H         1 UNK         0.2931 
    111 H111       23.5483  -31.6090  -43.4155 H         1 UNK         0.0412 
    112 H112       23.4731  -35.3557  -42.7618 H         1 UNK         0.3472 
    113 H113       23.9990  -34.0526  -41.7229 H         1 UNK         0.3472 
    114 H114       21.1838  -30.4772  -42.5456 H         1 UNK         0.0970 
    115 H115       20.5496  -31.9110  -43.2830 H         1 UNK         0.0970 
    116 H116       20.9794  -31.3367  -46.9895 H         1 UNK         0.0612 
    117 H117       20.5536  -32.4226  -45.6929 H         1 UNK         0.0612 
@<TRIPOS>BOND
     1    1    2 1    
     2    1   62 1    
     3    1   63 1    
     4    1   64 1    
     5    2    3 2    
     6    2    4 am   BACKBONE|DICT|INTERRES
     7    4    5 1    
     8    4   65 1    
     9    5    6 1    
    10    5   25 1    
    11    5   66 1    
    12    6    7 1    
    13    6   67 1    
    14    6   68 1    
    15    7    8 1    
    16    8    9 1    
    17    8   69 1    
    18    8   70 1    
    19    9   10 ar   
    20    9   14 ar   
    21   10   11 ar   
    22   10   71 1    
    23   11   12 ar   
    24   11   61 1    
    25   12   13 ar   
    26   12   72 1    
    27   13   14 ar   
    28   13   15 1    
    29   14   73 1    
    30   15   16 1    
    31   15   74 1    
    32   15   75 1    
    33   16   17 1    
    34   17   18 1    
    35   17   76 1    
    36   17   77 1    
    37   18   19 1    
    38   18   27 1    
    39   18   78 1    
    40   19   20 am   BACKBONE|DICT|INTERRES
    41   19   79 1    
    42   20   21 2    
    43   20   22 1    
    44   22   23 1    
    45   22   24 1    
    46   22   80 1    
    47   23   81 1    
    48   23   82 1    
    49   23   83 1    
    50   24   25 am   BACKBONE|DICT|INTERRES
    51   24   84 1    
    52   25   26 2    
    53   27   28 2    
    54   27   29 am   BACKBONE|DICT|INTERRES
    55   29   30 1    
    56   29   85 1    
    57   30   31 1    
    58   30   32 1    
    59   30   86 1    
    60   31   87 1    
    61   31   88 1    
    62   31   89 1    
    63   32   33 2    
    64   32   34 am   BACKBONE|DICT|INTERRES
    65   34   35 1    
    66   34   90 1    
    67   35   36 1    
    68   35   37 1    
    69   35   91 1    
    70   36   92 1    
    71   36   93 1    
    72   36   94 1    
    73   37   38 2    
    74   37   39 am   BACKBONE|DICT|INTERRES
    75   39   40 1    
    76   39   95 1    
    77   40   41 1    
    78   40   42 1    
    79   40   96 1    
    80   41   97 1    
    81   41   98 1    
    82   41   99 1    
    83   42   43 2    
    84   42   44 am   BACKBONE|DICT|INTERRES
    85   44   45 1    
    86   44  100 1    
    87   45   46 1    
    88   45   47 1    
    89   45  101 1    
    90   46  102 1    
    91   46  103 1    
    92   46  104 1    
    93   47   48 2    
    94   47   49 am   BACKBONE|DICT|INTERRES
    95   49   50 1    
    96   49  105 1    
    97   50   51 1    
    98   50   52 1    
    99   50  106 1    
   100   51  107 1    
   101   51  108 1    
   102   51  109 1    
   103   52   53 2    
   104   52   54 am   BACKBONE|DICT|INTERRES
   105   54   55 1    
   106   54  110 1    
   107   55   56 1    
   108   55   59 1    
   109   55  111 1    
   110   56   57 am   BACKBONE|DICT|INTERRES
   111   56   58 2    
   112   57  112 1    
   113   57  113 1    
   114   59   60 1    
   115   59  114 1    
   116   59  115 1    
   117   60   61 1    
   118   61  116 1    
   119   61  117 1    
@<TRIPOS>SUBSTRUCTURE
     1 UNK         1 GROUP             0       ****    0 ROOT    
