@<TRIPOS>MOLECULE
3R8
117   119    1
SMALL
USER_CHARGES


@<TRIPOS>ATOM
      1 CA         19.1320  -26.7394  -42.0168 C.3       0 UNK        -0.2013 
      2 C          18.0449  -26.0341  -42.8098 C.2       0 UNK         0.4866 
      3 O          17.7871  -24.8529  -42.5751 O.2       0 UNK        -0.5176 
      4 N          17.4183  -26.7295  -43.7677 N.am      1 UNK        -0.4884 
      5 CA         16.3534  -26.2046  -44.6357 C.3       1 UNK         0.0853 
      6 C6         15.4295  -27.3251  -45.1851 C.3       10 UNK        -0.0849 
      7 S7         14.7641  -28.4153  -43.8786 S.3       10 UNK        -0.2776 
      8 C8         15.4830  -30.0290  -44.3327 C.3       10 UNK         0.0316 
      9 C9         16.9984  -30.0540  -44.1797 C.ar      10 UNK        -0.0863 
     10 C10        17.5759  -30.2744  -42.9264 C.ar      10 UNK        -0.1009 
     11 C11        18.9661  -30.3242  -42.7828 C.ar      10 UNK        -0.0712 
     12 C12        19.7828  -30.1319  -43.9020 C.ar      10 UNK        -0.0894 
     13 C13        19.2156  -29.9017  -45.1595 C.ar      10 UNK        -0.0745 
     14 C14        17.8249  -29.8779  -45.2934 C.ar      10 UNK        -0.0972 
     15 C15        20.0957  -29.6928  -46.3835 C.3       10 UNK         0.0209 
     16 S16        20.1492  -27.9438  -46.8883 S.3       10 UNK        -0.2568 
     17 C17        21.2019  -27.2429  -45.5799 C.3       10 UNK        -0.0983 
     18 CA         21.4863  -25.7332  -45.7824 C.3       3 UNK         0.0876 
     19 N          20.2712  -24.9314  -45.6573 N.am      3 UNK        -0.4424 
     20 C          19.7628  -24.1113  -46.5839 C.2       2 UNK         0.4918 
     21 O          20.2629  -23.9315  -47.6956 O.2       2 UNK        -0.4875 
     22 CA         18.4703  -23.3687  -46.1809 C.3       2 UNK         0.0481 
     23 CB         17.7309  -22.7334  -47.3779 C.3       2 UNK        -0.1831 
     24 N          17.5802  -24.2197  -45.3793 N.am      2 UNK        -0.4498 
     25 C          16.9702  -25.3510  -45.7662 C.2       1 UNK         0.5027 
     26 O          16.9361  -25.7502  -46.9316 O.2       1 UNK        -0.4969 
     27 C          22.4800  -25.2573  -44.7121 C.2       3 UNK         0.5005 
     28 O          22.0618  -24.8036  -43.6417 O.2       3 UNK        -0.5279 
     29 N          23.7788  -25.4253  -44.9898 N.am      4 UNK        -0.4463 
     30 CA         24.8736  -25.1862  -44.0481 C.3       4 UNK         0.0283 
     31 CB         26.1709  -24.9312  -44.8381 C.3       4 UNK        -0.1875 
     32 C          25.0016  -26.3685  -43.0699 C.2       4 UNK         0.4949 
     33 O          25.9114  -27.1875  -43.2071 O.2       4 UNK        -0.5039 
     34 N          24.0498  -26.4568  -42.1323 N.am      5 UNK        -0.4663 
     35 CA         23.9684  -27.4814  -41.0883 C.3       5 UNK         0.0242 
     36 CB         22.6669  -27.2672  -40.2959 C.3       5 UNK        -0.1982 
     37 C          25.1936  -27.4435  -40.1454 C.2       5 UNK         0.5017 
     38 O          25.5607  -26.3452  -39.7262 O.2       5 UNK        -0.5012 
     39 N          25.8314  -28.5659  -39.7681 N.am      6 UNK        -0.4439 
     40 CA         25.5892  -29.9807  -40.0888 C.3       6 UNK         0.0297 
     41 CB         25.9869  -30.3193  -41.5421 C.3       6 UNK        -0.2006 
     42 C          24.1812  -30.4566  -39.6954 C.2       6 UNK         0.4892 
     43 O          23.4148  -30.9047  -40.5480 O.2       6 UNK        -0.5089 
     44 N          23.8633  -30.3082  -38.4016 N.am      7 UNK        -0.4243 
     45 CA         22.5709  -30.6613  -37.8029 C.3       7 UNK         0.0196 
     46 CB         22.5020  -30.0874  -36.3788 C.3       7 UNK        -0.2007 
     47 C          22.2722  -32.1717  -37.7926 C.2       7 UNK         0.5020 
     48 O          21.1056  -32.5526  -37.7047 O.2       7 UNK        -0.5147 
     49 N          23.3081  -33.0121  -37.9228 N.am      8 UNK        -0.4734 
     50 CA         23.2121  -34.4684  -38.0801 C.3       8 UNK         0.0238 
     51 CB         24.5231  -35.1084  -37.5853 C.3       8 UNK        -0.1912 
     52 C          22.8634  -34.8749  -39.5299 C.2       8 UNK         0.5038 
     53 O          23.4899  -35.7783  -40.0868 O.2       8 UNK        -0.5046 
     54 N          21.8831  -34.1839  -40.1202 N.am      9 UNK        -0.4200 
     55 CA         21.3820  -34.3736  -41.4879 C.3       9 UNK         0.0839 
     56 C          20.4368  -35.5959  -41.6775 C.2       9 UNK         0.5513 
     57 N          20.0075  -36.2795  -40.6230 N.am      9 UNK        -0.7519 
     58 O          20.1009  -35.9410  -42.8076 O.2       9 UNK        -0.4960 
     59 C59        20.7680  -33.0603  -42.0443 C.3       10 UNK        -0.0876 
     60 S60        19.4780  -32.3407  -40.9663 S.3       10 UNK        -0.2414 
     61 C61        19.5778  -30.5805  -41.4137 C.3       10 UNK         0.0169 
     62 H62        18.7479  -27.0564  -41.0478 H         1 UNK         0.0903 
     63 H63        19.9695  -26.0622  -41.8496 H         1 UNK         0.0903 
     64 H64        19.5107  -27.6135  -42.5412 H         1 UNK         0.0903 
     65 H65        17.6592  -27.7003  -43.9245 H         1 UNK         0.3096 
     66 H66        15.7238  -25.5383  -44.0411 H         1 UNK         0.1121 
     67 H67        15.9463  -27.9270  -45.9324 H         1 UNK         0.0849 
     68 H68        14.5810  -26.8799  -45.7079 H         1 UNK         0.0849 
     69 H69        15.0423  -30.8002  -43.6990 H         1 UNK         0.0865 
     70 H70        15.1947  -30.2809  -45.3546 H         1 UNK         0.0865 
     71 H71        16.9427  -30.4196  -42.0614 H         1 UNK         0.1346 
     72 H72        20.8584  -30.1626  -43.7937 H         1 UNK         0.1412 
     73 H73        17.3907  -29.7159  -46.2707 H         1 UNK         0.1426 
     74 H74        19.7054  -30.2852  -47.2123 H         1 UNK         0.0716 
     75 H75        21.1092  -30.0542  -46.2028 H         1 UNK         0.0716 
     76 H76        22.1336  -27.8124  -45.5671 H         1 UNK         0.0695 
     77 H77        20.7212  -27.4174  -44.6164 H         1 UNK         0.0695 
     78 H78        21.9404  -25.5820  -46.7643 H         1 UNK         0.0983 
     79 H79        19.8434  -24.9481  -44.7435 H         1 UNK         0.3095 
     80 H80        18.7815  -22.5565  -45.5227 H         1 UNK         0.0454 
     81 H81        16.8178  -22.2307  -47.0598 H         1 UNK         0.0851 
     82 H82        17.4626  -23.4729  -48.1326 H         1 UNK         0.0851 
     83 H83        18.3567  -21.9871  -47.8684 H         1 UNK         0.0851 
     84 H84        17.5758  -24.0316  -44.3801 H         1 UNK         0.2976 
     85 H85        24.0372  -25.8411  -45.8739 H         1 UNK         0.3116 
     86 H86        24.6591  -24.2883  -43.4641 H         1 UNK         0.0646 
     87 H87        26.4388  -25.7801  -45.4685 H         1 UNK         0.0847 
     88 H88        27.0081  -24.7515  -44.1622 H         1 UNK         0.0847 
     89 H89        26.0796  -24.0538  -45.4784 H         1 UNK         0.0847 
     90 H90        23.3199  -25.7540  -42.1433 H         1 UNK         0.3040 
     91 H91        23.8971  -28.4389  -41.5960 H         1 UNK         0.1015 
     92 H92        22.6128  -26.2639  -39.8714 H         1 UNK         0.0786 
     93 H93        22.5814  -27.9711  -39.4686 H         1 UNK         0.0786 
     94 H94        21.7936  -27.4140  -40.9303 H         1 UNK         0.0786 
     95 H95        26.6102  -28.4262  -39.1393 H         1 UNK         0.3172 
     96 H96        26.2722  -30.5428  -39.4496 H         1 UNK         0.0595 
     97 H97        25.3691  -29.8279  -42.2907 H         1 UNK         0.0839 
     98 H98        25.9049  -31.3921  -41.7217 H         1 UNK         0.0839 
     99 H99        27.0219  -30.0408  -41.7402 H         1 UNK         0.0839 
    100 H100       24.5544  -29.9133  -37.7792 H         1 UNK         0.2998 
    101 H101       21.7880  -30.1886  -38.4003 H         1 UNK         0.0822 
    102 H102       22.6186  -29.0034  -36.3811 H         1 UNK         0.0787 
    103 H103       21.5384  -30.3060  -35.9159 H         1 UNK         0.0787 
    104 H104       23.2754  -30.5090  -35.7354 H         1 UNK         0.0787 
    105 H105       24.2297  -32.6106  -38.0138 H         1 UNK         0.3055 
    106 H106       22.4026  -34.8384  -37.4465 H         1 UNK         0.1106 
    107 H107       25.3758  -34.8048  -38.1939 H         1 UNK         0.0828 
    108 H108       24.7333  -34.8348  -36.5512 H         1 UNK         0.0828 
    109 H109       24.4666  -36.1972  -37.6228 H         1 UNK         0.0828 
    110 H110       21.4045  -33.4763  -39.5750 H         1 UNK         0.2931 
    111 H111       22.2508  -34.5929  -42.1116 H         1 UNK         0.0412 
    112 H112       20.2719  -36.0004  -39.6921 H         1 UNK         0.3472 
    113 H113       19.4013  -37.0731  -40.7607 H         1 UNK         0.3472 
    114 H114       20.3549  -33.2076  -43.0441 H         1 UNK         0.0970 
    115 H115       21.5664  -32.3260  -42.1630 H         1 UNK         0.0970 
    116 H116       19.0424  -29.9970  -40.6634 H         1 UNK         0.0612 
    117 H117       20.6159  -30.2457  -41.3752 H         1 UNK         0.0612 
@<TRIPOS>BOND
     1    1    2 1    
     2    1   62 1    
     3    1   63 1    
     4    1   64 1    
     5    2    3 2    
     6    2    4 am   BACKBONE|DICT|INTERRES
     7    4    5 1    
     8    4   65 1    
     9    5    6 1    
    10    5   25 1    
    11    5   66 1    
    12    6    7 1    
    13    6   67 1    
    14    6   68 1    
    15    7    8 1    
    16    8    9 1    
    17    8   69 1    
    18    8   70 1    
    19    9   10 ar   
    20    9   14 ar   
    21   10   11 ar   
    22   10   71 1    
    23   11   12 ar   
    24   11   61 1    
    25   12   13 ar   
    26   12   72 1    
    27   13   14 ar   
    28   13   15 1    
    29   14   73 1    
    30   15   16 1    
    31   15   74 1    
    32   15   75 1    
    33   16   17 1    
    34   17   18 1    
    35   17   76 1    
    36   17   77 1    
    37   18   19 1    
    38   18   27 1    
    39   18   78 1    
    40   19   20 am   BACKBONE|DICT|INTERRES
    41   19   79 1    
    42   20   21 2    
    43   20   22 1    
    44   22   23 1    
    45   22   24 1    
    46   22   80 1    
    47   23   81 1    
    48   23   82 1    
    49   23   83 1    
    50   24   25 am   BACKBONE|DICT|INTERRES
    51   24   84 1    
    52   25   26 2    
    53   27   28 2    
    54   27   29 am   BACKBONE|DICT|INTERRES
    55   29   30 1    
    56   29   85 1    
    57   30   31 1    
    58   30   32 1    
    59   30   86 1    
    60   31   87 1    
    61   31   88 1    
    62   31   89 1    
    63   32   33 2    
    64   32   34 am   BACKBONE|DICT|INTERRES
    65   34   35 1    
    66   34   90 1    
    67   35   36 1    
    68   35   37 1    
    69   35   91 1    
    70   36   92 1    
    71   36   93 1    
    72   36   94 1    
    73   37   38 2    
    74   37   39 am   BACKBONE|DICT|INTERRES
    75   39   40 1    
    76   39   95 1    
    77   40   41 1    
    78   40   42 1    
    79   40   96 1    
    80   41   97 1    
    81   41   98 1    
    82   41   99 1    
    83   42   43 2    
    84   42   44 am   BACKBONE|DICT|INTERRES
    85   44   45 1    
    86   44  100 1    
    87   45   46 1    
    88   45   47 1    
    89   45  101 1    
    90   46  102 1    
    91   46  103 1    
    92   46  104 1    
    93   47   48 2    
    94   47   49 am   BACKBONE|DICT|INTERRES
    95   49   50 1    
    96   49  105 1    
    97   50   51 1    
    98   50   52 1    
    99   50  106 1    
   100   51  107 1    
   101   51  108 1    
   102   51  109 1    
   103   52   53 2    
   104   52   54 am   BACKBONE|DICT|INTERRES
   105   54   55 1    
   106   54  110 1    
   107   55   56 1    
   108   55   59 1    
   109   55  111 1    
   110   56   57 am   BACKBONE|DICT|INTERRES
   111   56   58 2    
   112   57  112 1    
   113   57  113 1    
   114   59   60 1    
   115   59  114 1    
   116   59  115 1    
   117   60   61 1    
   118   61  116 1    
   119   61  117 1    
@<TRIPOS>SUBSTRUCTURE
     1 UNK         1 GROUP             0       ****    0 ROOT    
