@<TRIPOS>MOLECULE
3R8
117   119    1
SMALL
USER_CHARGES


@<TRIPOS>ATOM
      1 CA         14.4463  -22.0422  -44.4100 C.3       0 UNK        -0.2013 
      2 C          15.0953  -23.4159  -44.3365 C.2       0 UNK         0.4866 
      3 O          15.5262  -23.8304  -43.2598 O.2       0 UNK        -0.5176 
      4 N          15.1783  -24.1190  -45.4751 N.am      1 UNK        -0.4884 
      5 CA         15.7549  -25.4594  -45.6679 C.3       1 UNK         0.0853 
      6 C6         15.0857  -26.5448  -44.7798 C.3       10 UNK        -0.0849 
      7 S7         15.3182  -28.2384  -45.4211 S.3       10 UNK        -0.2776 
      8 C8         16.4675  -28.9188  -44.1795 C.3       10 UNK         0.0316 
      9 C9         17.5040  -29.8575  -44.7818 C.ar      10 UNK        -0.0863 
     10 C10        17.7406  -31.1100  -44.2071 C.ar      10 UNK        -0.1009 
     11 C11        18.7726  -31.9254  -44.6827 C.ar      10 UNK        -0.0712 
     12 C12        19.5585  -31.4890  -45.7540 C.ar      10 UNK        -0.0894 
     13 C13        19.3301  -30.2397  -46.3395 C.ar      10 UNK        -0.0745 
     14 C14        18.2949  -29.4367  -45.8551 C.ar      10 UNK        -0.0972 
     15 C15        20.2544  -29.7205  -47.4359 C.3       10 UNK         0.0209 
     16 S16        21.1088  -28.1693  -46.9732 S.3       10 UNK        -0.2568 
     17 C17        21.7280  -28.5694  -45.3028 C.3       10 UNK        -0.0983 
     18 CA         22.2142  -27.3509  -44.4752 C.3       3 UNK         0.0876 
     19 N          21.2890  -26.2006  -44.4641 N.am      3 UNK        -0.4424 
     20 C          20.0090  -26.1415  -44.0646 C.2       2 UNK         0.4918 
     21 O          19.4128  -27.0845  -43.5428 O.2       2 UNK        -0.4875 
     22 CA         19.2894  -24.7812  -44.1978 C.3       2 UNK         0.0481 
     23 CB         19.9601  -23.8053  -45.1920 C.3       2 UNK        -0.1831 
     24 N          17.8592  -24.9246  -44.4973 N.am      2 UNK        -0.4498 
     25 C          17.3002  -25.4634  -45.5909 C.2       1 UNK         0.5027 
     26 O          17.9444  -25.9030  -46.5438 O.2       1 UNK        -0.4969 
     27 C          22.6272  -27.8527  -43.0751 C.2       3 UNK         0.5005 
     28 O          23.7996  -28.1727  -42.8722 O.2       3 UNK        -0.5279 
     29 N          21.6561  -27.9591  -42.1581 N.am      4 UNK        -0.4463 
     30 CA         21.6967  -28.6539  -40.8673 C.3       4 UNK         0.0283 
     31 CB         20.3745  -28.4027  -40.1267 C.3       4 UNK        -0.1875 
     32 C          22.8879  -28.3317  -39.9523 C.2       4 UNK         0.4949 
     33 O          23.3137  -29.2122  -39.2066 O.2       4 UNK        -0.5039 
     34 N          23.4259  -27.1090  -40.0455 N.am      5 UNK        -0.4663 
     35 CA         24.6287  -26.6724  -39.3297 C.3       5 UNK         0.0242 
     36 CB         24.8109  -25.1590  -39.5287 C.3       5 UNK        -0.1982 
     37 C          25.9080  -27.4271  -39.7427 C.2       5 UNK         0.5017 
     38 O          26.8222  -27.5385  -38.9250 O.2       5 UNK        -0.5012 
     39 N          25.9489  -27.9266  -40.9855 N.am      6 UNK        -0.4439 
     40 CA         27.0444  -28.7255  -41.5367 C.3       6 UNK         0.0297 
     41 CB         27.5054  -28.1032  -42.8651 C.3       6 UNK        -0.2006 
     42 C          26.6195  -30.1859  -41.7519 C.2       6 UNK         0.4892 
     43 O          27.4141  -31.0879  -41.4855 O.2       6 UNK        -0.5089 
     44 N          25.3867  -30.3977  -42.2349 N.am      7 UNK        -0.4243 
     45 CA         24.8383  -31.7133  -42.5769 C.3       7 UNK         0.0196 
     46 CB         23.6606  -31.5242  -43.5470 C.3       7 UNK        -0.2007 
     47 C          24.4062  -32.5542  -41.3623 C.2       7 UNK         0.5020 
     48 O          24.2308  -33.7629  -41.5146 O.2       7 UNK        -0.5147 
     49 N          24.2255  -31.9135  -40.1965 N.am      8 UNK        -0.4734 
     50 CA         23.7647  -32.4921  -38.9246 C.3       8 UNK         0.0238 
     51 CB         24.7535  -33.5551  -38.3980 C.3       8 UNK        -0.1912 
     52 C          22.3060  -32.9945  -38.9662 C.2       8 UNK         0.5038 
     53 O          21.9406  -33.8774  -38.1881 O.2       8 UNK        -0.5046 
     54 N          21.4949  -32.4074  -39.8560 N.am      9 UNK        -0.4200 
     55 CA         20.0593  -32.6897  -40.0250 C.3       9 UNK         0.0839 
     56 C          19.1474  -32.1277  -38.8934 C.2       9 UNK         0.5513 
     57 N          19.6536  -31.3472  -37.9461 N.am      9 UNK        -0.7519 
     58 O          17.9534  -32.4143  -38.8717 O.2       9 UNK        -0.4960 
     59 C59        19.5508  -32.2459  -41.4233 C.3       10 UNK        -0.0876 
     60 S60        20.3958  -33.1205  -42.7844 S.3       10 UNK        -0.2414 
     61 C61        19.0651  -33.2641  -44.0209 C.3       10 UNK         0.0169 
     62 H62        14.1091  -21.8021  -45.4182 H         1 UNK         0.0903 
     63 H63        13.5839  -21.9997  -43.7453 H         1 UNK         0.0903 
     64 H64        15.1551  -21.2757  -44.0977 H         1 UNK         0.0903 
     65 H65        14.8286  -23.6934  -46.3235 H         1 UNK         0.3096 
     66 H66        15.5126  -25.7065  -46.7035 H         1 UNK         0.1121 
     67 H67        14.0090  -26.3714  -44.7476 H         1 UNK         0.0849 
     68 H68        15.4194  -26.4720  -43.7435 H         1 UNK         0.0849 
     69 H69        17.0068  -28.1124  -43.6827 H         1 UNK         0.0865 
     70 H70        15.8863  -29.4205  -43.4044 H         1 UNK         0.0865 
     71 H71        17.1450  -31.4371  -43.3660 H         1 UNK         0.1346 
     72 H72        20.3715  -32.1095  -46.1054 H         1 UNK         0.1412 
     73 H73        18.1419  -28.4556  -46.2817 H         1 UNK         0.1426 
     74 H74        21.0078  -30.4679  -47.6896 H         1 UNK         0.0716 
     75 H75        19.6729  -29.5482  -48.3424 H         1 UNK         0.0716 
     76 H76        22.5345  -29.2949  -45.4196 H         1 UNK         0.0695 
     77 H77        20.9429  -29.0809  -44.7459 H         1 UNK         0.0695 
     78 H78        23.1260  -26.9814  -44.9473 H         1 UNK         0.0983 
     79 H79        21.6825  -25.3529  -44.8458 H         1 UNK         0.3095 
     80 H80        19.3362  -24.3221  -43.2096 H         1 UNK         0.0454 
     81 H81        19.3819  -22.8863  -45.2888 H         1 UNK         0.0851 
     82 H82        20.0568  -24.2389  -46.1884 H         1 UNK         0.0851 
     83 H83        20.9557  -23.5130  -44.8570 H         1 UNK         0.0851 
     84 H84        17.2165  -24.5796  -43.7888 H         1 UNK         0.2976 
     85 H85        20.7308  -27.6749  -42.4773 H         1 UNK         0.3116 
     86 H86        21.7586  -29.7183  -41.0961 H         1 UNK         0.0646 
     87 H87        19.5211  -28.7737  -40.6948 H         1 UNK         0.0847 
     88 H88        20.3616  -28.9048  -39.1590 H         1 UNK         0.0847 
     89 H89        20.2148  -27.3399  -39.9414 H         1 UNK         0.0847 
     90 H90        23.0122  -26.4547  -40.6939 H         1 UNK         0.3040 
     91 H91        24.4713  -26.8637  -38.2657 H         1 UNK         0.1015 
     92 H92        24.9526  -24.9041  -40.5798 H         1 UNK         0.0786 
     93 H93        25.6844  -24.7963  -38.9848 H         1 UNK         0.0786 
     94 H94        23.9488  -24.6029  -39.1599 H         1 UNK         0.0786 
     95 H95        25.1326  -27.8073  -41.5807 H         1 UNK         0.3172 
     96 H96        27.8968  -28.7282  -40.8542 H         1 UNK         0.0595 
     97 H97        26.6977  -28.0642  -43.5975 H         1 UNK         0.0839 
     98 H98        28.3193  -28.6808  -43.3057 H         1 UNK         0.0839 
     99 H99        27.8722  -27.0873  -42.7183 H         1 UNK         0.0839 
    100 H100       24.8048  -29.5930  -42.4602 H         1 UNK         0.2998 
    101 H101       25.6142  -32.2792  -43.0973 H         1 UNK         0.0822 
    102 H102       23.2600  -32.4869  -43.8675 H         1 UNK         0.0787 
    103 H103       22.8417  -30.9681  -43.0898 H         1 UNK         0.0787 
    104 H104       23.9716  -30.9913  -44.4452 H         1 UNK         0.0787 
    105 H105       24.3734  -30.9112  -40.1767 H         1 UNK         0.3055 
    106 H106       23.7671  -31.6713  -38.2058 H         1 UNK         0.1106 
    107 H107       25.7740  -33.1728  -38.3788 H         1 UNK         0.0828 
    108 H108       24.5016  -33.8522  -37.3793 H         1 UNK         0.0828 
    109 H109       24.7439  -34.4585  -39.0082 H         1 UNK         0.0828 
    110 H110       21.8903  -31.7121  -40.4680 H         1 UNK         0.2931 
    111 H111       19.9428  -33.7740  -39.9723 H         1 UNK         0.0412 
    112 H112       20.6344  -31.1206  -37.9367 H         1 UNK         0.3472 
    113 H113       19.0478  -31.0011  -37.2186 H         1 UNK         0.3472 
    114 H114       18.4797  -32.4368  -41.5085 H         1 UNK         0.0970 
    115 H115       19.6782  -31.1716  -41.5643 H         1 UNK         0.0970 
    116 H116       19.3698  -33.9868  -44.7792 H         1 UNK         0.0612 
    117 H117       18.1669  -33.6730  -43.5558 H         1 UNK         0.0612 
@<TRIPOS>BOND
     1    1    2 1    
     2    1   62 1    
     3    1   63 1    
     4    1   64 1    
     5    2    3 2    
     6    2    4 am   BACKBONE|DICT|INTERRES
     7    4    5 1    
     8    4   65 1    
     9    5    6 1    
    10    5   25 1    
    11    5   66 1    
    12    6    7 1    
    13    6   67 1    
    14    6   68 1    
    15    7    8 1    
    16    8    9 1    
    17    8   69 1    
    18    8   70 1    
    19    9   10 ar   
    20    9   14 ar   
    21   10   11 ar   
    22   10   71 1    
    23   11   12 ar   
    24   11   61 1    
    25   12   13 ar   
    26   12   72 1    
    27   13   14 ar   
    28   13   15 1    
    29   14   73 1    
    30   15   16 1    
    31   15   74 1    
    32   15   75 1    
    33   16   17 1    
    34   17   18 1    
    35   17   76 1    
    36   17   77 1    
    37   18   19 1    
    38   18   27 1    
    39   18   78 1    
    40   19   20 am   BACKBONE|DICT|INTERRES
    41   19   79 1    
    42   20   21 2    
    43   20   22 1    
    44   22   23 1    
    45   22   24 1    
    46   22   80 1    
    47   23   81 1    
    48   23   82 1    
    49   23   83 1    
    50   24   25 am   BACKBONE|DICT|INTERRES
    51   24   84 1    
    52   25   26 2    
    53   27   28 2    
    54   27   29 am   BACKBONE|DICT|INTERRES
    55   29   30 1    
    56   29   85 1    
    57   30   31 1    
    58   30   32 1    
    59   30   86 1    
    60   31   87 1    
    61   31   88 1    
    62   31   89 1    
    63   32   33 2    
    64   32   34 am   BACKBONE|DICT|INTERRES
    65   34   35 1    
    66   34   90 1    
    67   35   36 1    
    68   35   37 1    
    69   35   91 1    
    70   36   92 1    
    71   36   93 1    
    72   36   94 1    
    73   37   38 2    
    74   37   39 am   BACKBONE|DICT|INTERRES
    75   39   40 1    
    76   39   95 1    
    77   40   41 1    
    78   40   42 1    
    79   40   96 1    
    80   41   97 1    
    81   41   98 1    
    82   41   99 1    
    83   42   43 2    
    84   42   44 am   BACKBONE|DICT|INTERRES
    85   44   45 1    
    86   44  100 1    
    87   45   46 1    
    88   45   47 1    
    89   45  101 1    
    90   46  102 1    
    91   46  103 1    
    92   46  104 1    
    93   47   48 2    
    94   47   49 am   BACKBONE|DICT|INTERRES
    95   49   50 1    
    96   49  105 1    
    97   50   51 1    
    98   50   52 1    
    99   50  106 1    
   100   51  107 1    
   101   51  108 1    
   102   51  109 1    
   103   52   53 2    
   104   52   54 am   BACKBONE|DICT|INTERRES
   105   54   55 1    
   106   54  110 1    
   107   55   56 1    
   108   55   59 1    
   109   55  111 1    
   110   56   57 am   BACKBONE|DICT|INTERRES
   111   56   58 2    
   112   57  112 1    
   113   57  113 1    
   114   59   60 1    
   115   59  114 1    
   116   59  115 1    
   117   60   61 1    
   118   61  116 1    
   119   61  117 1    
@<TRIPOS>SUBSTRUCTURE
     1 UNK         1 GROUP             0       ****    0 ROOT    
