@<TRIPOS>MOLECULE
3R8
117   119    1
SMALL
USER_CHARGES


@<TRIPOS>ATOM
      1 CA         19.2341  -30.0207  -48.7093 C.3       0 UNK        -0.2013 
      2 C          19.9846  -28.7314  -49.0390 C.2       0 UNK         0.4866 
      3 O          20.5757  -28.6457  -50.1135 O.2       0 UNK        -0.5176 
      4 N          19.9996  -27.7071  -48.1775 N.am      1 UNK        -0.4884 
      5 CA         19.3787  -27.6095  -46.8586 C.3       1 UNK         0.0853 
      6 C6         17.8375  -27.4428  -46.9484 C.3       10 UNK        -0.0849 
      7 S7         17.0166  -27.4254  -45.3205 S.3       10 UNK        -0.2776 
      8 C8         16.7978  -29.2024  -44.9873 C.3       10 UNK         0.0316 
      9 C9         17.1310  -29.5239  -43.5380 C.ar      10 UNK        -0.0863 
     10 C10        18.1961  -30.3725  -43.2212 C.ar      10 UNK        -0.1009 
     11 C11        18.4939  -30.6708  -41.8873 C.ar      10 UNK        -0.0712 
     12 C12        17.7235  -30.1068  -40.8656 C.ar      10 UNK        -0.0894 
     13 C13        16.6664  -29.2437  -41.1715 C.ar      10 UNK        -0.0745 
     14 C14        16.3674  -28.9691  -42.5081 C.ar      10 UNK        -0.0972 
     15 C15        15.8472  -28.5951  -40.0648 C.3       10 UNK         0.0209 
     16 S16        16.8124  -27.3912  -39.0946 S.3       10 UNK        -0.2568 
     17 C17        17.4917  -26.2723  -40.3725 C.3       10 UNK        -0.0983 
     18 CA         19.0028  -26.5149  -40.6340 C.3       3 UNK         0.0876 
     19 N          19.4157  -25.9979  -41.9510 N.am      3 UNK        -0.4424 
     20 C          20.6403  -26.1260  -42.4818 C.2       2 UNK         0.4918 
     21 O          21.5813  -26.6659  -41.9001 O.2       2 UNK        -0.4875 
     22 CA         20.8394  -25.6027  -43.9080 C.3       2 UNK         0.0481 
     23 CB         22.3326  -25.3673  -44.2302 C.3       2 UNK        -0.1831 
     24 N          20.2502  -26.5837  -44.8140 N.am      2 UNK        -0.4498 
     25 C          20.0617  -26.4366  -46.1309 C.2       1 UNK         0.5027 
     26 O          20.3926  -25.4359  -46.7733 O.2       1 UNK        -0.4969 
     27 C          19.8710  -26.0019  -39.4589 C.2       3 UNK         0.5005 
     28 O          20.1034  -26.7455  -38.5049 O.2       3 UNK        -0.5279 
     29 N          20.3661  -24.7588  -39.5640 N.am      4 UNK        -0.4463 
     30 CA         21.2698  -24.1353  -38.5915 C.3       4 UNK         0.0283 
     31 CB         21.4347  -22.6455  -38.9320 C.3       4 UNK        -0.1875 
     32 C          22.6475  -24.8193  -38.4978 C.2       4 UNK         0.4949 
     33 O          23.2414  -24.8235  -37.4193 O.2       4 UNK        -0.5039 
     34 N          23.1277  -25.3793  -39.6164 N.am      5 UNK        -0.4663 
     35 CA         24.3730  -26.1470  -39.6875 C.3       5 UNK         0.0242 
     36 CB         25.0455  -25.8971  -41.0485 C.3       5 UNK        -0.1982 
     37 C          24.1203  -27.6488  -39.4870 C.2       5 UNK         0.5017 
     38 O          24.9366  -28.3191  -38.8560 O.2       5 UNK        -0.5012 
     39 N          23.0131  -28.1443  -40.0613 N.am      6 UNK        -0.4439 
     40 CA         22.5485  -29.5362  -40.1196 C.3       6 UNK         0.0297 
     41 CB         22.2965  -30.1082  -38.7101 C.3       6 UNK        -0.2006 
     42 C          23.4292  -30.4643  -40.9814 C.2       6 UNK         0.4892 
     43 O          23.1871  -31.6706  -41.0050 O.2       6 UNK        -0.5089 
     44 N          24.3989  -29.8948  -41.7125 N.am      7 UNK        -0.4243 
     45 CA         25.3723  -30.5979  -42.5558 C.3       7 UNK         0.0196 
     46 CB         26.4262  -29.5883  -43.0400 C.3       7 UNK        -0.2007 
     47 C          24.7582  -31.3495  -43.7509 C.2       7 UNK         0.5020 
     48 O          25.3912  -32.2645  -44.2772 O.2       7 UNK        -0.5147 
     49 N          23.5422  -30.9599  -44.1561 N.am      8 UNK        -0.4734 
     50 CA         22.7549  -31.6298  -45.1935 C.3       8 UNK         0.0238 
     51 CB         21.6329  -30.6844  -45.6549 C.3       8 UNK        -0.1912 
     52 C          22.1738  -32.9865  -44.7471 C.2       8 UNK         0.5038 
     53 O          21.8254  -33.7929  -45.6103 O.2       8 UNK        -0.5046 
     54 N          22.0659  -33.2105  -43.4312 N.am      9 UNK        -0.4200 
     55 CA         21.5797  -34.4567  -42.8271 C.3       9 UNK         0.0839 
     56 C          22.7490  -35.4421  -42.5701 C.2       9 UNK         0.5513 
     57 N          22.4884  -36.7400  -42.6467 N.am      9 UNK        -0.7519 
     58 O          23.8743  -35.0509  -42.2676 O.2       9 UNK        -0.4960 
     59 C59        20.7876  -34.1779  -41.5234 C.3       10 UNK        -0.0876 
     60 S60        19.2042  -33.3336  -41.8530 S.3       10 UNK        -0.2414 
     61 C61        19.6521  -31.5976  -41.5562 C.3       10 UNK         0.0169 
     62 H62        19.0764  -30.1773  -47.6453 H         1 UNK         0.0903 
     63 H63        18.2620  -30.0196  -49.2012 H         1 UNK         0.0903 
     64 H64        19.7932  -30.8792  -49.0807 H         1 UNK         0.0903 
     65 H65        20.5145  -26.8684  -48.4210 H         1 UNK         0.3096 
     66 H66        19.6158  -28.5145  -46.2981 H         1 UNK         0.1121 
     67 H67        17.5896  -26.5128  -47.4639 H         1 UNK         0.0849 
     68 H68        17.3912  -28.2351  -47.5497 H         1 UNK         0.0849 
     69 H69        15.7645  -29.4831  -45.1962 H         1 UNK         0.0865 
     70 H70        17.4182  -29.7953  -45.6605 H         1 UNK         0.0865 
     71 H71        18.7864  -30.8176  -44.0097 H         1 UNK         0.1346 
     72 H72        17.9527  -30.3251  -39.8314 H         1 UNK         0.1412 
     73 H73        15.5486  -28.3056  -42.7522 H         1 UNK         0.1426 
     74 H74        15.4715  -29.3696  -39.3948 H         1 UNK         0.0716 
     75 H75        14.9690  -28.0930  -40.4739 H         1 UNK         0.0716 
     76 H76        16.9196  -26.4110  -41.2908 H         1 UNK         0.0695 
     77 H77        17.3083  -25.2397  -40.0693 H         1 UNK         0.0695 
     78 H78        19.1662  -27.5937  -40.6841 H         1 UNK         0.0983 
     79 H79        18.6941  -25.5573  -42.5038 H         1 UNK         0.3095 
     80 H80        20.3019  -24.6574  -44.0045 H         1 UNK         0.0454 
     81 H81        22.8971  -26.3005  -44.2346 H         1 UNK         0.0851 
     82 H82        22.4674  -24.8923  -45.2013 H         1 UNK         0.0851 
     83 H83        22.7929  -24.7107  -43.4908 H         1 UNK         0.0851 
     84 H84        19.9106  -27.4232  -44.3637 H         1 UNK         0.2976 
     85 H85        20.1194  -24.2125  -40.3766 H         1 UNK         0.3116 
     86 H86        20.8006  -24.2094  -37.6080 H         1 UNK         0.0646 
     87 H87        22.0822  -22.1500  -38.2070 H         1 UNK         0.0847 
     88 H88        20.4772  -22.1245  -38.9153 H         1 UNK         0.0847 
     89 H89        21.8806  -22.5013  -39.9169 H         1 UNK         0.0847 
     90 H90        22.5530  -25.3646  -40.4487 H         1 UNK         0.3040 
     91 H91        25.0595  -25.8164  -38.9044 H         1 UNK         0.1015 
     92 H92        25.2831  -24.8416  -41.1823 H         1 UNK         0.0786 
     93 H93        24.4111  -26.2036  -41.8811 H         1 UNK         0.0786 
     94 H94        25.9820  -26.4509  -41.1292 H         1 UNK         0.0786 
     95 H95        22.4497  -27.4986  -40.6136 H         1 UNK         0.3172 
     96 H96        21.5843  -29.4906  -40.6271 H         1 UNK         0.0595 
     97 H97        21.6410  -29.4566  -38.1319 H         1 UNK         0.0839 
     98 H98        23.2236  -30.2361  -38.1510 H         1 UNK         0.0839 
     99 H99        21.8156  -31.0856  -38.7633 H         1 UNK         0.0839 
    100 H100       24.5095  -28.8951  -41.6365 H         1 UNK         0.2998 
    101 H101       25.8695  -31.3431  -41.9312 H         1 UNK         0.0822 
    102 H102       26.9378  -29.1148  -42.2016 H         1 UNK         0.0787 
    103 H103       27.1890  -30.0797  -43.6459 H         1 UNK         0.0787 
    104 H104       25.9811  -28.8019  -43.6511 H         1 UNK         0.0787 
    105 H105       23.1095  -30.1839  -43.6774 H         1 UNK         0.3055 
    106 H106       23.4081  -31.8281  -46.0466 H         1 UNK         0.1106 
    107 H107       21.0154  -31.1589  -46.4184 H         1 UNK         0.0828 
    108 H108       20.9784  -30.4035  -44.8301 H         1 UNK         0.0828 
    109 H109       22.0389  -29.7710  -46.0903 H         1 UNK         0.0828 
    110 H110       22.4610  -32.5403  -42.7821 H         1 UNK         0.2931 
    111 H111       20.8959  -34.9406  -43.5281 H         1 UNK         0.0412 
    112 H112       21.5672  -37.0742  -42.8858 H         1 UNK         0.3472 
    113 H113       23.2298  -37.4003  -42.4697 H         1 UNK         0.3472 
    114 H114       20.5464  -35.1150  -41.0179 H         1 UNK         0.0970 
    115 H115       21.3830  -33.6019  -40.8130 H         1 UNK         0.0970 
    116 H116       20.5132  -31.3280  -42.1677 H         1 UNK         0.0612 
    117 H117       19.9575  -31.4786  -40.5158 H         1 UNK         0.0612 
@<TRIPOS>BOND
     1    1    2 1    
     2    1   62 1    
     3    1   63 1    
     4    1   64 1    
     5    2    3 2    
     6    2    4 am   BACKBONE|DICT|INTERRES
     7    4    5 1    
     8    4   65 1    
     9    5    6 1    
    10    5   25 1    
    11    5   66 1    
    12    6    7 1    
    13    6   67 1    
    14    6   68 1    
    15    7    8 1    
    16    8    9 1    
    17    8   69 1    
    18    8   70 1    
    19    9   10 ar   
    20    9   14 ar   
    21   10   11 ar   
    22   10   71 1    
    23   11   12 ar   
    24   11   61 1    
    25   12   13 ar   
    26   12   72 1    
    27   13   14 ar   
    28   13   15 1    
    29   14   73 1    
    30   15   16 1    
    31   15   74 1    
    32   15   75 1    
    33   16   17 1    
    34   17   18 1    
    35   17   76 1    
    36   17   77 1    
    37   18   19 1    
    38   18   27 1    
    39   18   78 1    
    40   19   20 am   BACKBONE|DICT|INTERRES
    41   19   79 1    
    42   20   21 2    
    43   20   22 1    
    44   22   23 1    
    45   22   24 1    
    46   22   80 1    
    47   23   81 1    
    48   23   82 1    
    49   23   83 1    
    50   24   25 am   BACKBONE|DICT|INTERRES
    51   24   84 1    
    52   25   26 2    
    53   27   28 2    
    54   27   29 am   BACKBONE|DICT|INTERRES
    55   29   30 1    
    56   29   85 1    
    57   30   31 1    
    58   30   32 1    
    59   30   86 1    
    60   31   87 1    
    61   31   88 1    
    62   31   89 1    
    63   32   33 2    
    64   32   34 am   BACKBONE|DICT|INTERRES
    65   34   35 1    
    66   34   90 1    
    67   35   36 1    
    68   35   37 1    
    69   35   91 1    
    70   36   92 1    
    71   36   93 1    
    72   36   94 1    
    73   37   38 2    
    74   37   39 am   BACKBONE|DICT|INTERRES
    75   39   40 1    
    76   39   95 1    
    77   40   41 1    
    78   40   42 1    
    79   40   96 1    
    80   41   97 1    
    81   41   98 1    
    82   41   99 1    
    83   42   43 2    
    84   42   44 am   BACKBONE|DICT|INTERRES
    85   44   45 1    
    86   44  100 1    
    87   45   46 1    
    88   45   47 1    
    89   45  101 1    
    90   46  102 1    
    91   46  103 1    
    92   46  104 1    
    93   47   48 2    
    94   47   49 am   BACKBONE|DICT|INTERRES
    95   49   50 1    
    96   49  105 1    
    97   50   51 1    
    98   50   52 1    
    99   50  106 1    
   100   51  107 1    
   101   51  108 1    
   102   51  109 1    
   103   52   53 2    
   104   52   54 am   BACKBONE|DICT|INTERRES
   105   54   55 1    
   106   54  110 1    
   107   55   56 1    
   108   55   59 1    
   109   55  111 1    
   110   56   57 am   BACKBONE|DICT|INTERRES
   111   56   58 2    
   112   57  112 1    
   113   57  113 1    
   114   59   60 1    
   115   59  114 1    
   116   59  115 1    
   117   60   61 1    
   118   61  116 1    
   119   61  117 1    
@<TRIPOS>SUBSTRUCTURE
     1 UNK         1 GROUP             0       ****    0 ROOT    
