@<TRIPOS>MOLECULE
3R8
117   119    1
SMALL
USER_CHARGES


@<TRIPOS>ATOM
      1 CA         20.2029  -29.4931  -42.4932 C.3       0 UNK        -0.2013 
      2 C          19.0013  -28.5867  -42.3111 C.2       0 UNK         0.4866 
      3 O          18.9969  -27.7619  -41.3977 O.2       0 UNK        -0.5176 
      4 N          17.9965  -28.7236  -43.1878 N.am      1 UNK        -0.4884 
      5 CA         16.6953  -28.0367  -43.1380 C.3       1 UNK         0.0853 
      6 C6         15.7680  -28.4845  -44.2931 C.3       10 UNK        -0.0849 
      7 S7         15.5204  -30.2931  -44.3221 S.3       10 UNK        -0.2776 
      8 C8         16.2210  -30.7550  -45.9393 C.3       10 UNK         0.0316 
      9 C9         17.7451  -30.7372  -45.9558 C.ar      10 UNK        -0.0863 
     10 C10        18.4636  -31.8006  -45.3981 C.ar      10 UNK        -0.1009 
     11 C11        19.8586  -31.8385  -45.4872 C.ar      10 UNK        -0.0712 
     12 C12        20.5372  -30.7928  -46.1204 C.ar      10 UNK        -0.0894 
     13 C13        19.8327  -29.7243  -46.6817 C.ar      10 UNK        -0.0745 
     14 C14        18.4363  -29.6999  -46.5928 C.ar      10 UNK        -0.0972 
     15 C15        20.5772  -28.6416  -47.4534 C.3       10 UNK         0.0209 
     16 S16        20.5179  -27.0179  -46.6377 S.3       10 UNK        -0.2568 
     17 C17        21.6625  -27.2546  -45.2362 C.3       10 UNK        -0.0983 
     18 CA         21.7582  -25.9981  -44.3241 C.3       3 UNK         0.0876 
     19 N          20.4509  -25.6109  -43.7991 N.am      3 UNK        -0.4424 
     20 C          19.7258  -24.5659  -44.2183 C.2       2 UNK         0.4918 
     21 O          20.1654  -23.6676  -44.9371 O.2       2 UNK        -0.4875 
     22 CA         18.2402  -24.5826  -43.8202 C.3       2 UNK         0.0481 
     23 CB         17.3607  -23.6866  -44.7135 C.3       2 UNK        -0.1831 
     24 N          17.7672  -25.9657  -43.8678 N.am      2 UNK        -0.4498 
     25 C          16.8088  -26.4978  -43.1033 C.2       1 UNK         0.5027 
     26 O          16.0668  -25.8428  -42.3696 O.2       1 UNK        -0.4969 
     27 C          22.6885  -26.2070  -43.1207 C.2       3 UNK         0.5005 
     28 O          23.0109  -27.3461  -42.7773 O.2       3 UNK        -0.5279 
     29 N          23.0775  -25.1012  -42.4700 N.am      4 UNK        -0.4463 
     30 CA         23.8508  -25.0626  -41.2188 C.3       4 UNK         0.0283 
     31 CB         24.0243  -23.5995  -40.7805 C.3       4 UNK        -0.1875 
     32 C          25.2173  -25.7766  -41.2512 C.2       4 UNK         0.4949 
     33 O          25.7338  -26.1260  -40.1904 O.2       4 UNK        -0.5039 
     34 N          25.7704  -26.0012  -42.4511 N.am      5 UNK        -0.4663 
     35 CA         26.9644  -26.8209  -42.6749 C.3       5 UNK         0.0242 
     36 CB         27.4654  -26.5994  -44.1110 C.3       5 UNK        -0.1982 
     37 C          26.7296  -28.3220  -42.4128 C.2       5 UNK         0.5017 
     38 O          27.6822  -29.0209  -42.0656 O.2       5 UNK        -0.5012 
     39 N          25.4830  -28.7853  -42.5820 N.am      6 UNK        -0.4439 
     40 CA         25.0463  -30.1498  -42.2889 C.3       6 UNK         0.0297 
     41 CB         24.1164  -30.6478  -43.4089 C.3       6 UNK        -0.2006 
     42 C          24.3463  -30.1982  -40.9236 C.2       6 UNK         0.4892 
     43 O          24.7371  -31.0012  -40.0761 O.2       6 UNK        -0.5089 
     44 N          23.3469  -29.3212  -40.7385 N.am      7 UNK        -0.4243 
     45 CA         22.5262  -29.0628  -39.5452 C.3       7 UNK         0.0196 
     46 CB         23.3816  -28.4568  -38.4171 C.3       7 UNK        -0.2007 
     47 C          21.6904  -30.2446  -39.0127 C.2       7 UNK         0.5020 
     48 O          20.4943  -30.0754  -38.7767 O.2       7 UNK        -0.5147 
     49 N          22.3212  -31.4060  -38.8024 N.am      8 UNK        -0.4734 
     50 CA         21.7597  -32.5810  -38.1220 C.3       8 UNK         0.0238 
     51 CB         22.8632  -33.6369  -37.9485 C.3       8 UNK        -0.1912 
     52 C          20.5300  -33.1982  -38.8094 C.2       8 UNK         0.5038 
     53 O          19.6614  -33.7373  -38.1224 O.2       8 UNK        -0.5046 
     54 N          20.4799  -33.0999  -40.1412 N.am      9 UNK        -0.4200 
     55 CA         19.3540  -33.5152  -40.9897 C.3       9 UNK         0.0839 
     56 C          18.1613  -32.5135  -41.0337 C.2       9 UNK         0.5513 
     57 N          18.1925  -31.3945  -40.3189 N.am      9 UNK        -0.7519 
     58 O          17.1696  -32.7743  -41.7089 O.2       9 UNK        -0.4960 
     59 C59        19.8345  -33.9647  -42.3977 C.3       10 UNK        -0.0876 
     60 S60        21.0319  -32.8295  -43.1825 S.3       10 UNK        -0.2414 
     61 C61        20.6391  -33.0263  -44.9455 C.3       10 UNK         0.0169 
     62 H62        21.1200  -28.9211  -42.4053 H         1 UNK         0.0903 
     63 H63        20.2178  -30.2643  -41.7267 H         1 UNK         0.0903 
     64 H64        20.1978  -29.9760  -43.4670 H         1 UNK         0.0903 
     65 H65        18.0667  -29.4340  -43.9066 H         1 UNK         0.3096 
     66 H66        16.2270  -28.3320  -42.1965 H         1 UNK         0.1121 
     67 H67        16.1607  -28.1499  -45.2550 H         1 UNK         0.0849 
     68 H68        14.7851  -28.0197  -44.1916 H         1 UNK         0.0849 
     69 H69        15.8769  -31.7598  -46.1892 H         1 UNK         0.0865 
     70 H70        15.8150  -30.1030  -46.7145 H         1 UNK         0.0865 
     71 H71        17.9341  -32.6113  -44.9158 H         1 UNK         0.1346 
     72 H72        21.6155  -30.8260  -46.1986 H         1 UNK         0.1412 
     73 H73        17.8897  -28.8858  -47.0495 H         1 UNK         0.1426 
     74 H74        20.1304  -28.5477  -48.4441 H         1 UNK         0.0716 
     75 H75        21.6190  -28.9216  -47.6177 H         1 UNK         0.0716 
     76 H76        22.6464  -27.5096  -45.6341 H         1 UNK         0.0695 
     77 H77        21.3253  -28.1240  -44.6730 H         1 UNK         0.0695 
     78 H78        22.1856  -25.1876  -44.9189 H         1 UNK         0.0983 
     79 H79        20.0417  -26.2434  -43.1249 H         1 UNK         0.3095 
     80 H80        18.1848  -24.2183  -42.7924 H         1 UNK         0.0454 
     81 H81        17.6853  -22.6465  -44.6665 H         1 UNK         0.0851 
     82 H82        16.3174  -23.7123  -44.3990 H         1 UNK         0.0851 
     83 H83        17.4041  -23.9974  -45.7579 H         1 UNK         0.0851 
     84 H84        18.3098  -26.5894  -44.4515 H         1 UNK         0.2976 
     85 H85        22.7538  -24.2097  -42.8191 H         1 UNK         0.3116 
     86 H86        23.2519  -25.5731  -40.4617 H         1 UNK         0.0646 
     87 H87        24.5661  -23.5353  -39.8355 H         1 UNK         0.0847 
     88 H88        24.5851  -23.0220  -41.5163 H         1 UNK         0.0847 
     89 H89        23.0615  -23.1110  -40.6302 H         1 UNK         0.0847 
     90 H90        25.2887  -25.6586  -43.2691 H         1 UNK         0.3040 
     91 H91        27.7414  -26.4868  -41.9837 H         1 UNK         0.1015 
     92 H92        28.3718  -27.1762  -44.3006 H         1 UNK         0.0786 
     93 H93        27.7072  -25.5517  -44.2904 H         1 UNK         0.0786 
     94 H94        26.7242  -26.9061  -44.8499 H         1 UNK         0.0786 
     95 H95        24.7486  -28.1215  -42.8121 H         1 UNK         0.3172 
     96 H96        25.9075  -30.8201  -42.2509 H         1 UNK         0.0595 
     97 H97        23.2142  -30.0424  -43.5021 H         1 UNK         0.0839 
     98 H98        23.8030  -31.6748  -43.2208 H         1 UNK         0.0839 
     99 H99        24.6223  -30.6383  -44.3741 H         1 UNK         0.0839 
    100 H100       23.1441  -28.7001  -41.5187 H         1 UNK         0.2998 
    101 H101       21.8096  -28.2989  -39.8525 H         1 UNK         0.0822 
    102 H102       22.7676  -28.2091  -37.5504 H         1 UNK         0.0787 
    103 H103       24.1579  -29.1442  -38.0802 H         1 UNK         0.0787 
    104 H104       23.8687  -27.5376  -38.7410 H         1 UNK         0.0787 
    105 H105       23.3017  -31.4479  -39.0777 H         1 UNK         0.3055 
    106 H106       21.4375  -32.2570  -37.1300 H         1 UNK         0.1106 
    107 H107       23.6964  -33.2476  -37.3631 H         1 UNK         0.0828 
    108 H108       22.4854  -34.5171  -37.4260 H         1 UNK         0.0828 
    109 H109       23.2561  -33.9707  -38.9098 H         1 UNK         0.0828 
    110 H110       21.2368  -32.6330  -40.6188 H         1 UNK         0.2931 
    111 H111       18.9265  -34.4074  -40.5280 H         1 UNK         0.0412 
    112 H112       18.9940  -31.1530  -39.7482 H         1 UNK         0.3472 
    113 H113       17.3989  -30.7758  -40.3509 H         1 UNK         0.3472 
    114 H114       20.3270  -34.9342  -42.3102 H         1 UNK         0.0970 
    115 H115       18.9853  -34.1345  -43.0619 H         1 UNK         0.0970 
    116 H116       21.5766  -33.1335  -45.4933 H         1 UNK         0.0612 
    117 H117       20.0889  -33.9522  -45.1179 H         1 UNK         0.0612 
@<TRIPOS>BOND
     1    1    2 1    
     2    1   62 1    
     3    1   63 1    
     4    1   64 1    
     5    2    3 2    
     6    2    4 am   BACKBONE|DICT|INTERRES
     7    4    5 1    
     8    4   65 1    
     9    5    6 1    
    10    5   25 1    
    11    5   66 1    
    12    6    7 1    
    13    6   67 1    
    14    6   68 1    
    15    7    8 1    
    16    8    9 1    
    17    8   69 1    
    18    8   70 1    
    19    9   10 ar   
    20    9   14 ar   
    21   10   11 ar   
    22   10   71 1    
    23   11   12 ar   
    24   11   61 1    
    25   12   13 ar   
    26   12   72 1    
    27   13   14 ar   
    28   13   15 1    
    29   14   73 1    
    30   15   16 1    
    31   15   74 1    
    32   15   75 1    
    33   16   17 1    
    34   17   18 1    
    35   17   76 1    
    36   17   77 1    
    37   18   19 1    
    38   18   27 1    
    39   18   78 1    
    40   19   20 am   BACKBONE|DICT|INTERRES
    41   19   79 1    
    42   20   21 2    
    43   20   22 1    
    44   22   23 1    
    45   22   24 1    
    46   22   80 1    
    47   23   81 1    
    48   23   82 1    
    49   23   83 1    
    50   24   25 am   BACKBONE|DICT|INTERRES
    51   24   84 1    
    52   25   26 2    
    53   27   28 2    
    54   27   29 am   BACKBONE|DICT|INTERRES
    55   29   30 1    
    56   29   85 1    
    57   30   31 1    
    58   30   32 1    
    59   30   86 1    
    60   31   87 1    
    61   31   88 1    
    62   31   89 1    
    63   32   33 2    
    64   32   34 am   BACKBONE|DICT|INTERRES
    65   34   35 1    
    66   34   90 1    
    67   35   36 1    
    68   35   37 1    
    69   35   91 1    
    70   36   92 1    
    71   36   93 1    
    72   36   94 1    
    73   37   38 2    
    74   37   39 am   BACKBONE|DICT|INTERRES
    75   39   40 1    
    76   39   95 1    
    77   40   41 1    
    78   40   42 1    
    79   40   96 1    
    80   41   97 1    
    81   41   98 1    
    82   41   99 1    
    83   42   43 2    
    84   42   44 am   BACKBONE|DICT|INTERRES
    85   44   45 1    
    86   44  100 1    
    87   45   46 1    
    88   45   47 1    
    89   45  101 1    
    90   46  102 1    
    91   46  103 1    
    92   46  104 1    
    93   47   48 2    
    94   47   49 am   BACKBONE|DICT|INTERRES
    95   49   50 1    
    96   49  105 1    
    97   50   51 1    
    98   50   52 1    
    99   50  106 1    
   100   51  107 1    
   101   51  108 1    
   102   51  109 1    
   103   52   53 2    
   104   52   54 am   BACKBONE|DICT|INTERRES
   105   54   55 1    
   106   54  110 1    
   107   55   56 1    
   108   55   59 1    
   109   55  111 1    
   110   56   57 am   BACKBONE|DICT|INTERRES
   111   56   58 2    
   112   57  112 1    
   113   57  113 1    
   114   59   60 1    
   115   59  114 1    
   116   59  115 1    
   117   60   61 1    
   118   61  116 1    
   119   61  117 1    
@<TRIPOS>SUBSTRUCTURE
     1 UNK         1 GROUP             0       ****    0 ROOT    
