@<TRIPOS>MOLECULE
3R8
117   119    1
SMALL
USER_CHARGES


@<TRIPOS>ATOM
      1 CA         16.3482  -24.9587  -45.9777 C.3       0 UNK        -0.2013 
      2 C          17.5864  -25.5588  -46.6249 C.2       0 UNK         0.4866 
      3 O          18.3113  -24.8494  -47.3226 O.2       0 UNK        -0.5176 
      4 N          17.8199  -26.8624  -46.4211 N.am      1 UNK        -0.4884 
      5 CA         18.9010  -27.6311  -47.0550 C.3       1 UNK         0.0853 
      6 C6         18.7129  -29.1706  -46.9402 C.3       10 UNK        -0.0849 
      7 S7         16.9749  -29.7094  -47.1290 S.3       10 UNK        -0.2776 
      8 C8         16.7470  -30.8714  -45.7380 C.3       10 UNK         0.0316 
      9 C9         17.1773  -30.3179  -44.3815 C.ar      10 UNK        -0.0863 
     10 C10        18.2077  -30.9458  -43.6753 C.ar      10 UNK        -0.1009 
     11 C11        18.5850  -30.4959  -42.4067 C.ar      10 UNK        -0.0712 
     12 C12        17.9361  -29.3898  -41.8514 C.ar      10 UNK        -0.0894 
     13 C13        16.9197  -28.7351  -42.5543 C.ar      10 UNK        -0.0745 
     14 C14        16.5360  -29.2113  -43.8144 C.ar      10 UNK        -0.0972 
     15 C15        16.2163  -27.5286  -41.9475 C.3       10 UNK         0.0209 
     16 S16        16.8325  -25.9741  -42.6666 S.3       10 UNK        -0.2568 
     17 C17        17.9249  -25.3016  -41.3659 C.3       10 UNK        -0.0983 
     18 CA         19.3274  -25.9558  -41.3141 C.3       3 UNK         0.0876 
     19 N          19.9604  -26.0457  -42.6327 N.am      3 UNK        -0.4424 
     20 C          21.0641  -26.7563  -42.8961 C.2       2 UNK         0.4918 
     21 O          21.6699  -27.4135  -42.0473 O.2       2 UNK        -0.4875 
     22 CA         21.5164  -26.7831  -44.3621 C.3       2 UNK         0.0481 
     23 CB         22.7333  -27.7062  -44.5823 C.3       2 UNK        -0.1831 
     24 N          20.3703  -27.1982  -45.1676 N.am      2 UNK        -0.4498 
     25 C          20.2766  -27.2133  -46.5028 C.2       1 UNK         0.5027 
     26 O          21.1863  -26.9048  -47.2736 O.2       1 UNK        -0.4969 
     27 C          20.2464  -25.2275  -40.3120 C.2       3 UNK         0.5005 
     28 O          20.9871  -24.3239  -40.7091 O.2       3 UNK        -0.5279 
     29 N          20.2158  -25.6623  -39.0439 N.am      4 UNK        -0.4463 
     30 CA         21.0718  -25.2543  -37.9160 C.3       4 UNK         0.0283 
     31 CB         20.9701  -23.7441  -37.6234 C.3       4 UNK        -0.1875 
     32 C          22.5418  -25.7031  -38.0424 C.2       4 UNK         0.4949 
     33 O          23.1208  -26.1306  -37.0439 O.2       4 UNK        -0.5039 
     34 N          23.1116  -25.6334  -39.2533 N.am      5 UNK        -0.4663 
     35 CA         24.4347  -26.1639  -39.5972 C.3       5 UNK         0.0242 
     36 CB         24.8431  -25.6528  -40.9887 C.3       5 UNK        -0.1982 
     37 C          24.4791  -27.7013  -39.5518 C.2       5 UNK         0.5017 
     38 O          25.4834  -28.2659  -39.1190 O.2       5 UNK        -0.5012 
     39 N          23.3827  -28.3350  -39.9950 N.am      6 UNK        -0.4439 
     40 CA         23.1052  -29.7749  -40.0087 C.3       6 UNK         0.0297 
     41 CB         23.1134  -30.3624  -38.5822 C.3       6 UNK        -0.2006 
     42 C          23.9751  -30.5875  -40.9848 C.2       6 UNK         0.4892 
     43 O          23.9850  -31.8153  -40.8964 O.2       6 UNK        -0.5089 
     44 N          24.6452  -29.9194  -41.9351 N.am      7 UNK        -0.4243 
     45 CA         25.5290  -30.5377  -42.9333 C.3       7 UNK         0.0196 
     46 CB         26.2460  -29.4347  -43.7283 C.3       7 UNK        -0.2007 
     47 C          24.8170  -31.5159  -43.8878 C.2       7 UNK         0.5020 
     48 O          25.4522  -32.4404  -44.3938 O.2       7 UNK        -0.5147 
     49 N          23.5116  -31.3057  -44.0979 N.am      8 UNK        -0.4734 
     50 CA         22.6350  -32.1756  -44.8858 C.3       8 UNK         0.0238 
     51 CB         21.5105  -31.3166  -45.4921 C.3       8 UNK        -0.1912 
     52 C          22.0475  -33.3451  -44.0703 C.2       8 UNK         0.5038 
     53 O          21.4431  -34.2355  -44.6694 O.2       8 UNK        -0.5046 
     54 N          22.2078  -33.3169  -42.7407 N.am      9 UNK        -0.4200 
     55 CA         21.6722  -34.3049  -41.7928 C.3       9 UNK         0.0839 
     56 C          22.7902  -35.1851  -41.1751 C.2       9 UNK         0.5513 
     57 N          23.9743  -34.6511  -40.9045 N.am      9 UNK        -0.7519 
     58 O          22.5820  -36.3740  -40.9478 O.2       9 UNK        -0.4960 
     59 C59        20.8337  -33.6194  -40.6813 C.3       10 UNK        -0.0876 
     60 S60        19.2616  -32.9495  -41.3193 S.3       10 UNK        -0.2414 
     61 C61        19.6914  -31.2094  -41.6417 C.3       10 UNK         0.0169 
     62 H62        15.7316  -25.7178  -45.4968 H         1 UNK         0.0903 
     63 H63        16.6353  -24.2234  -45.2266 H         1 UNK         0.0903 
     64 H64        15.7379  -24.4574  -46.7284 H         1 UNK         0.0903 
     65 H65        17.1781  -27.4053  -45.8609 H         1 UNK         0.3096 
     66 H66        18.8895  -27.3784  -48.1180 H         1 UNK         0.1121 
     67 H67        19.0980  -29.5404  -45.9904 H         1 UNK         0.0849 
     68 H68        19.3089  -29.6728  -47.7044 H         1 UNK         0.0849 
     69 H69        15.6941  -31.1516  -45.6855 H         1 UNK         0.0865 
     70 H70        17.2898  -31.7899  -45.9673 H         1 UNK         0.0865 
     71 H71        18.7050  -31.8077  -44.0994 H         1 UNK         0.1346 
     72 H72        18.2167  -29.0458  -40.8663 H         1 UNK         0.1412 
     73 H73        15.7344  -28.7231  -44.3520 H         1 UNK         0.1426 
     74 H74        16.3264  -27.5162  -40.8622 H         1 UNK         0.0716 
     75 H75        15.1451  -27.6018  -42.1411 H         1 UNK         0.0716 
     76 H76        17.4217  -25.3924  -40.4015 H         1 UNK         0.0695 
     77 H77        18.0180  -24.2301  -41.5545 H         1 UNK         0.0695 
     78 H78        19.2060  -26.9789  -40.9583 H         1 UNK         0.0983 
     79 H79        19.5294  -25.5059  -43.3681 H         1 UNK         0.3095 
     80 H80        21.7898  -25.7642  -44.6420 H         1 UNK         0.0454 
     81 H81        22.4918  -28.7387  -44.3397 H         1 UNK         0.0851 
     82 H82        23.5680  -27.4037  -43.9495 H         1 UNK         0.0851 
     83 H83        23.0899  -27.6770  -45.6113 H         1 UNK         0.0851 
     84 H84        19.5508  -27.4653  -44.6377 H         1 UNK         0.2976 
     85 H85        19.5810  -26.4186  -38.8261 H         1 UNK         0.3116 
     86 H86        20.6667  -25.7757  -37.0470 H         1 UNK         0.0646 
     87 H87        21.4037  -23.1392  -38.4199 H         1 UNK         0.0847 
     88 H88        21.5030  -23.4925  -36.7055 H         1 UNK         0.0847 
     89 H89        19.9338  -23.4335  -37.4914 H         1 UNK         0.0847 
     90 H90        22.5604  -25.2209  -40.0009 H         1 UNK         0.3040 
     91 H91        25.1535  -25.7897  -38.8647 H         1 UNK         0.1015 
     92 H92        24.8971  -24.5642  -41.0090 H         1 UNK         0.0786 
     93 H93        24.1382  -25.9660  -41.7597 H         1 UNK         0.0786 
     94 H94        25.8271  -26.0302  -41.2709 H         1 UNK         0.0786 
     95 H95        22.6646  -27.7676  -40.4390 H         1 UNK         0.3172 
     96 H96        22.0876  -29.8629  -40.3878 H         1 UNK         0.0595 
     97 H97        22.7495  -31.3904  -38.5768 H         1 UNK         0.0839 
     98 H98        22.4707  -29.7898  -37.9136 H         1 UNK         0.0839 
     99 H99        24.1164  -30.3745  -38.1550 H         1 UNK         0.0839 
    100 H100       24.5763  -28.9126  -41.9417 H         1 UNK         0.2998 
    101 H101       26.2828  -31.1113  -42.3895 H         1 UNK         0.0822 
    102 H102       26.8089  -28.7714  -43.0711 H         1 UNK         0.0787 
    103 H103       26.9562  -29.8652  -44.4358 H         1 UNK         0.0787 
    104 H104       25.5461  -28.8273  -44.3024 H         1 UNK         0.0787 
    105 H105       23.0806  -30.5207  -43.6339 H         1 UNK         0.3055 
    106 H106       23.2069  -32.6157  -45.7061 H         1 UNK         0.1106 
    107 H107       20.8172  -31.9261  -46.0737 H         1 UNK         0.0828 
    108 H108       21.9113  -30.5581  -46.1649 H         1 UNK         0.0828 
    109 H109       20.9311  -30.8073  -44.7224 H         1 UNK         0.0828 
    110 H110       22.7957  -32.6010  -42.3328 H         1 UNK         0.2931 
    111 H111       21.0081  -34.9922  -42.3209 H         1 UNK         0.0412 
    112 H112       24.1205  -33.6492  -40.9966 H         1 UNK         0.3472 
    113 H113       24.6991  -35.2298  -40.5112 H         1 UNK         0.3472 
    114 H114       20.5755  -34.3375  -39.9004 H         1 UNK         0.0970 
    115 H115       21.4044  -32.8314  -40.1871 H         1 UNK         0.0970 
    116 H116       19.8842  -30.7157  -40.6885 H         1 UNK         0.0612 
    117 H117       20.6133  -31.1504  -42.2191 H         1 UNK         0.0612 
@<TRIPOS>BOND
     1    1    2 1    
     2    1   62 1    
     3    1   63 1    
     4    1   64 1    
     5    2    3 2    
     6    2    4 am   BACKBONE|DICT|INTERRES
     7    4    5 1    
     8    4   65 1    
     9    5    6 1    
    10    5   25 1    
    11    5   66 1    
    12    6    7 1    
    13    6   67 1    
    14    6   68 1    
    15    7    8 1    
    16    8    9 1    
    17    8   69 1    
    18    8   70 1    
    19    9   10 ar   
    20    9   14 ar   
    21   10   11 ar   
    22   10   71 1    
    23   11   12 ar   
    24   11   61 1    
    25   12   13 ar   
    26   12   72 1    
    27   13   14 ar   
    28   13   15 1    
    29   14   73 1    
    30   15   16 1    
    31   15   74 1    
    32   15   75 1    
    33   16   17 1    
    34   17   18 1    
    35   17   76 1    
    36   17   77 1    
    37   18   19 1    
    38   18   27 1    
    39   18   78 1    
    40   19   20 am   BACKBONE|DICT|INTERRES
    41   19   79 1    
    42   20   21 2    
    43   20   22 1    
    44   22   23 1    
    45   22   24 1    
    46   22   80 1    
    47   23   81 1    
    48   23   82 1    
    49   23   83 1    
    50   24   25 am   BACKBONE|DICT|INTERRES
    51   24   84 1    
    52   25   26 2    
    53   27   28 2    
    54   27   29 am   BACKBONE|DICT|INTERRES
    55   29   30 1    
    56   29   85 1    
    57   30   31 1    
    58   30   32 1    
    59   30   86 1    
    60   31   87 1    
    61   31   88 1    
    62   31   89 1    
    63   32   33 2    
    64   32   34 am   BACKBONE|DICT|INTERRES
    65   34   35 1    
    66   34   90 1    
    67   35   36 1    
    68   35   37 1    
    69   35   91 1    
    70   36   92 1    
    71   36   93 1    
    72   36   94 1    
    73   37   38 2    
    74   37   39 am   BACKBONE|DICT|INTERRES
    75   39   40 1    
    76   39   95 1    
    77   40   41 1    
    78   40   42 1    
    79   40   96 1    
    80   41   97 1    
    81   41   98 1    
    82   41   99 1    
    83   42   43 2    
    84   42   44 am   BACKBONE|DICT|INTERRES
    85   44   45 1    
    86   44  100 1    
    87   45   46 1    
    88   45   47 1    
    89   45  101 1    
    90   46  102 1    
    91   46  103 1    
    92   46  104 1    
    93   47   48 2    
    94   47   49 am   BACKBONE|DICT|INTERRES
    95   49   50 1    
    96   49  105 1    
    97   50   51 1    
    98   50   52 1    
    99   50  106 1    
   100   51  107 1    
   101   51  108 1    
   102   51  109 1    
   103   52   53 2    
   104   52   54 am   BACKBONE|DICT|INTERRES
   105   54   55 1    
   106   54  110 1    
   107   55   56 1    
   108   55   59 1    
   109   55  111 1    
   110   56   57 am   BACKBONE|DICT|INTERRES
   111   56   58 2    
   112   57  112 1    
   113   57  113 1    
   114   59   60 1    
   115   59  114 1    
   116   59  115 1    
   117   60   61 1    
   118   61  116 1    
   119   61  117 1    
@<TRIPOS>SUBSTRUCTURE
     1 UNK         1 GROUP             0       ****    0 ROOT    
