@<TRIPOS>MOLECULE
3R8
117   119    1
SMALL
USER_CHARGES


@<TRIPOS>ATOM
      1 CA         20.6527  -27.6532  -50.7445 C.3       0 UNK        -0.2013 
      2 C          20.9078  -28.2487  -49.3679 C.2       0 UNK         0.4866 
      3 O          21.5862  -29.2700  -49.2582 O.2       0 UNK        -0.5176 
      4 N          20.3746  -27.6169  -48.3191 N.am      1 UNK        -0.4884 
      5 CA         20.5222  -28.0150  -46.9203 C.3       1 UNK         0.0853 
      6 C6         19.6177  -29.2185  -46.5463 C.3       10 UNK        -0.0849 
      7 S7         17.8178  -28.8981  -46.5528 S.3       10 UNK        -0.2776 
      8 C8         17.2097  -30.2784  -45.5278 C.3       10 UNK         0.0316 
      9 C9         17.4591  -30.0556  -44.0408 C.ar      10 UNK        -0.0863 
     10 C10        18.6226  -30.5426  -43.4370 C.ar      10 UNK        -0.1009 
     11 C11        18.8506  -30.3475  -42.0732 C.ar      10 UNK        -0.0712 
     12 C12        17.8840  -29.7032  -41.2995 C.ar      10 UNK        -0.0894 
     13 C13        16.7376  -29.1731  -41.8944 C.ar      10 UNK        -0.0745 
     14 C14        16.5244  -29.3618  -43.2646 C.ar      10 UNK        -0.0972 
     15 C15        15.7478  -28.3666  -41.0671 C.3       10 UNK         0.0209 
     16 S16        16.0111  -26.5769  -41.2940 S.3       10 UNK        -0.2568 
     17 C17        17.2225  -26.1457  -39.9910 C.3       10 UNK        -0.0983 
     18 CA         18.7074  -26.4426  -40.3361 C.3       3 UNK         0.0876 
     19 N          19.0718  -26.0339  -41.6928 N.am      3 UNK        -0.4424 
     20 C          20.1452  -26.4670  -42.3636 C.2       2 UNK         0.4918 
     21 O          20.9583  -27.2918  -41.9349 O.2       2 UNK        -0.4875 
     22 CA         20.3562  -25.8439  -43.7439 C.3       2 UNK         0.0481 
     23 CB         21.5406  -24.8601  -43.7326 C.3       2 UNK        -0.1831 
     24 N          20.5668  -26.9026  -44.7276 N.am      2 UNK        -0.4498 
     25 C          20.2990  -26.7758  -46.0327 C.2       1 UNK         0.5027 
     26 O          19.8873  -25.7289  -46.5455 O.2       1 UNK        -0.4969 
     27 C          19.6569  -25.8021  -39.3049 C.2       3 UNK         0.5005 
     28 O          20.2097  -24.7298  -39.5654 O.2       3 UNK        -0.5279 
     29 N          19.8543  -26.4820  -38.1647 N.am      4 UNK        -0.4463 
     30 CA         20.7585  -26.1562  -37.0452 C.3       4 UNK         0.0283 
     31 CB         20.4192  -24.7930  -36.4109 C.3       4 UNK        -0.1875 
     32 C          22.2602  -26.2527  -37.3837 C.2       4 UNK         0.4949 
     33 O          23.0385  -26.6951  -36.5395 O.2       4 UNK        -0.5039 
     34 N          22.6377  -25.8817  -38.6130 N.am      5 UNK        -0.4663 
     35 CA         23.9818  -26.0174  -39.1811 C.3       5 UNK         0.0242 
     36 CB         24.0571  -25.1756  -40.4655 C.3       5 UNK        -0.1982 
     37 C          24.3807  -27.4752  -39.4795 C.2       5 UNK         0.5017 
     38 O          25.5718  -27.7456  -39.6339 O.2       5 UNK        -0.5012 
     39 N          23.3847  -28.3715  -39.5709 N.am      6 UNK        -0.4439 
     40 CA         23.4923  -29.8060  -39.8713 C.3       6 UNK         0.0297 
     41 CB         24.3178  -30.5461  -38.7974 C.3       6 UNK        -0.2006 
     42 C          23.9810  -30.1008  -41.3038 C.2       6 UNK         0.4892 
     43 O          24.5143  -31.1835  -41.5548 O.2       6 UNK        -0.5089 
     44 N          23.7855  -29.1476  -42.2263 N.am      7 UNK        -0.4243 
     45 CA         24.1796  -29.2710  -43.6280 C.3       7 UNK         0.0196 
     46 CB         24.1435  -27.8911  -44.2998 C.3       7 UNK        -0.2007 
     47 C          23.2622  -30.2658  -44.3492 C.2       7 UNK         0.5020 
     48 O          22.0447  -30.0906  -44.3228 O.2       7 UNK        -0.5147 
     49 N          23.8665  -31.2925  -44.9554 N.am      8 UNK        -0.4734 
     50 CA         23.2575  -32.4464  -45.6296 C.3       8 UNK         0.0238 
     51 CB         22.2124  -32.0378  -46.6874 C.3       8 UNK        -0.1912 
     52 C          22.6954  -33.5085  -44.6683 C.2       8 UNK         0.5038 
     53 O          22.9585  -34.6905  -44.8949 O.2       8 UNK        -0.5046 
     54 N          21.9440  -33.1027  -43.6326 N.am      9 UNK        -0.4200 
     55 CA         21.3537  -34.0347  -42.6516 C.3       9 UNK         0.0839 
     56 C          22.3469  -34.6012  -41.5950 C.2       9 UNK         0.5513 
     57 N          23.5101  -33.9993  -41.3772 N.am      9 UNK        -0.7519 
     58 O          22.0618  -35.6234  -40.9763 O.2       9 UNK        -0.4960 
     59 C59        20.0171  -33.5206  -42.0447 C.3       10 UNK        -0.0876 
     60 S60        20.1456  -32.3635  -40.6343 S.3       10 UNK        -0.2414 
     61 C61        20.1772  -30.7433  -41.4479 C.3       10 UNK         0.0169 
     62 H62        21.5969  -27.3909  -51.2210 H         1 UNK         0.0903 
     63 H63        20.1411  -28.3781  -51.3772 H         1 UNK         0.0903 
     64 H64        20.0374  -26.7551  -50.6925 H         1 UNK         0.0903 
     65 H65        19.8636  -26.7493  -48.4346 H         1 UNK         0.3096 
     66 H66        21.5626  -28.3137  -46.7684 H         1 UNK         0.1121 
     67 H67        19.8142  -30.0539  -47.2191 H         1 UNK         0.0849 
     68 H68        19.9050  -29.5678  -45.5601 H         1 UNK         0.0849 
     69 H69        16.1395  -30.3980  -45.7032 H         1 UNK         0.0865 
     70 H70        17.6724  -31.2104  -45.8566 H         1 UNK         0.0865 
     71 H71        19.3657  -31.0565  -44.0301 H         1 UNK         0.1346 
     72 H72        18.0506  -29.5732  -40.2397 H         1 UNK         0.1412 
     73 H73        15.6360  -28.9557  -43.7292 H         1 UNK         0.1426 
     74 H74        15.8126  -28.6271  -40.0097 H         1 UNK         0.0716 
     75 H75        14.7322  -28.6138  -41.3797 H         1 UNK         0.0716 
     76 H76        16.9383  -26.6528  -39.0672 H         1 UNK         0.0695 
     77 H77        17.0925  -25.0794  -39.7941 H         1 UNK         0.0695 
     78 H78        18.8695  -27.5153  -40.2755 H         1 UNK         0.0983 
     79 H79        18.4710  -25.3429  -42.1164 H         1 UNK         0.3095 
     80 H80        19.4515  -25.2924  -44.0105 H         1 UNK         0.0454 
     81 H81        22.4805  -25.3578  -43.4965 H         1 UNK         0.0851 
     82 H82        21.3906  -24.0803  -42.9848 H         1 UNK         0.0851 
     83 H83        21.6574  -24.3649  -44.6964 H         1 UNK         0.0851 
     84 H84        20.8648  -27.7955  -44.3499 H         1 UNK         0.2976 
     85 H85        19.3583  -27.3561  -38.0521 H         1 UNK         0.3116 
     86 H86        20.5668  -26.9191  -36.2886 H         1 UNK         0.0646 
     87 H87        19.3700  -24.7394  -36.1211 H         1 UNK         0.0847 
     88 H88        21.0124  -24.6271  -35.5106 H         1 UNK         0.0847 
     89 H89        20.6241  -23.9621  -37.0864 H         1 UNK         0.0847 
     90 H90        21.9225  -25.4664  -39.2052 H         1 UNK         0.3040 
     91 H91        24.7009  -25.6224  -38.4600 H         1 UNK         0.1015 
     92 H92        23.3423  -25.5219  -41.2127 H         1 UNK         0.0786 
     93 H93        25.0506  -25.2293  -40.9132 H         1 UNK         0.0786 
     94 H94        23.8493  -24.1244  -40.2646 H         1 UNK         0.0786 
     95 H95        22.4459  -28.0155  -39.4585 H         1 UNK         0.3172 
     96 H96        22.4810  -30.2025  -39.8102 H         1 UNK         0.0595 
     97 H97        25.3753  -30.2852  -38.8453 H         1 UNK         0.0839 
     98 H98        24.2465  -31.6267  -38.9284 H         1 UNK         0.0839 
     99 H99        23.9596  -30.3189  -37.7934 H         1 UNK         0.0839 
    100 H100       23.2602  -28.3239  -41.9674 H         1 UNK         0.2998 
    101 H101       25.2085  -29.6362  -43.6617 H         1 UNK         0.0822 
    102 H102       24.4517  -27.9562  -45.3441 H         1 UNK         0.0787 
    103 H103       23.1432  -27.4652  -44.2813 H         1 UNK         0.0787 
    104 H104       24.8155  -27.1900  -43.8044 H         1 UNK         0.0787 
    105 H105       24.8741  -31.3400  -44.8817 H         1 UNK         0.3055 
    106 H106       24.0790  -32.9244  -46.1665 H         1 UNK         0.1106 
    107 H107       22.5906  -31.2566  -47.3470 H         1 UNK         0.0828 
    108 H108       21.9441  -32.8898  -47.3130 H         1 UNK         0.0828 
    109 H109       21.2912  -31.6779  -46.2309 H         1 UNK         0.0828 
    110 H110       21.7860  -32.1118  -43.5036 H         1 UNK         0.2931 
    111 H111       21.0577  -34.9130  -43.2298 H         1 UNK         0.0412 
    112 H112       24.1407  -34.3922  -40.6971 H         1 UNK         0.3472 
    113 H113       23.7428  -33.1181  -41.8178 H         1 UNK         0.3472 
    114 H114       19.3842  -33.0986  -42.8237 H         1 UNK         0.0970 
    115 H115       19.4547  -34.3799  -41.6751 H         1 UNK         0.0970 
    116 H116       20.9740  -30.7315  -42.1861 H         1 UNK         0.0612 
    117 H117       20.4452  -29.9875  -40.7099 H         1 UNK         0.0612 
@<TRIPOS>BOND
     1    1    2 1    
     2    1   62 1    
     3    1   63 1    
     4    1   64 1    
     5    2    3 2    
     6    2    4 am   BACKBONE|DICT|INTERRES
     7    4    5 1    
     8    4   65 1    
     9    5    6 1    
    10    5   25 1    
    11    5   66 1    
    12    6    7 1    
    13    6   67 1    
    14    6   68 1    
    15    7    8 1    
    16    8    9 1    
    17    8   69 1    
    18    8   70 1    
    19    9   10 ar   
    20    9   14 ar   
    21   10   11 ar   
    22   10   71 1    
    23   11   12 ar   
    24   11   61 1    
    25   12   13 ar   
    26   12   72 1    
    27   13   14 ar   
    28   13   15 1    
    29   14   73 1    
    30   15   16 1    
    31   15   74 1    
    32   15   75 1    
    33   16   17 1    
    34   17   18 1    
    35   17   76 1    
    36   17   77 1    
    37   18   19 1    
    38   18   27 1    
    39   18   78 1    
    40   19   20 am   BACKBONE|DICT|INTERRES
    41   19   79 1    
    42   20   21 2    
    43   20   22 1    
    44   22   23 1    
    45   22   24 1    
    46   22   80 1    
    47   23   81 1    
    48   23   82 1    
    49   23   83 1    
    50   24   25 am   BACKBONE|DICT|INTERRES
    51   24   84 1    
    52   25   26 2    
    53   27   28 2    
    54   27   29 am   BACKBONE|DICT|INTERRES
    55   29   30 1    
    56   29   85 1    
    57   30   31 1    
    58   30   32 1    
    59   30   86 1    
    60   31   87 1    
    61   31   88 1    
    62   31   89 1    
    63   32   33 2    
    64   32   34 am   BACKBONE|DICT|INTERRES
    65   34   35 1    
    66   34   90 1    
    67   35   36 1    
    68   35   37 1    
    69   35   91 1    
    70   36   92 1    
    71   36   93 1    
    72   36   94 1    
    73   37   38 2    
    74   37   39 am   BACKBONE|DICT|INTERRES
    75   39   40 1    
    76   39   95 1    
    77   40   41 1    
    78   40   42 1    
    79   40   96 1    
    80   41   97 1    
    81   41   98 1    
    82   41   99 1    
    83   42   43 2    
    84   42   44 am   BACKBONE|DICT|INTERRES
    85   44   45 1    
    86   44  100 1    
    87   45   46 1    
    88   45   47 1    
    89   45  101 1    
    90   46  102 1    
    91   46  103 1    
    92   46  104 1    
    93   47   48 2    
    94   47   49 am   BACKBONE|DICT|INTERRES
    95   49   50 1    
    96   49  105 1    
    97   50   51 1    
    98   50   52 1    
    99   50  106 1    
   100   51  107 1    
   101   51  108 1    
   102   51  109 1    
   103   52   53 2    
   104   52   54 am   BACKBONE|DICT|INTERRES
   105   54   55 1    
   106   54  110 1    
   107   55   56 1    
   108   55   59 1    
   109   55  111 1    
   110   56   57 am   BACKBONE|DICT|INTERRES
   111   56   58 2    
   112   57  112 1    
   113   57  113 1    
   114   59   60 1    
   115   59  114 1    
   116   59  115 1    
   117   60   61 1    
   118   61  116 1    
   119   61  117 1    
@<TRIPOS>SUBSTRUCTURE
     1 UNK         1 GROUP             0       ****    0 ROOT    
