@<TRIPOS>MOLECULE
3R8
117   119    1
SMALL
USER_CHARGES


@<TRIPOS>ATOM
      1 CA         16.3012  -25.2366  -48.9296 C.3       0 UNK        -0.2013 
      2 C          17.7549  -25.3057  -48.4858 C.2       0 UNK         0.4866 
      3 O          18.6540  -25.1606  -49.3147 O.2       0 UNK        -0.5176 
      4 N          17.9857  -25.5233  -47.1873 N.am      1 UNK        -0.4884 
      5 CA         19.3048  -25.5741  -46.5522 C.3       1 UNK         0.0853 
      6 C6         19.7060  -27.0086  -46.1093 C.3       10 UNK        -0.0849 
      7 S7         19.6663  -28.2710  -47.4240 S.3       10 UNK        -0.2776 
      8 C8         18.1032  -29.1373  -47.0526 C.3       10 UNK         0.0316 
      9 C9         18.0699  -29.7290  -45.6465 C.ar      10 UNK        -0.0863 
     10 C10        18.9600  -30.7451  -45.2864 C.ar      10 UNK        -0.1009 
     11 C11        18.9295  -31.3105  -44.0074 C.ar      10 UNK        -0.0712 
     12 C12        17.9861  -30.8382  -43.0836 C.ar      10 UNK        -0.0894 
     13 C13        17.0890  -29.8222  -43.4274 C.ar      10 UNK        -0.0745 
     14 C14        17.1383  -29.2690  -44.7099 C.ar      10 UNK        -0.0972 
     15 C15        16.0257  -29.3714  -42.4328 C.3       10 UNK         0.0209 
     16 S16        16.7298  -28.6876  -40.8973 S.3       10 UNK        -0.2568 
     17 C17        17.2644  -27.0190  -41.4102 C.3       10 UNK        -0.0983 
     18 CA         18.8035  -26.8612  -41.4550 C.3       3 UNK         0.0876 
     19 N          19.1849  -25.6491  -42.1876 N.am      3 UNK        -0.4424 
     20 C          20.4401  -25.2634  -42.4504 C.2       2 UNK         0.4918 
     21 O          21.4357  -25.8976  -42.1000 O.2       2 UNK        -0.4875 
     22 CA         20.6019  -24.0117  -43.3329 C.3       2 UNK         0.0481 
     23 CB         21.9760  -23.3428  -43.1480 C.3       2 UNK        -0.1831 
     24 N          20.4445  -24.4121  -44.7307 N.am      2 UNK        -0.4498 
     25 C          19.2629  -24.6858  -45.2985 C.2       1 UNK         0.5027 
     26 O          18.1772  -24.3653  -44.8026 O.2       1 UNK        -0.4969 
     27 C          19.4416  -26.8988  -40.0468 C.2       3 UNK         0.5005 
     28 O          19.5355  -25.8597  -39.3891 O.2       3 UNK        -0.5279 
     29 N          19.9064  -28.0898  -39.6453 N.am      4 UNK        -0.4463 
     30 CA         20.6700  -28.4221  -38.4334 C.3       4 UNK         0.0283 
     31 CB         19.9620  -27.9569  -37.1453 C.3       4 UNK        -0.1875 
     32 C          22.1445  -27.9730  -38.4624 C.2       4 UNK         0.4949 
     33 O          22.9619  -28.6058  -37.7927 O.2       4 UNK        -0.5039 
     34 N          22.4810  -26.9339  -39.2387 N.am      5 UNK        -0.4663 
     35 CA         23.8613  -26.5160  -39.4959 C.3       5 UNK         0.0242 
     36 CB         23.9050  -25.0065  -39.7853 C.3       5 UNK        -0.1982 
     37 C          24.4765  -27.3200  -40.6526 C.2       5 UNK         0.5017 
     38 O          25.6235  -27.7553  -40.5441 O.2       5 UNK        -0.5012 
     39 N          23.7030  -27.5048  -41.7316 N.am      6 UNK        -0.4439 
     40 CA         24.0546  -28.3041  -42.9046 C.3       6 UNK         0.0297 
     41 CB         23.0032  -28.0779  -44.0038 C.3       6 UNK        -0.2006 
     42 C          24.1532  -29.7983  -42.5624 C.2       6 UNK         0.4892 
     43 O          23.2631  -30.3341  -41.8978 O.2       6 UNK        -0.5089 
     44 N          25.2218  -30.4459  -43.0396 N.am      7 UNK        -0.4243 
     45 CA         25.4571  -31.8803  -42.8748 C.3       7 UNK         0.0196 
     46 CB         26.9149  -32.1890  -43.2561 C.3       7 UNK        -0.2007 
     47 C          24.4853  -32.7149  -43.7373 C.2       7 UNK         0.5020 
     48 O          24.0938  -32.2548  -44.8096 O.2       7 UNK        -0.5147 
     49 N          24.1134  -33.9375  -43.3326 N.am      8 UNK        -0.4734 
     50 CA         24.4678  -34.6237  -42.0820 C.3       8 UNK         0.0238 
     51 CB         24.4159  -36.1404  -42.3348 C.3       8 UNK        -0.1912 
     52 C          23.5545  -34.2513  -40.8965 C.2       8 UNK         0.5038 
     53 O          23.8107  -34.7106  -39.7830 O.2       8 UNK        -0.5046 
     54 N          22.5006  -33.4672  -41.1556 N.am      9 UNK        -0.4200 
     55 CA         21.4635  -33.0844  -40.1854 C.3       9 UNK         0.0839 
     56 C          21.9761  -32.2036  -39.0148 C.2       9 UNK         0.5513 
     57 N          22.8809  -31.2680  -39.2639 N.am      9 UNK        -0.7519 
     58 O          21.5365  -32.3642  -37.8797 O.2       9 UNK        -0.4960 
     59 C59        20.2498  -32.4101  -40.8758 C.3       10 UNK        -0.0876 
     60 S60        19.5454  -33.4368  -42.2129 S.3       10 UNK        -0.2414 
     61 C61        19.9294  -32.4256  -43.6865 C.3       10 UNK         0.0169 
     62 H62        16.0901  -24.2644  -49.3743 H         1 UNK         0.0903 
     63 H63        16.1010  -26.0042  -49.6767 H         1 UNK         0.0903 
     64 H64        15.6127  -25.3860  -48.0980 H         1 UNK         0.0903 
     65 H65        17.2145  -25.5381  -46.5325 H         1 UNK         0.3096 
     66 H66        20.0659  -25.1729  -47.2253 H         1 UNK         0.1121 
     67 H67        19.0872  -27.3357  -45.2730 H         1 UNK         0.0849 
     68 H68        20.7261  -27.0068  -45.7218 H         1 UNK         0.0849 
     69 H69        17.9640  -29.9394  -47.7787 H         1 UNK         0.0865 
     70 H70        17.2732  -28.4453  -47.2031 H         1 UNK         0.0865 
     71 H71        19.6815  -31.0979  -46.0114 H         1 UNK         0.1346 
     72 H72        17.9269  -31.2602  -42.0913 H         1 UNK         0.1412 
     73 H73        16.4399  -28.4900  -44.9844 H         1 UNK         0.1426 
     74 H74        15.4099  -30.2339  -42.1738 H         1 UNK         0.0716 
     75 H75        15.3483  -28.6415  -42.8788 H         1 UNK         0.0716 
     76 H76        16.8203  -26.2863  -40.7335 H         1 UNK         0.0695 
     77 H77        16.8418  -26.8089  -42.3941 H         1 UNK         0.0695 
     78 H78        19.2097  -27.6942  -42.0343 H         1 UNK         0.0983 
     79 H79        18.4289  -25.0836  -42.5488 H         1 UNK         0.3095 
     80 H80        19.8314  -23.2865  -43.0624 H         1 UNK         0.0454 
     81 H81        22.7972  -24.0129  -43.4061 H         1 UNK         0.0851 
     82 H82        22.1201  -23.0351  -42.1117 H         1 UNK         0.0851 
     83 H83        22.0672  -22.4493  -43.7655 H         1 UNK         0.0851 
     84 H84        21.2872  -24.7181  -45.1962 H         1 UNK         0.2976 
     85 H85        19.7712  -28.8686  -40.2749 H         1 UNK         0.3116 
     86 H86        20.6879  -29.5121  -38.4054 H         1 UNK         0.0646 
     87 H87        19.9688  -26.8718  -37.0410 H         1 UNK         0.0847 
     88 H88        20.4597  -28.3646  -36.2646 H         1 UNK         0.0847 
     89 H89        18.9257  -28.2930  -37.1166 H         1 UNK         0.0847 
     90 H90        21.7496  -26.4528  -39.7472 H         1 UNK         0.3040 
     91 H91        24.4658  -26.7008  -38.6048 H         1 UNK         0.1015 
     92 H92        23.3346  -24.7430  -40.6753 H         1 UNK         0.0786 
     93 H93        24.9307  -24.6723  -39.9469 H         1 UNK         0.0786 
     94 H94        23.5051  -24.4321  -38.9496 H         1 UNK         0.0786 
     95 H95        22.7900  -27.0557  -41.7515 H         1 UNK         0.3172 
     96 H96        25.0216  -27.9542  -43.2718 H         1 UNK         0.0595 
     97 H97        23.2404  -28.6548  -44.8988 H         1 UNK         0.0839 
     98 H98        22.9550  -27.0289  -44.2957 H         1 UNK         0.0839 
     99 H99        22.0073  -28.3810  -43.6763 H         1 UNK         0.0839 
    100 H100       25.8850  -29.9410  -43.6091 H         1 UNK         0.2998 
    101 H101       25.3120  -32.1049  -41.8176 H         1 UNK         0.0822 
    102 H102       27.1426  -33.2481  -43.1309 H         1 UNK         0.0787 
    103 H103       27.1206  -31.9363  -44.2973 H         1 UNK         0.0787 
    104 H104       27.6148  -31.6333  -42.6315 H         1 UNK         0.0787 
    105 H105       23.4981  -34.4563  -43.9432 H         1 UNK         0.3055 
    106 H106       25.4914  -34.3794  -41.7942 H         1 UNK         0.1106 
    107 H107       24.7163  -36.6978  -41.4463 H         1 UNK         0.0828 
    108 H108       23.4120  -36.4727  -42.6022 H         1 UNK         0.0828 
    109 H109       25.0921  -36.4328  -43.1385 H         1 UNK         0.0828 
    110 H110       22.3777  -33.1216  -42.0947 H         1 UNK         0.2931 
    111 H111       21.1035  -34.0140  -39.7393 H         1 UNK         0.0412 
    112 H112       23.1858  -30.6584  -38.5179 H         1 UNK         0.3472 
    113 H113       23.1491  -31.0627  -40.2237 H         1 UNK         0.3472 
    114 H114       20.5315  -31.4316  -41.2707 H         1 UNK         0.0970 
    115 H115       19.4574  -32.2245  -40.1481 H         1 UNK         0.0970 
    116 H116       19.9767  -33.1055  -44.5384 H         1 UNK         0.0612 
    117 H117       20.9270  -31.9946  -43.5862 H         1 UNK         0.0612 
@<TRIPOS>BOND
     1    1    2 1    
     2    1   62 1    
     3    1   63 1    
     4    1   64 1    
     5    2    3 2    
     6    2    4 am   BACKBONE|DICT|INTERRES
     7    4    5 1    
     8    4   65 1    
     9    5    6 1    
    10    5   25 1    
    11    5   66 1    
    12    6    7 1    
    13    6   67 1    
    14    6   68 1    
    15    7    8 1    
    16    8    9 1    
    17    8   69 1    
    18    8   70 1    
    19    9   10 ar   
    20    9   14 ar   
    21   10   11 ar   
    22   10   71 1    
    23   11   12 ar   
    24   11   61 1    
    25   12   13 ar   
    26   12   72 1    
    27   13   14 ar   
    28   13   15 1    
    29   14   73 1    
    30   15   16 1    
    31   15   74 1    
    32   15   75 1    
    33   16   17 1    
    34   17   18 1    
    35   17   76 1    
    36   17   77 1    
    37   18   19 1    
    38   18   27 1    
    39   18   78 1    
    40   19   20 am   BACKBONE|DICT|INTERRES
    41   19   79 1    
    42   20   21 2    
    43   20   22 1    
    44   22   23 1    
    45   22   24 1    
    46   22   80 1    
    47   23   81 1    
    48   23   82 1    
    49   23   83 1    
    50   24   25 am   BACKBONE|DICT|INTERRES
    51   24   84 1    
    52   25   26 2    
    53   27   28 2    
    54   27   29 am   BACKBONE|DICT|INTERRES
    55   29   30 1    
    56   29   85 1    
    57   30   31 1    
    58   30   32 1    
    59   30   86 1    
    60   31   87 1    
    61   31   88 1    
    62   31   89 1    
    63   32   33 2    
    64   32   34 am   BACKBONE|DICT|INTERRES
    65   34   35 1    
    66   34   90 1    
    67   35   36 1    
    68   35   37 1    
    69   35   91 1    
    70   36   92 1    
    71   36   93 1    
    72   36   94 1    
    73   37   38 2    
    74   37   39 am   BACKBONE|DICT|INTERRES
    75   39   40 1    
    76   39   95 1    
    77   40   41 1    
    78   40   42 1    
    79   40   96 1    
    80   41   97 1    
    81   41   98 1    
    82   41   99 1    
    83   42   43 2    
    84   42   44 am   BACKBONE|DICT|INTERRES
    85   44   45 1    
    86   44  100 1    
    87   45   46 1    
    88   45   47 1    
    89   45  101 1    
    90   46  102 1    
    91   46  103 1    
    92   46  104 1    
    93   47   48 2    
    94   47   49 am   BACKBONE|DICT|INTERRES
    95   49   50 1    
    96   49  105 1    
    97   50   51 1    
    98   50   52 1    
    99   50  106 1    
   100   51  107 1    
   101   51  108 1    
   102   51  109 1    
   103   52   53 2    
   104   52   54 am   BACKBONE|DICT|INTERRES
   105   54   55 1    
   106   54  110 1    
   107   55   56 1    
   108   55   59 1    
   109   55  111 1    
   110   56   57 am   BACKBONE|DICT|INTERRES
   111   56   58 2    
   112   57  112 1    
   113   57  113 1    
   114   59   60 1    
   115   59  114 1    
   116   59  115 1    
   117   60   61 1    
   118   61  116 1    
   119   61  117 1    
@<TRIPOS>SUBSTRUCTURE
     1 UNK         1 GROUP             0       ****    0 ROOT    
