@<TRIPOS>MOLECULE
3R8
117   119    1
SMALL
USER_CHARGES


@<TRIPOS>ATOM
      1 CA         19.1465  -30.3881  -49.6123 C.3       0 UNK        -0.2013 
      2 C          18.8063  -29.8895  -48.2167 C.2       0 UNK         0.4866 
      3 O          19.3865  -30.3615  -47.2378 O.2       0 UNK        -0.5176 
      4 N          17.8771  -28.9306  -48.1122 N.am      1 UNK        -0.4884 
      5 CA         17.4151  -28.3317  -46.8535 C.3       1 UNK         0.0853 
      6 C6         15.9567  -27.8103  -46.9635 C.3       10 UNK        -0.0849 
      7 S7         14.7736  -29.2034  -47.0636 S.3       10 UNK        -0.2776 
      8 C8         14.0584  -29.2758  -45.3792 C.3       10 UNK         0.0316 
      9 C9         15.1128  -29.1418  -44.2874 C.ar      10 UNK        -0.0863 
     10 C10        16.0822  -30.1327  -44.1099 C.ar      10 UNK        -0.1009 
     11 C11        17.1354  -29.9393  -43.2105 C.ar      10 UNK        -0.0712 
     12 C12        17.1822  -28.7720  -42.4417 C.ar      10 UNK        -0.0894 
     13 C13        16.1864  -27.7992  -42.5731 C.ar      10 UNK        -0.0745 
     14 C14        15.1551  -27.9910  -43.4959 C.ar      10 UNK        -0.0972 
     15 C15        16.2289  -26.5215  -41.7508 C.3       10 UNK         0.0209 
     16 S16        16.8154  -25.1306  -42.7673 S.3       10 UNK        -0.2568 
     17 C17        18.3009  -24.5934  -41.8591 C.3       10 UNK        -0.0983 
     18 CA         19.5137  -25.5500  -42.0138 C.3       3 UNK         0.0876 
     19 N          19.8415  -25.8058  -43.4191 N.am      3 UNK        -0.4424 
     20 C          20.4651  -26.8958  -43.8766 C.2       2 UNK         0.4918 
     21 O          20.8300  -27.8285  -43.1573 O.2       2 UNK        -0.4875 
     22 CA         20.6987  -26.9614  -45.3926 C.3       2 UNK         0.0481 
     23 CB         22.0506  -27.6118  -45.7317 C.3       2 UNK        -0.1831 
     24 N          19.6296  -27.7345  -46.0150 N.am      2 UNK        -0.4498 
     25 C          18.4137  -27.2751  -46.3353 C.2       1 UNK         0.5027 
     26 O          18.0884  -26.0893  -46.2537 O.2       1 UNK        -0.4969 
     27 C          20.7558  -25.0350  -41.2539 C.2       3 UNK         0.5005 
     28 O          20.7888  -23.8733  -40.8409 O.2       3 UNK        -0.5279 
     29 N          21.7700  -25.8937  -41.1045 N.am      4 UNK        -0.4463 
     30 CA         23.0182  -25.6030  -40.4070 C.3       4 UNK         0.0283 
     31 CB         24.0687  -25.1041  -41.4148 C.3       4 UNK        -0.1875 
     32 C          23.5045  -26.8738  -39.7112 C.2       4 UNK         0.4949 
     33 O          23.3773  -27.9620  -40.2768 O.2       4 UNK        -0.5039 
     34 N          24.1112  -26.7118  -38.5284 N.am      5 UNK        -0.4663 
     35 CA         24.6898  -27.7986  -37.7262 C.3       5 UNK         0.0242 
     36 CB         25.0434  -27.2629  -36.3293 C.3       5 UNK        -0.1982 
     37 C          25.9165  -28.4672  -38.3747 C.2       5 UNK         0.5017 
     38 O          26.2377  -29.6028  -38.0263 O.2       5 UNK        -0.5012 
     39 N          26.5627  -27.7658  -39.3172 N.am      6 UNK        -0.4439 
     40 CA         27.6269  -28.2949  -40.1726 C.3       6 UNK         0.0297 
     41 CB         28.3119  -27.1310  -40.9074 C.3       6 UNK        -0.2006 
     42 C          27.1199  -29.3434  -41.1817 C.2       6 UNK         0.4892 
     43 O          27.8939  -30.2195  -41.5694 O.2       6 UNK        -0.5089 
     44 N          25.8448  -29.2376  -41.5842 N.am      7 UNK        -0.4243 
     45 CA         25.1671  -30.1990  -42.4517 C.3       7 UNK         0.0196 
     46 CB         24.2124  -29.4573  -43.4036 C.3       7 UNK        -0.2007 
     47 C          24.4085  -31.2328  -41.6108 C.2       7 UNK         0.5020 
     48 O          24.5679  -32.4314  -41.8410 O.2       7 UNK        -0.5147 
     49 N          23.5862  -30.7486  -40.6649 N.am      8 UNK        -0.4734 
     50 CA         22.7563  -31.5136  -39.7195 C.3       8 UNK         0.0238 
     51 CB         23.6474  -32.1806  -38.6512 C.3       8 UNK        -0.1912 
     52 C          21.7931  -32.5187  -40.3887 C.2       8 UNK         0.5038 
     53 O          21.4654  -33.5440  -39.7881 O.2       8 UNK        -0.5046 
     54 N          21.3804  -32.2140  -41.6266 N.am      9 UNK        -0.4200 
     55 CA         20.6062  -33.0838  -42.5277 C.3       9 UNK         0.0839 
     56 C          21.3606  -34.3679  -42.9948 C.2       9 UNK         0.5513 
     57 N          22.6801  -34.4516  -42.8694 N.am      9 UNK        -0.7519 
     58 O          20.7453  -35.2967  -43.5127 O.2       9 UNK        -0.4960 
     59 C59        19.1675  -33.3913  -42.0119 C.3       10 UNK        -0.0876 
     60 S60        18.1687  -31.9238  -41.5777 S.3       10 UNK        -0.2414 
     61 C61        18.2537  -30.9638  -43.1190 C.3       10 UNK         0.0169 
     62 H62        18.9170  -31.4510  -49.6964 H         1 UNK         0.0903 
     63 H63        18.5868  -29.8567  -50.3834 H         1 UNK         0.0903 
     64 H64        20.2105  -30.2519  -49.8095 H         1 UNK         0.0903 
     65 H65        17.4446  -28.5674  -48.9498 H         1 UNK         0.3096 
     66 H66        17.4241  -29.1142  -46.0960 H         1 UNK         0.1121 
     67 H67        15.8396  -27.1790  -47.8458 H         1 UNK         0.0849 
     68 H68        15.6917  -27.1779  -46.1148 H         1 UNK         0.0849 
     69 H69        13.3053  -28.4918  -45.2854 H         1 UNK         0.0865 
     70 H70        13.5286  -30.2215  -45.2570 H         1 UNK         0.0865 
     71 H71        16.0534  -31.0221  -44.7251 H         1 UNK         0.1346 
     72 H72        18.0008  -28.6223  -41.7514 H         1 UNK         0.1412 
     73 H73        14.4078  -27.2194  -43.6239 H         1 UNK         0.1426 
     74 H74        16.8578  -26.6521  -40.8691 H         1 UNK         0.0716 
     75 H75        15.2295  -26.2914  -41.3786 H         1 UNK         0.0716 
     76 H76        18.5534  -23.5961  -42.2246 H         1 UNK         0.0695 
     77 H77        18.0385  -24.4714  -40.8064 H         1 UNK         0.0695 
     78 H78        19.2387  -26.4984  -41.5486 H         1 UNK         0.0983 
     79 H79        19.5385  -25.1043  -44.0797 H         1 UNK         0.3095 
     80 H80        20.7018  -25.9472  -45.7975 H         1 UNK         0.0454 
     81 H81        22.8709  -27.0850  -45.2426 H         1 UNK         0.0851 
     82 H82        22.0919  -28.6528  -45.4095 H         1 UNK         0.0851 
     83 H83        22.2427  -27.5882  -46.8043 H         1 UNK         0.0851 
     84 H84        19.8009  -28.7260  -46.1530 H         1 UNK         0.2976 
     85 H85        21.6821  -26.8368  -41.4734 H         1 UNK         0.3116 
     86 H86        22.8504  -24.8352  -39.6483 H         1 UNK         0.0646 
     87 H87        25.0136  -24.8772  -40.9202 H         1 UNK         0.0847 
     88 H88        23.7380  -24.1912  -41.9103 H         1 UNK         0.0847 
     89 H89        24.2716  -25.8474  -42.1873 H         1 UNK         0.0847 
     90 H90        24.1805  -25.7807  -38.1409 H         1 UNK         0.3040 
     91 H91        23.9282  -28.5742  -37.6141 H         1 UNK         0.1015 
     92 H92        24.1640  -26.8666  -35.8210 H         1 UNK         0.0786 
     93 H93        25.7914  -26.4703  -36.3770 H         1 UNK         0.0786 
     94 H94        25.4487  -28.0556  -35.6984 H         1 UNK         0.0786 
     95 H95        26.2465  -26.8259  -39.5043 H         1 UNK         0.3172 
     96 H96        28.3676  -28.7801  -39.5331 H         1 UNK         0.0595 
     97 H97        28.7390  -26.4138  -40.2061 H         1 UNK         0.0839 
     98 H98        27.6176  -26.5955  -41.5565 H         1 UNK         0.0839 
     99 H99        29.1284  -27.4931  -41.5339 H         1 UNK         0.0839 
    100 H100       25.2635  -28.5196  -41.1715 H         1 UNK         0.2998 
    101 H101       25.8992  -30.7328  -43.0621 H         1 UNK         0.0822 
    102 H102       23.6920  -30.1593  -44.0567 H         1 UNK         0.0787 
    103 H103       23.4530  -28.8873  -42.8667 H         1 UNK         0.0787 
    104 H104       24.7565  -28.7630  -44.0439 H         1 UNK         0.0787 
    105 H105       23.5067  -29.7356  -40.5785 H         1 UNK         0.3055 
    106 H106       22.1203  -30.7854  -39.2133 H         1 UNK         0.1106 
    107 H107       24.2859  -32.9514  -39.0838 H         1 UNK         0.0828 
    108 H108       24.2896  -31.4513  -38.1591 H         1 UNK         0.0828 
    109 H109       23.0464  -32.6529  -37.8734 H         1 UNK         0.0828 
    110 H110       21.7118  -31.3504  -42.0295 H         1 UNK         0.2931 
    111 H111       20.5041  -32.5071  -43.4465 H         1 UNK         0.0412 
    112 H112       23.1496  -35.2845  -43.1874 H         1 UNK         0.3472 
    113 H113       23.2219  -33.6987  -42.4553 H         1 UNK         0.3472 
    114 H114       19.2106  -34.0413  -41.1367 H         1 UNK         0.0970 
    115 H115       18.6080  -33.9492  -42.7649 H         1 UNK         0.0970 
    116 H116       18.2127  -31.6422  -43.9729 H         1 UNK         0.0612 
    117 H117       19.2162  -30.4524  -43.1744 H         1 UNK         0.0612 
@<TRIPOS>BOND
     1    1    2 1    
     2    1   62 1    
     3    1   63 1    
     4    1   64 1    
     5    2    3 2    
     6    2    4 am   BACKBONE|DICT|INTERRES
     7    4    5 1    
     8    4   65 1    
     9    5    6 1    
    10    5   25 1    
    11    5   66 1    
    12    6    7 1    
    13    6   67 1    
    14    6   68 1    
    15    7    8 1    
    16    8    9 1    
    17    8   69 1    
    18    8   70 1    
    19    9   10 ar   
    20    9   14 ar   
    21   10   11 ar   
    22   10   71 1    
    23   11   12 ar   
    24   11   61 1    
    25   12   13 ar   
    26   12   72 1    
    27   13   14 ar   
    28   13   15 1    
    29   14   73 1    
    30   15   16 1    
    31   15   74 1    
    32   15   75 1    
    33   16   17 1    
    34   17   18 1    
    35   17   76 1    
    36   17   77 1    
    37   18   19 1    
    38   18   27 1    
    39   18   78 1    
    40   19   20 am   BACKBONE|DICT|INTERRES
    41   19   79 1    
    42   20   21 2    
    43   20   22 1    
    44   22   23 1    
    45   22   24 1    
    46   22   80 1    
    47   23   81 1    
    48   23   82 1    
    49   23   83 1    
    50   24   25 am   BACKBONE|DICT|INTERRES
    51   24   84 1    
    52   25   26 2    
    53   27   28 2    
    54   27   29 am   BACKBONE|DICT|INTERRES
    55   29   30 1    
    56   29   85 1    
    57   30   31 1    
    58   30   32 1    
    59   30   86 1    
    60   31   87 1    
    61   31   88 1    
    62   31   89 1    
    63   32   33 2    
    64   32   34 am   BACKBONE|DICT|INTERRES
    65   34   35 1    
    66   34   90 1    
    67   35   36 1    
    68   35   37 1    
    69   35   91 1    
    70   36   92 1    
    71   36   93 1    
    72   36   94 1    
    73   37   38 2    
    74   37   39 am   BACKBONE|DICT|INTERRES
    75   39   40 1    
    76   39   95 1    
    77   40   41 1    
    78   40   42 1    
    79   40   96 1    
    80   41   97 1    
    81   41   98 1    
    82   41   99 1    
    83   42   43 2    
    84   42   44 am   BACKBONE|DICT|INTERRES
    85   44   45 1    
    86   44  100 1    
    87   45   46 1    
    88   45   47 1    
    89   45  101 1    
    90   46  102 1    
    91   46  103 1    
    92   46  104 1    
    93   47   48 2    
    94   47   49 am   BACKBONE|DICT|INTERRES
    95   49   50 1    
    96   49  105 1    
    97   50   51 1    
    98   50   52 1    
    99   50  106 1    
   100   51  107 1    
   101   51  108 1    
   102   51  109 1    
   103   52   53 2    
   104   52   54 am   BACKBONE|DICT|INTERRES
   105   54   55 1    
   106   54  110 1    
   107   55   56 1    
   108   55   59 1    
   109   55  111 1    
   110   56   57 am   BACKBONE|DICT|INTERRES
   111   56   58 2    
   112   57  112 1    
   113   57  113 1    
   114   59   60 1    
   115   59  114 1    
   116   59  115 1    
   117   60   61 1    
   118   61  116 1    
   119   61  117 1    
@<TRIPOS>SUBSTRUCTURE
     1 UNK         1 GROUP             0       ****    0 ROOT    
