@<TRIPOS>MOLECULE
3R8
117   119    1
SMALL
USER_CHARGES


@<TRIPOS>ATOM
      1 CA         22.0987  -26.6323  -48.4025 C.3       0 UNK        -0.2013 
      2 C          20.7674  -26.3239  -47.7338 C.2       0 UNK         0.4866 
      3 O          20.2661  -25.2069  -47.8608 O.2       0 UNK        -0.5176 
      4 N          20.2040  -27.3056  -47.0155 N.am      1 UNK        -0.4884 
      5 CA         18.9193  -27.2438  -46.2972 C.3       1 UNK         0.0853 
      6 C6         17.6828  -27.0808  -47.2266 C.3       10 UNK        -0.0849 
      7 S7         17.5018  -28.4818  -48.3812 S.3       10 UNK        -0.2776 
      8 C8         16.2324  -29.4858  -47.5370 C.3       10 UNK         0.0316 
      9 C9         16.7009  -29.9837  -46.1749 C.ar      10 UNK        -0.0863 
     10 C10        17.7595  -30.8918  -46.0891 C.ar      10 UNK        -0.1009 
     11 C11        18.2073  -31.3461  -44.8463 C.ar      10 UNK        -0.0712 
     12 C12        17.5774  -30.8989  -43.6800 C.ar      10 UNK        -0.0894 
     13 C13        16.5152  -29.9924  -43.7499 C.ar      10 UNK        -0.0745 
     14 C14        16.0805  -29.5405  -45.0016 C.ar      10 UNK        -0.0972 
     15 C15        15.8145  -29.5262  -42.4793 C.3       10 UNK         0.0209 
     16 S16        16.0316  -27.7384  -42.2039 S.3       10 UNK        -0.2568 
     17 C17        16.9310  -27.6575  -40.6141 C.3       10 UNK        -0.0983 
     18 CA         18.4696  -27.5671  -40.7766 C.3       3 UNK         0.0876 
     19 N          18.8678  -26.5433  -41.7430 N.am      3 UNK        -0.4424 
     20 C          20.1150  -26.3207  -42.1686 C.2       2 UNK         0.4918 
     21 O          21.1006  -26.9626  -41.7951 O.2       2 UNK        -0.4875 
     22 CA         20.2554  -25.2695  -43.2780 C.3       2 UNK         0.0481 
     23 CB         21.6024  -24.5276  -43.2364 C.3       2 UNK        -0.1831 
     24 N          20.1026  -25.9627  -44.5549 N.am      2 UNK        -0.4498 
     25 C          18.9186  -26.2428  -45.1197 C.2       1 UNK         0.5027 
     26 O          17.8542  -25.7753  -44.7103 O.2       1 UNK        -0.4969 
     27 C          19.1578  -27.3206  -39.4183 C.2       3 UNK         0.5005 
     28 O          19.0932  -26.2023  -38.9013 O.2       3 UNK        -0.5279 
     29 N          19.8188  -28.3594  -38.8912 N.am      4 UNK        -0.4463 
     30 CA         20.6582  -28.3669  -37.6878 C.3       4 UNK         0.0283 
     31 CB         19.8326  -28.0361  -36.4254 C.3       4 UNK        -0.1875 
     32 C          21.9361  -27.5080  -37.8114 C.2       4 UNK         0.4949 
     33 O          22.4721  -27.0841  -36.7860 O.2       4 UNK        -0.5039 
     34 N          22.4185  -27.2777  -39.0423 N.am      5 UNK        -0.4663 
     35 CA         23.6203  -26.4852  -39.3173 C.3       5 UNK         0.0242 
     36 CB         23.2325  -25.0267  -39.6129 C.3       5 UNK        -0.1982 
     37 C          24.4755  -27.0766  -40.4461 C.2       5 UNK         0.5017 
     38 O          25.6906  -27.1873  -40.2727 O.2       5 UNK        -0.5012 
     39 N          23.8572  -27.4451  -41.5786 N.am      6 UNK        -0.4439 
     40 CA         24.5383  -27.9787  -42.7658 C.3       6 UNK         0.0297 
     41 CB         23.6748  -27.7443  -44.0227 C.3       6 UNK        -0.2006 
     42 C          24.9670  -29.4497  -42.5999 C.2       6 UNK         0.4892 
     43 O          24.4295  -30.3291  -43.2758 O.2       6 UNK        -0.5089 
     44 N          25.9396  -29.6791  -41.7058 N.am      7 UNK        -0.4243 
     45 CA         26.6143  -30.9494  -41.4153 C.3       7 UNK         0.0196 
     46 CB         27.5761  -31.3145  -42.5693 C.3       7 UNK        -0.2007 
     47 C          25.6151  -32.0650  -41.0596 C.2       7 UNK         0.5020 
     48 O          25.0269  -32.0210  -39.9787 O.2       7 UNK        -0.5147 
     49 N          25.4102  -33.0179  -41.9799 N.am      8 UNK        -0.4734 
     50 CA         24.4507  -34.1215  -41.8678 C.3       8 UNK         0.0238 
     51 CB         24.6147  -35.0564  -43.0771 C.3       8 UNK        -0.1912 
     52 C          22.9836  -33.6722  -41.7318 C.2       8 UNK         0.5038 
     53 O          22.1844  -34.4218  -41.1689 O.2       8 UNK        -0.5046 
     54 N          22.6597  -32.4672  -42.2204 N.am      9 UNK        -0.4200 
     55 CA         21.3607  -31.8129  -42.0111 C.3       9 UNK         0.0839 
     56 C          21.1887  -31.1865  -40.6002 C.2       9 UNK         0.5513 
     57 N          22.2065  -31.1353  -39.7484 N.am      9 UNK        -0.7519 
     58 O          20.0942  -30.7390  -40.2693 O.2       9 UNK        -0.4960 
     59 C59        21.0425  -30.7750  -43.1177 C.3       10 UNK        -0.0876 
     60 S60        20.9821  -31.5069  -44.7876 S.3       10 UNK        -0.2414 
     61 C61        19.3596  -32.3360  -44.7743 C.3       10 UNK         0.0169 
     62 H62        22.0110  -26.5153  -49.4824 H         1 UNK         0.0903 
     63 H63        22.8657  -25.9449  -48.0465 H         1 UNK         0.0903 
     64 H64        22.4338  -27.6491  -48.1981 H         1 UNK         0.0903 
     65 H65        20.6701  -28.2016  -46.9683 H         1 UNK         0.3096 
     66 H66        18.8231  -28.2120  -45.8046 H         1 UNK         0.1121 
     67 H67        17.7528  -26.1577  -47.8035 H         1 UNK         0.0849 
     68 H68        16.7609  -26.9986  -46.6481 H         1 UNK         0.0849 
     69 H69        15.3142  -28.9032  -47.4462 H         1 UNK         0.0865 
     70 H70        15.9864  -30.3439  -48.1640 H         1 UNK         0.0865 
     71 H71        18.2441  -31.2356  -46.9930 H         1 UNK         0.1346 
     72 H72        17.9131  -31.2605  -42.7175 H         1 UNK         0.1412 
     73 H73        15.2587  -28.8393  -45.0566 H         1 UNK         0.1426 
     74 H74        16.1672  -30.0904  -41.6150 H         1 UNK         0.0716 
     75 H75        14.7481  -29.7393  -42.5645 H         1 UNK         0.0716 
     76 H76        16.6600  -28.5140  -39.9945 H         1 UNK         0.0695 
     77 H77        16.5567  -26.7785  -40.0852 H         1 UNK         0.0695 
     78 H78        18.8169  -28.5219  -41.1772 H         1 UNK         0.0983 
     79 H79        18.1121  -26.0151  -42.1567 H         1 UNK         0.3095 
     80 H80        19.4678  -24.5212  -43.1648 H         1 UNK         0.0454 
     81 H81        22.4535  -25.2030  -43.1820 H         1 UNK         0.0851 
     82 H82        21.6520  -23.8777  -42.3628 H         1 UNK         0.0851 
     83 H83        21.7334  -23.8933  -44.1130 H         1 UNK         0.0851 
     84 H84        20.9286  -26.3928  -44.9441 H         1 UNK         0.2976 
     85 H85        19.8170  -29.2398  -39.4094 H         1 UNK         0.3116 
     86 H86        21.0051  -29.3948  -37.5793 H         1 UNK         0.0646 
     87 H87        19.5213  -26.9915  -36.4051 H         1 UNK         0.0847 
     88 H88        20.4132  -28.2163  -35.5199 H         1 UNK         0.0847 
     89 H89        18.9379  -28.6552  -36.3616 H         1 UNK         0.0847 
     90 H90        21.9137  -27.6371  -39.8427 H         1 UNK         0.3040 
     91 H91        24.2617  -26.4836  -38.4327 H         1 UNK         0.1015 
     92 H92        22.5272  -24.9595  -40.4397 H         1 UNK         0.0786 
     93 H93        24.1076  -24.4302  -39.8746 H         1 UNK         0.0786 
     94 H94        22.7691  -24.5596  -38.7437 H         1 UNK         0.0786 
     95 H95        22.8504  -27.3104  -41.6556 H         1 UNK         0.3172 
     96 H96        25.4598  -27.4117  -42.9160 H         1 UNK         0.0595 
     97 H97        24.0624  -28.2954  -44.8809 H         1 UNK         0.0839 
     98 H98        23.6789  -26.6943  -44.3093 H         1 UNK         0.0839 
     99 H99        22.6403  -28.0509  -43.8782 H         1 UNK         0.0839 
    100 H100       26.2304  -28.8835  -41.1448 H         1 UNK         0.2998 
    101 H101       27.2175  -30.7853  -40.5210 H         1 UNK         0.0822 
    102 H102       28.0980  -32.2512  -42.3681 H         1 UNK         0.0787 
    103 H103       27.0599  -31.4167  -43.5247 H         1 UNK         0.0787 
    104 H104       28.3401  -30.5469  -42.6940 H         1 UNK         0.0787 
    105 H105       25.9141  -32.9434  -42.8520 H         1 UNK         0.3055 
    106 H106       24.6977  -34.6806  -40.9626 H         1 UNK         0.1106 
    107 H107       23.9337  -35.9061  -43.0088 H         1 UNK         0.0828 
    108 H108       24.4009  -34.5430  -44.0156 H         1 UNK         0.0828 
    109 H109       25.6260  -35.4593  -43.1352 H         1 UNK         0.0828 
    110 H110       23.3771  -31.8987  -42.6609 H         1 UNK         0.2931 
    111 H111       20.5940  -32.5865  -42.0651 H         1 UNK         0.0412 
    112 H112       23.1177  -31.5098  -39.9920 H         1 UNK         0.3472 
    113 H113       22.0622  -30.7620  -38.8264 H         1 UNK         0.3472 
    114 H114       21.8027  -29.9960  -43.1169 H         1 UNK         0.0970 
    115 H115       20.1032  -30.2573  -42.9243 H         1 UNK         0.0970 
    116 H116       19.3120  -33.0113  -45.6298 H         1 UNK         0.0612 
    117 H117       19.2667  -32.9689  -43.8916 H         1 UNK         0.0612 
@<TRIPOS>BOND
     1    1    2 1    
     2    1   62 1    
     3    1   63 1    
     4    1   64 1    
     5    2    3 2    
     6    2    4 am   BACKBONE|DICT|INTERRES
     7    4    5 1    
     8    4   65 1    
     9    5    6 1    
    10    5   25 1    
    11    5   66 1    
    12    6    7 1    
    13    6   67 1    
    14    6   68 1    
    15    7    8 1    
    16    8    9 1    
    17    8   69 1    
    18    8   70 1    
    19    9   10 ar   
    20    9   14 ar   
    21   10   11 ar   
    22   10   71 1    
    23   11   12 ar   
    24   11   61 1    
    25   12   13 ar   
    26   12   72 1    
    27   13   14 ar   
    28   13   15 1    
    29   14   73 1    
    30   15   16 1    
    31   15   74 1    
    32   15   75 1    
    33   16   17 1    
    34   17   18 1    
    35   17   76 1    
    36   17   77 1    
    37   18   19 1    
    38   18   27 1    
    39   18   78 1    
    40   19   20 am   BACKBONE|DICT|INTERRES
    41   19   79 1    
    42   20   21 2    
    43   20   22 1    
    44   22   23 1    
    45   22   24 1    
    46   22   80 1    
    47   23   81 1    
    48   23   82 1    
    49   23   83 1    
    50   24   25 am   BACKBONE|DICT|INTERRES
    51   24   84 1    
    52   25   26 2    
    53   27   28 2    
    54   27   29 am   BACKBONE|DICT|INTERRES
    55   29   30 1    
    56   29   85 1    
    57   30   31 1    
    58   30   32 1    
    59   30   86 1    
    60   31   87 1    
    61   31   88 1    
    62   31   89 1    
    63   32   33 2    
    64   32   34 am   BACKBONE|DICT|INTERRES
    65   34   35 1    
    66   34   90 1    
    67   35   36 1    
    68   35   37 1    
    69   35   91 1    
    70   36   92 1    
    71   36   93 1    
    72   36   94 1    
    73   37   38 2    
    74   37   39 am   BACKBONE|DICT|INTERRES
    75   39   40 1    
    76   39   95 1    
    77   40   41 1    
    78   40   42 1    
    79   40   96 1    
    80   41   97 1    
    81   41   98 1    
    82   41   99 1    
    83   42   43 2    
    84   42   44 am   BACKBONE|DICT|INTERRES
    85   44   45 1    
    86   44  100 1    
    87   45   46 1    
    88   45   47 1    
    89   45  101 1    
    90   46  102 1    
    91   46  103 1    
    92   46  104 1    
    93   47   48 2    
    94   47   49 am   BACKBONE|DICT|INTERRES
    95   49   50 1    
    96   49  105 1    
    97   50   51 1    
    98   50   52 1    
    99   50  106 1    
   100   51  107 1    
   101   51  108 1    
   102   51  109 1    
   103   52   53 2    
   104   52   54 am   BACKBONE|DICT|INTERRES
   105   54   55 1    
   106   54  110 1    
   107   55   56 1    
   108   55   59 1    
   109   55  111 1    
   110   56   57 am   BACKBONE|DICT|INTERRES
   111   56   58 2    
   112   57  112 1    
   113   57  113 1    
   114   59   60 1    
   115   59  114 1    
   116   59  115 1    
   117   60   61 1    
   118   61  116 1    
   119   61  117 1    
@<TRIPOS>SUBSTRUCTURE
     1 UNK         1 GROUP             0       ****    0 ROOT    
