@<TRIPOS>MOLECULE
3R8
117   119    1
SMALL
USER_CHARGES


@<TRIPOS>ATOM
      1 CA         15.9335  -25.2272  -39.0909 C.3       0 UNK        -0.2013 
      2 C          16.3360  -25.4684  -40.5382 C.2       0 UNK         0.4866 
      3 O          17.2549  -24.8164  -41.0348 O.2       0 UNK        -0.5176 
      4 N          15.6510  -26.3939  -41.2215 N.am      1 UNK        -0.4884 
      5 CA         15.9521  -26.8074  -42.5943 C.3       1 UNK         0.0853 
      6 C6         14.7497  -27.5481  -43.2262 C.3       10 UNK        -0.0849 
      7 S7         14.8470  -27.6289  -45.0471 S.3       10 UNK        -0.2776 
      8 C8         14.9405  -29.4239  -45.3676 C.3       10 UNK         0.0316 
      9 C9         16.3377  -29.8828  -45.7687 C.ar      10 UNK        -0.0863 
     10 C10        17.0264  -30.8368  -45.0099 C.ar      10 UNK        -0.1009 
     11 C11        18.2645  -31.3285  -45.4421 C.ar      10 UNK        -0.0712 
     12 C12        18.8174  -30.8484  -46.6329 C.ar      10 UNK        -0.0894 
     13 C13        18.1439  -29.8896  -47.3940 C.ar      10 UNK        -0.0745 
     14 C14        16.9070  -29.4106  -46.9553 C.ar      10 UNK        -0.0972 
     15 C15        18.7186  -29.4081  -48.7177 C.3       10 UNK         0.0209 
     16 S16        19.7200  -27.9022  -48.5241 S.3       10 UNK        -0.2568 
     17 C17        21.3263  -28.5791  -47.9850 C.3       10 UNK        -0.0983 
     18 CA         21.8200  -27.9710  -46.6454 C.3       3 UNK         0.0876 
     19 N          20.9562  -28.3106  -45.5100 N.am      3 UNK        -0.4424 
     20 C          20.1418  -27.4596  -44.8796 C.2       2 UNK         0.4918 
     21 O          19.9571  -26.2867  -45.2148 O.2       2 UNK        -0.4875 
     22 CA         19.4681  -27.9973  -43.6157 C.3       2 UNK         0.0481 
     23 CB         20.4068  -27.8447  -42.4007 C.3       2 UNK        -0.1831 
     24 N          18.2216  -27.2745  -43.3994 N.am      2 UNK        -0.4498 
     25 C          17.2218  -27.6784  -42.6095 C.2       1 UNK         0.5027 
     26 O          17.2575  -28.6950  -41.9123 O.2       1 UNK        -0.4969 
     27 C          23.2734  -28.3699  -46.3104 C.2       3 UNK         0.5005 
     28 O          24.0092  -28.8294  -47.1863 O.2       3 UNK        -0.5279 
     29 N          23.6674  -28.1956  -45.0426 N.am      4 UNK        -0.4463 
     30 CA         25.0080  -28.4450  -44.5266 C.3       4 UNK         0.0283 
     31 CB         25.1337  -29.9068  -44.0615 C.3       4 UNK        -0.1875 
     32 C          25.2432  -27.4800  -43.3643 C.2       4 UNK         0.4949 
     33 O          24.3411  -27.2982  -42.5431 O.2       4 UNK        -0.5039 
     34 N          26.4519  -26.9074  -43.2935 N.am      5 UNK        -0.4663 
     35 CA         26.8604  -25.9252  -42.2788 C.3       5 UNK         0.0242 
     36 CB         28.2289  -25.3404  -42.6649 C.3       5 UNK        -0.1982 
     37 C          26.8982  -26.4790  -40.8428 C.2       5 UNK         0.5017 
     38 O          26.7771  -25.7046  -39.8933 O.2       5 UNK        -0.5012 
     39 N          27.0438  -27.8048  -40.7128 N.am      6 UNK        -0.4439 
     40 CA         26.9741  -28.5410  -39.4493 C.3       6 UNK         0.0297 
     41 CB         27.5327  -29.9576  -39.6665 C.3       6 UNK        -0.2006 
     42 C          25.5547  -28.6158  -38.8530 C.2       6 UNK         0.4892 
     43 O          25.4347  -28.9041  -37.6619 O.2       6 UNK        -0.5089 
     44 N          24.5196  -28.3807  -39.6800 N.am      7 UNK        -0.4243 
     45 CA         23.0888  -28.4547  -39.3536 C.3       7 UNK         0.0196 
     46 CB         22.6845  -27.3048  -38.4072 C.3       7 UNK        -0.2007 
     47 C          22.6618  -29.8442  -38.8363 C.2       7 UNK         0.5020 
     48 O          21.8821  -29.9433  -37.8883 O.2       7 UNK        -0.5147 
     49 N          23.1983  -30.8986  -39.4677 N.am      8 UNK        -0.4734 
     50 CA         22.9690  -32.3019  -39.1022 C.3       8 UNK         0.0238 
     51 CB         24.0535  -33.1696  -39.7627 C.3       8 UNK        -0.1912 
     52 C          21.5656  -32.8239  -39.4644 C.2       8 UNK         0.5038 
     53 O          21.1434  -33.8408  -38.9120 O.2       8 UNK        -0.5046 
     54 N          20.8869  -32.1369  -40.3908 N.am      9 UNK        -0.4200 
     55 CA         19.5170  -32.4110  -40.8447 C.3       9 UNK         0.0839 
     56 C          18.4683  -32.3084  -39.7030 C.2       9 UNK         0.5513 
     57 N          17.4668  -33.1776  -39.7035 N.am      9 UNK        -0.7519 
     58 O          18.5302  -31.4267  -38.8493 O.2       9 UNK        -0.4960 
     59 C59        19.1338  -31.4718  -42.0140 C.3       10 UNK        -0.0876 
     60 S60        20.1891  -31.7280  -43.4820 S.3       10 UNK        -0.2414 
     61 C61        18.9911  -32.4177  -44.6643 C.3       10 UNK         0.0169 
     62 H62        15.6367  -24.1879  -38.9522 H         1 UNK         0.0903 
     63 H63        15.1003  -25.8609  -38.7875 H         1 UNK         0.0903 
     64 H64        16.7743  -25.4328  -38.4290 H         1 UNK         0.0903 
     65 H65        14.9302  -26.9237  -40.7519 H         1 UNK         0.3096 
     66 H66        16.1372  -25.9008  -43.1760 H         1 UNK         0.1121 
     67 H67        13.8279  -27.0123  -42.9929 H         1 UNK         0.0849 
     68 H68        14.6258  -28.5417  -42.7917 H         1 UNK         0.0849 
     69 H69        14.5730  -29.9909  -44.5116 H         1 UNK         0.0865 
     70 H70        14.2577  -29.6578  -46.1858 H         1 UNK         0.0865 
     71 H71        16.5848  -31.2195  -44.1004 H         1 UNK         0.1346 
     72 H72        19.7650  -31.2386  -46.9769 H         1 UNK         0.1412 
     73 H73        16.3726  -28.6830  -47.5515 H         1 UNK         0.1426 
     74 H74        17.9039  -29.1932  -49.4109 H         1 UNK         0.0716 
     75 H75        19.3112  -30.1930  -49.1903 H         1 UNK         0.0716 
     76 H76        21.2779  -29.6662  -47.9146 H         1 UNK         0.0695 
     77 H77        22.0336  -28.3621  -48.7876 H         1 UNK         0.0695 
     78 H78        21.8513  -26.8863  -46.7713 H         1 UNK         0.0983 
     79 H79        21.0442  -29.2545  -45.1596 H         1 UNK         0.3095 
     80 H80        19.2259  -29.0473  -43.7757 H         1 UNK         0.0454 
     81 H81        20.7054  -26.8059  -42.2536 H         1 UNK         0.0851 
     82 H82        21.3170  -28.4303  -42.5340 H         1 UNK         0.0851 
     83 H83        19.9383  -28.1840  -41.4775 H         1 UNK         0.0851 
     84 H84        18.1262  -26.4361  -43.9594 H         1 UNK         0.2976 
     85 H85        23.0359  -27.7683  -44.3769 H         1 UNK         0.3116 
     86 H86        25.7453  -28.2462  -45.3078 H         1 UNK         0.0646 
     87 H87        24.4090  -30.1466  -43.2823 H         1 UNK         0.0847 
     88 H88        26.1275  -30.1071  -43.6593 H         1 UNK         0.0847 
     89 H89        24.9749  -30.5996  -44.8881 H         1 UNK         0.0847 
     90 H90        27.1335  -27.1241  -44.0078 H         1 UNK         0.3040 
     91 H91        26.1266  -25.1158  -42.2871 H         1 UNK         0.1015 
     92 H92        28.5486  -24.5857  -41.9446 H         1 UNK         0.0786 
     93 H93        28.1937  -24.8569  -43.6414 H         1 UNK         0.0786 
     94 H94        29.0026  -26.1086  -42.6964 H         1 UNK         0.0786 
     95 H95        27.1595  -28.3486  -41.5553 H         1 UNK         0.3172 
     96 H96        27.6088  -28.0301  -38.7220 H         1 UNK         0.0595 
     97 H97        27.5257  -30.5268  -38.7356 H         1 UNK         0.0839 
     98 H98        28.5647  -29.9292  -40.0166 H         1 UNK         0.0839 
     99 H99        26.9449  -30.5190  -40.3939 H         1 UNK         0.0839 
    100 H100       24.7245  -28.1140  -40.6369 H         1 UNK         0.2998 
    101 H101       22.5562  -28.3047  -40.2934 H         1 UNK         0.0822 
    102 H102       21.6038  -27.2801  -38.2611 H         1 UNK         0.0787 
    103 H103       23.1438  -27.4092  -37.4237 H         1 UNK         0.0787 
    104 H104       22.9779  -26.3369  -38.8136 H         1 UNK         0.0787 
    105 H105       23.8416  -30.7256  -40.2263 H         1 UNK         0.3055 
    106 H106       23.0719  -32.3910  -38.0181 H         1 UNK         0.1106 
    107 H107       23.9375  -34.2182  -39.4846 H         1 UNK         0.0828 
    108 H108       24.0081  -33.1153  -40.8512 H         1 UNK         0.0828 
    109 H109       25.0524  -32.8636  -39.4507 H         1 UNK         0.0828 
    110 H110       21.3260  -31.3201  -40.7847 H         1 UNK         0.2931 
    111 H111       19.5073  -33.4380  -41.2160 H         1 UNK         0.0412 
    112 H112       17.4029  -33.9006  -40.4034 H         1 UNK         0.3472 
    113 H113       16.7665  -33.1183  -38.9804 H         1 UNK         0.3472 
    114 H114       19.2219  -30.4322  -41.7002 H         1 UNK         0.0970 
    115 H115       18.0866  -31.6053  -42.2888 H         1 UNK         0.0970 
    116 H116       19.5291  -33.0641  -45.3594 H         1 UNK         0.0612 
    117 H117       18.2800  -33.0645  -44.1481 H         1 UNK         0.0612 
@<TRIPOS>BOND
     1    1    2 1    
     2    1   62 1    
     3    1   63 1    
     4    1   64 1    
     5    2    3 2    
     6    2    4 am   BACKBONE|DICT|INTERRES
     7    4    5 1    
     8    4   65 1    
     9    5    6 1    
    10    5   25 1    
    11    5   66 1    
    12    6    7 1    
    13    6   67 1    
    14    6   68 1    
    15    7    8 1    
    16    8    9 1    
    17    8   69 1    
    18    8   70 1    
    19    9   10 ar   
    20    9   14 ar   
    21   10   11 ar   
    22   10   71 1    
    23   11   12 ar   
    24   11   61 1    
    25   12   13 ar   
    26   12   72 1    
    27   13   14 ar   
    28   13   15 1    
    29   14   73 1    
    30   15   16 1    
    31   15   74 1    
    32   15   75 1    
    33   16   17 1    
    34   17   18 1    
    35   17   76 1    
    36   17   77 1    
    37   18   19 1    
    38   18   27 1    
    39   18   78 1    
    40   19   20 am   BACKBONE|DICT|INTERRES
    41   19   79 1    
    42   20   21 2    
    43   20   22 1    
    44   22   23 1    
    45   22   24 1    
    46   22   80 1    
    47   23   81 1    
    48   23   82 1    
    49   23   83 1    
    50   24   25 am   BACKBONE|DICT|INTERRES
    51   24   84 1    
    52   25   26 2    
    53   27   28 2    
    54   27   29 am   BACKBONE|DICT|INTERRES
    55   29   30 1    
    56   29   85 1    
    57   30   31 1    
    58   30   32 1    
    59   30   86 1    
    60   31   87 1    
    61   31   88 1    
    62   31   89 1    
    63   32   33 2    
    64   32   34 am   BACKBONE|DICT|INTERRES
    65   34   35 1    
    66   34   90 1    
    67   35   36 1    
    68   35   37 1    
    69   35   91 1    
    70   36   92 1    
    71   36   93 1    
    72   36   94 1    
    73   37   38 2    
    74   37   39 am   BACKBONE|DICT|INTERRES
    75   39   40 1    
    76   39   95 1    
    77   40   41 1    
    78   40   42 1    
    79   40   96 1    
    80   41   97 1    
    81   41   98 1    
    82   41   99 1    
    83   42   43 2    
    84   42   44 am   BACKBONE|DICT|INTERRES
    85   44   45 1    
    86   44  100 1    
    87   45   46 1    
    88   45   47 1    
    89   45  101 1    
    90   46  102 1    
    91   46  103 1    
    92   46  104 1    
    93   47   48 2    
    94   47   49 am   BACKBONE|DICT|INTERRES
    95   49   50 1    
    96   49  105 1    
    97   50   51 1    
    98   50   52 1    
    99   50  106 1    
   100   51  107 1    
   101   51  108 1    
   102   51  109 1    
   103   52   53 2    
   104   52   54 am   BACKBONE|DICT|INTERRES
   105   54   55 1    
   106   54  110 1    
   107   55   56 1    
   108   55   59 1    
   109   55  111 1    
   110   56   57 am   BACKBONE|DICT|INTERRES
   111   56   58 2    
   112   57  112 1    
   113   57  113 1    
   114   59   60 1    
   115   59  114 1    
   116   59  115 1    
   117   60   61 1    
   118   61  116 1    
   119   61  117 1    
@<TRIPOS>SUBSTRUCTURE
     1 UNK         1 GROUP             0       ****    0 ROOT    
