@<TRIPOS>MOLECULE
3R8
117   119    1
SMALL
USER_CHARGES


@<TRIPOS>ATOM
      1 CA         14.4934  -24.0646  -48.7195 C.3       0 UNK        -0.2013 
      2 C          14.4035  -23.4249  -47.3357 C.2       0 UNK         0.4866 
      3 O          13.7862  -22.3700  -47.2006 O.2       0 UNK        -0.5176 
      4 N          14.9773  -24.0174  -46.2790 N.am      1 UNK        -0.4884 
      5 CA         15.8060  -25.2289  -46.2741 C.3       1 UNK         0.0853 
      6 C6         16.1166  -25.6990  -44.8312 C.3       10 UNK        -0.0849 
      7 S7         14.6479  -26.1820  -43.8640 S.3       10 UNK        -0.2776 
      8 C8         15.0619  -27.8986  -43.3717 C.3       10 UNK         0.0316 
      9 C9         16.4248  -28.0867  -42.6941 C.ar      10 UNK        -0.0863 
     10 C10        17.0687  -29.3242  -42.8039 C.ar      10 UNK        -0.1009 
     11 C11        18.3227  -29.5391  -42.2219 C.ar      10 UNK        -0.0712 
     12 C12        18.9354  -28.4992  -41.5170 C.ar      10 UNK        -0.0894 
     13 C13        18.3181  -27.2486  -41.4159 C.ar      10 UNK        -0.0745 
     14 C14        17.0546  -27.0583  -41.9813 C.ar      10 UNK        -0.0972 
     15 C15        19.0226  -26.0898  -40.7230 C.3       10 UNK         0.0209 
     16 S16        20.6529  -25.7299  -41.4589 S.3       10 UNK        -0.2568 
     17 C17        20.2338  -25.2933  -43.1871 C.3       10 UNK        -0.0983 
     18 CA         20.3662  -26.4616  -44.2025 C.3       3 UNK         0.0876 
     19 N          19.9520  -26.0450  -45.5444 N.am      3 UNK        -0.4424 
     20 C          19.7594  -26.8703  -46.5827 C.2       2 UNK         0.4918 
     21 O          19.9495  -28.0869  -46.5422 O.2       2 UNK        -0.4875 
     22 CA         19.1263  -26.2367  -47.8336 C.3       2 UNK         0.0481 
     23 CB         19.3101  -27.0994  -49.0955 C.3       2 UNK        -0.1831 
     24 N          17.6993  -26.0875  -47.5527 N.am      2 UNK        -0.4498 
     25 C          17.1559  -25.0054  -46.9829 C.2       1 UNK         0.5027 
     26 O          17.7237  -23.9136  -46.8997 O.2       1 UNK        -0.4969 
     27 C          21.7763  -27.0908  -44.2106 C.2       3 UNK         0.5005 
     28 O          22.6913  -26.5450  -44.8330 O.2       3 UNK        -0.5279 
     29 N          21.9146  -28.2110  -43.4923 N.am      4 UNK        -0.4463 
     30 CA         23.1589  -28.9507  -43.2905 C.3       4 UNK         0.0283 
     31 CB         23.2356  -30.1199  -44.2904 C.3       4 UNK        -0.1875 
     32 C          23.2748  -29.4072  -41.8275 C.2       4 UNK         0.4949 
     33 O          23.8066  -30.4855  -41.5602 O.2       4 UNK        -0.5039 
     34 N          22.7835  -28.5828  -40.8885 N.am      5 UNK        -0.4663 
     35 CA         22.7865  -28.8640  -39.4454 C.3       5 UNK         0.0242 
     36 CB         21.9969  -27.7772  -38.7013 C.3       5 UNK        -0.1982 
     37 C          24.1931  -29.0174  -38.8399 C.2       5 UNK         0.5017 
     38 O          24.3537  -29.7669  -37.8773 O.2       5 UNK        -0.5012 
     39 N          25.1943  -28.3666  -39.4504 N.am      6 UNK        -0.4439 
     40 CA         26.6186  -28.5183  -39.1313 C.3       6 UNK         0.0297 
     41 CB         27.4255  -27.4690  -39.9128 C.3       6 UNK        -0.2006 
     42 C          27.1691  -29.9330  -39.4065 C.2       6 UNK         0.4892 
     43 O          28.1536  -30.3244  -38.7796 O.2       6 UNK        -0.5089 
     44 N          26.5168  -30.6739  -40.3128 N.am      7 UNK        -0.4243 
     45 CA         26.7851  -32.0789  -40.6230 C.3       7 UNK         0.0196 
     46 CB         26.8725  -32.2308  -42.1530 C.3       7 UNK        -0.2007 
     47 C          25.6980  -32.9993  -40.0337 C.2       7 UNK         0.5020 
     48 O          25.5945  -34.1516  -40.4561 O.2       7 UNK        -0.5147 
     49 N          24.8780  -32.4771  -39.1052 N.am      8 UNK        -0.4734 
     50 CA         23.7245  -33.1238  -38.4626 C.3       8 UNK         0.0238 
     51 CB         24.1964  -34.2435  -37.5107 C.3       8 UNK        -0.1912 
     52 C          22.6519  -33.6047  -39.4625 C.2       8 UNK         0.5038 
     53 O          21.9818  -34.6055  -39.2013 O.2       8 UNK        -0.5046 
     54 N          22.5291  -32.8966  -40.5946 N.am      9 UNK        -0.4200 
     55 CA         21.6964  -33.2446  -41.7564 C.3       9 UNK         0.0839 
     56 C          22.1626  -34.5217  -42.5220 C.2       9 UNK         0.5513 
     57 N          23.3718  -35.0287  -42.3075 N.am      9 UNK        -0.7519 
     58 O          21.4294  -35.0474  -43.3557 O.2       9 UNK        -0.4960 
     59 C59        20.1701  -33.2420  -41.4502 C.3       10 UNK        -0.0876 
     60 S60        19.5671  -31.6285  -40.8431 S.3       10 UNK        -0.2414 
     61 C61        19.0317  -30.8749  -42.4121 C.3       10 UNK         0.0169 
     62 H62        15.4796  -23.9049  -49.1542 H         1 UNK         0.0903 
     63 H63        14.2892  -25.1337  -48.6856 H         1 UNK         0.0903 
     64 H64        13.7605  -23.6169  -49.3906 H         1 UNK         0.0903 
     65 H65        14.8887  -23.5682  -45.3788 H         1 UNK         0.3096 
     66 H66        15.2616  -26.0245  -46.7863 H         1 UNK         0.1121 
     67 H67        16.8060  -26.5453  -44.8566 H         1 UNK         0.0849 
     68 H68        16.6358  -24.9148  -44.2756 H         1 UNK         0.0849 
     69 H69        14.2869  -28.2616  -42.6956 H         1 UNK         0.0865 
     70 H70        15.0064  -28.5240  -44.2643 H         1 UNK         0.0865 
     71 H71        16.5951  -30.1226  -43.3592 H         1 UNK         0.1346 
     72 H72        19.9049  -28.6561  -41.0661 H         1 UNK         0.1412 
     73 H73        16.5739  -26.0950  -41.8849 H         1 UNK         0.1426 
     74 H74        19.1507  -26.3306  -39.6674 H         1 UNK         0.0716 
     75 H75        18.4156  -25.1838  -40.7582 H         1 UNK         0.0716 
     76 H76        19.2173  -24.8968  -43.2075 H         1 UNK         0.0695 
     77 H77        20.8816  -24.4666  -43.4845 H         1 UNK         0.0695 
     78 H78        19.6571  -27.2372  -43.9086 H         1 UNK         0.0983 
     79 H79        19.7709  -25.0595  -45.6730 H         1 UNK         0.3095 
     80 H80        19.5954  -25.2669  -48.0133 H         1 UNK         0.0454 
     81 H81        18.8509  -28.0833  -48.9912 H         1 UNK         0.0851 
     82 H82        18.8709  -26.6180  -49.9693 H         1 UNK         0.0851 
     83 H83        20.3684  -27.2547  -49.3086 H         1 UNK         0.0851 
     84 H84        17.1686  -26.9479  -47.5572 H         1 UNK         0.2976 
     85 H85        21.1056  -28.5787  -43.0118 H         1 UNK         0.3116 
     86 H86        24.0123  -28.2930  -43.4675 H         1 UNK         0.0646 
     87 H87        24.1634  -30.6813  -44.1733 H         1 UNK         0.0847 
     88 H88        23.2055  -29.7604  -45.3190 H         1 UNK         0.0847 
     89 H89        22.4094  -30.8183  -44.1584 H         1 UNK         0.0847 
     90 H90        22.3882  -27.6978  -41.1782 H         1 UNK         0.3040 
     91 H91        22.2727  -29.8167  -39.2965 H         1 UNK         0.1015 
     92 H92        20.9498  -27.7775  -39.0002 H         1 UNK         0.0786 
     93 H93        22.4024  -26.7816  -38.8857 H         1 UNK         0.0786 
     94 H94        22.0188  -27.9445  -37.6233 H         1 UNK         0.0786 
     95 H95        24.9612  -27.7678  -40.2293 H         1 UNK         0.3172 
     96 H96        26.7430  -28.3212  -38.0644 H         1 UNK         0.0595 
     97 H97        27.1051  -26.4563  -39.6676 H         1 UNK         0.0839 
     98 H98        27.3270  -27.6028  -40.9909 H         1 UNK         0.0839 
     99 H99        28.4877  -27.5364  -39.6729 H         1 UNK         0.0839 
    100 H100       25.6911  -30.2878  -40.7579 H         1 UNK         0.2998 
    101 H101       27.7385  -32.3903  -40.1915 H         1 UNK         0.0822 
    102 H102       27.6306  -31.5704  -42.5742 H         1 UNK         0.0787 
    103 H103       27.1420  -33.2499  -42.4333 H         1 UNK         0.0787 
    104 H104       25.9213  -32.0004  -42.6348 H         1 UNK         0.0787 
    105 H105       25.0344  -31.5162  -38.8214 H         1 UNK         0.3055 
    106 H106       23.2408  -32.3568  -37.8555 H         1 UNK         0.1106 
    107 H107       24.6361  -35.0791  -38.0563 H         1 UNK         0.0828 
    108 H108       24.9397  -33.8758  -36.8035 H         1 UNK         0.0828 
    109 H109       23.3647  -34.6389  -36.9263 H         1 UNK         0.0828 
    110 H110       23.1348  -32.0940  -40.7371 H         1 UNK         0.2931 
    111 H111       21.8721  -32.4384  -42.4680 H         1 UNK         0.0412 
    112 H112       23.6573  -35.8465  -42.8219 H         1 UNK         0.3472 
    113 H113       24.0034  -34.6195  -41.6274 H         1 UNK         0.3472 
    114 H114       19.9265  -34.0028  -40.7078 H         1 UNK         0.0970 
    115 H115       19.5970  -33.5128  -42.3383 H         1 UNK         0.0970 
    116 H116       19.9021  -30.7282  -43.0528 H         1 UNK         0.0612 
    117 H117       18.3776  -31.5763  -42.9324 H         1 UNK         0.0612 
@<TRIPOS>BOND
     1    1    2 1    
     2    1   62 1    
     3    1   63 1    
     4    1   64 1    
     5    2    3 2    
     6    2    4 am   BACKBONE|DICT|INTERRES
     7    4    5 1    
     8    4   65 1    
     9    5    6 1    
    10    5   25 1    
    11    5   66 1    
    12    6    7 1    
    13    6   67 1    
    14    6   68 1    
    15    7    8 1    
    16    8    9 1    
    17    8   69 1    
    18    8   70 1    
    19    9   10 ar   
    20    9   14 ar   
    21   10   11 ar   
    22   10   71 1    
    23   11   12 ar   
    24   11   61 1    
    25   12   13 ar   
    26   12   72 1    
    27   13   14 ar   
    28   13   15 1    
    29   14   73 1    
    30   15   16 1    
    31   15   74 1    
    32   15   75 1    
    33   16   17 1    
    34   17   18 1    
    35   17   76 1    
    36   17   77 1    
    37   18   19 1    
    38   18   27 1    
    39   18   78 1    
    40   19   20 am   BACKBONE|DICT|INTERRES
    41   19   79 1    
    42   20   21 2    
    43   20   22 1    
    44   22   23 1    
    45   22   24 1    
    46   22   80 1    
    47   23   81 1    
    48   23   82 1    
    49   23   83 1    
    50   24   25 am   BACKBONE|DICT|INTERRES
    51   24   84 1    
    52   25   26 2    
    53   27   28 2    
    54   27   29 am   BACKBONE|DICT|INTERRES
    55   29   30 1    
    56   29   85 1    
    57   30   31 1    
    58   30   32 1    
    59   30   86 1    
    60   31   87 1    
    61   31   88 1    
    62   31   89 1    
    63   32   33 2    
    64   32   34 am   BACKBONE|DICT|INTERRES
    65   34   35 1    
    66   34   90 1    
    67   35   36 1    
    68   35   37 1    
    69   35   91 1    
    70   36   92 1    
    71   36   93 1    
    72   36   94 1    
    73   37   38 2    
    74   37   39 am   BACKBONE|DICT|INTERRES
    75   39   40 1    
    76   39   95 1    
    77   40   41 1    
    78   40   42 1    
    79   40   96 1    
    80   41   97 1    
    81   41   98 1    
    82   41   99 1    
    83   42   43 2    
    84   42   44 am   BACKBONE|DICT|INTERRES
    85   44   45 1    
    86   44  100 1    
    87   45   46 1    
    88   45   47 1    
    89   45  101 1    
    90   46  102 1    
    91   46  103 1    
    92   46  104 1    
    93   47   48 2    
    94   47   49 am   BACKBONE|DICT|INTERRES
    95   49   50 1    
    96   49  105 1    
    97   50   51 1    
    98   50   52 1    
    99   50  106 1    
   100   51  107 1    
   101   51  108 1    
   102   51  109 1    
   103   52   53 2    
   104   52   54 am   BACKBONE|DICT|INTERRES
   105   54   55 1    
   106   54  110 1    
   107   55   56 1    
   108   55   59 1    
   109   55  111 1    
   110   56   57 am   BACKBONE|DICT|INTERRES
   111   56   58 2    
   112   57  112 1    
   113   57  113 1    
   114   59   60 1    
   115   59  114 1    
   116   59  115 1    
   117   60   61 1    
   118   61  116 1    
   119   61  117 1    
@<TRIPOS>SUBSTRUCTURE
     1 UNK         1 GROUP             0       ****    0 ROOT    
