@<TRIPOS>MOLECULE
3R8
117   119    1
SMALL
USER_CHARGES


@<TRIPOS>ATOM
      1 CA         16.2369  -25.0885  -49.7892 C.3       0 UNK        -0.2013 
      2 C          17.3241  -25.2066  -48.7313 C.2       0 UNK         0.4866 
      3 O          18.3541  -24.5390  -48.8346 O.2       0 UNK        -0.5176 
      4 N          17.1084  -26.0573  -47.7207 N.am      1 UNK        -0.4884 
      5 CA         18.0219  -26.2604  -46.5919 C.3       1 UNK         0.0853 
      6 C6         17.6480  -27.5170  -45.7691 C.3       10 UNK        -0.0849 
      7 S7         17.9658  -29.0768  -46.6516 S.3       10 UNK        -0.2776 
      8 C8         17.1356  -30.2724  -45.5504 C.3       10 UNK         0.0316 
      9 C9         17.5722  -30.1317  -44.0959 C.ar      10 UNK        -0.0863 
     10 C10        18.8440  -30.5502  -43.6946 C.ar      10 UNK        -0.1009 
     11 C11        19.2463  -30.4229  -42.3607 C.ar      10 UNK        -0.0712 
     12 C12        18.3674  -29.8670  -41.4260 C.ar      10 UNK        -0.0894 
     13 C13        17.1016  -29.4226  -41.8199 C.ar      10 UNK        -0.0745 
     14 C14        16.7067  -29.5675  -43.1532 C.ar      10 UNK        -0.0972 
     15 C15        16.1545  -28.7848  -40.8135 C.3       10 UNK         0.0209 
     16 S16        16.2324  -26.9639  -40.8743 S.3       10 UNK        -0.2568 
     17 C17        17.6867  -26.6032  -39.8312 C.3       10 UNK        -0.0983 
     18 CA         18.9851  -26.4007  -40.6498 C.3       3 UNK         0.0876 
     19 N          18.8601  -25.3300  -41.6518 N.am      3 UNK        -0.4424 
     20 C          19.7145  -25.1377  -42.6640 C.2       2 UNK         0.4918 
     21 O          20.7719  -25.7580  -42.7945 O.2       2 UNK        -0.4875 
     22 CA         19.3170  -24.1132  -43.7297 C.3       2 UNK         0.0481 
     23 CB         20.4007  -23.0356  -43.9012 C.3       2 UNK        -0.1831 
     24 N          19.1811  -24.8793  -44.9612 N.am      2 UNK        -0.4498 
     25 C          18.0438  -25.0457  -45.6436 C.2       1 UNK         0.5027 
     26 O          17.0284  -24.3633  -45.4806 O.2       1 UNK        -0.4969 
     27 C          20.2126  -26.2678  -39.7202 C.2       3 UNK         0.5005 
     28 O          20.5384  -27.2251  -39.0169 O.2       3 UNK        -0.5279 
     29 N          20.8956  -25.1133  -39.7564 N.am      4 UNK        -0.4463 
     30 CA         22.1990  -24.8798  -39.1303 C.3       4 UNK         0.0283 
     31 CB         22.5671  -23.3938  -39.2648 C.3       4 UNK        -0.1875 
     32 C          23.3219  -25.7644  -39.7074 C.2       4 UNK         0.4949 
     33 O          24.2840  -26.0485  -38.9935 O.2       4 UNK        -0.5039 
     34 N          23.1768  -26.2276  -40.9594 N.am      5 UNK        -0.4663 
     35 CA         24.0783  -27.1747  -41.6255 C.3       5 UNK         0.0242 
     36 CB         23.9200  -27.0258  -43.1503 C.3       5 UNK        -0.1982 
     37 C          23.8455  -28.6252  -41.1520 C.2       5 UNK         0.5017 
     38 O          23.6758  -29.5275  -41.9774 O.2       5 UNK        -0.5012 
     39 N          23.8435  -28.8281  -39.8269 N.am      6 UNK        -0.4439 
     40 CA         23.5759  -30.0801  -39.1088 C.3       6 UNK         0.0297 
     41 CB         23.2596  -29.7471  -37.6395 C.3       6 UNK        -0.2006 
     42 C          24.7010  -31.1262  -39.2545 C.2       6 UNK         0.4892 
     43 O          25.2193  -31.6379  -38.2606 O.2       6 UNK        -0.5089 
     44 N          25.0492  -31.4150  -40.5077 N.am      7 UNK        -0.4243 
     45 CA         26.0298  -32.3988  -40.9512 C.3       7 UNK         0.0196 
     46 CB         27.4369  -31.7781  -40.9778 C.3       7 UNK        -0.2007 
     47 C          25.6372  -32.9468  -42.3287 C.2       7 UNK         0.5020 
     48 O          25.8321  -34.1364  -42.5755 O.2       7 UNK        -0.5147 
     49 N          25.0458  -32.0993  -43.1887 N.am      8 UNK        -0.4734 
     50 CA         24.5426  -32.4737  -44.5171 C.3       8 UNK         0.0238 
     51 CB         24.1102  -31.2024  -45.2664 C.3       8 UNK        -0.1912 
     52 C          23.3852  -33.4881  -44.4689 C.2       8 UNK         0.5038 
     53 O          23.2584  -34.3097  -45.3771 O.2       8 UNK        -0.5046 
     54 N          22.5868  -33.4155  -43.3990 N.am      9 UNK        -0.4200 
     55 CA         21.5160  -34.3572  -43.0494 C.3       9 UNK         0.0839 
     56 C          21.9856  -35.5491  -42.1628 C.2       9 UNK         0.5513 
     57 N          23.2717  -35.7049  -41.8676 N.am      9 UNK        -0.7519 
     58 O          21.1679  -36.3679  -41.7506 O.2       9 UNK        -0.4960 
     59 C59        20.2800  -33.6153  -42.4703 C.3       10 UNK        -0.0876 
     60 S60        20.6573  -32.4680  -41.0943 S.3       10 UNK        -0.2414 
     61 C61        20.6431  -30.8493  -41.9333 C.3       10 UNK         0.0169 
     62 H62        15.3905  -25.7423  -49.5794 H         1 UNK         0.0903 
     63 H63        15.8699  -24.0636  -49.8365 H         1 UNK         0.0903 
     64 H64        16.6353  -25.3536  -50.7682 H         1 UNK         0.0903 
     65 H65        16.2418  -26.5744  -47.6800 H         1 UNK         0.3096 
     66 H66        19.0289  -26.3906  -46.9962 H         1 UNK         0.1121 
     67 H67        18.2292  -27.5587  -44.8447 H         1 UNK         0.0849 
     68 H68        16.5996  -27.4808  -45.4654 H         1 UNK         0.0849 
     69 H69        16.0555  -30.1463  -45.6409 H         1 UNK         0.0865 
     70 H70        17.3517  -31.2839  -45.8972 H         1 UNK         0.0865 
     71 H71        19.5230  -30.9662  -44.4265 H         1 UNK         0.1346 
     72 H72        18.6797  -29.7615  -40.3957 H         1 UNK         0.1412 
     73 H73        15.7266  -29.2259  -43.4579 H         1 UNK         0.1426 
     74 H74        16.3632  -29.1393  -39.8030 H         1 UNK         0.0716 
     75 H75        15.1321  -29.0955  -41.0338 H         1 UNK         0.0716 
     76 H76        17.8062  -27.4108  -39.1064 H         1 UNK         0.0695 
     77 H77        17.4675  -25.7077  -39.2468 H         1 UNK         0.0695 
     78 H78        19.1632  -27.3163  -41.2146 H         1 UNK         0.0983 
     79 H79        18.0024  -24.7971  -41.6220 H         1 UNK         0.3095 
     80 H80        18.3772  -23.6334  -43.4484 H         1 UNK         0.0454 
     81 H81        20.5333  -22.4658  -42.9808 H         1 UNK         0.0851 
     82 H82        20.1304  -22.3280  -44.6848 H         1 UNK         0.0851 
     83 H83        21.3688  -23.4660  -44.1616 H         1 UNK         0.0851 
     84 H84        19.9487  -25.5142  -45.1390 H         1 UNK         0.2976 
     85 H85        20.5419  -24.3805  -40.3537 H         1 UNK         0.3116 
     86 H86        22.1066  -25.1176  -38.0685 H         1 UNK         0.0646 
     87 H87        21.8217  -22.7541  -38.7919 H         1 UNK         0.0847 
     88 H88        22.6578  -23.0919  -40.3091 H         1 UNK         0.0847 
     89 H89        23.5228  -23.1843  -38.7820 H         1 UNK         0.0847 
     90 H90        22.3374  -25.9820  -41.4747 H         1 UNK         0.3040 
     91 H91        25.1089  -26.9171  -41.3714 H         1 UNK         0.1015 
     92 H92        24.6317  -27.6587  -43.6822 H         1 UNK         0.0786 
     93 H93        24.0974  -25.9991  -43.4707 H         1 UNK         0.0786 
     94 H94        22.9204  -27.3117  -43.4806 H         1 UNK         0.0786 
     95 H95        24.0274  -28.0127  -39.2507 H         1 UNK         0.3172 
     96 H96        22.6790  -30.5265  -39.5408 H         1 UNK         0.0595 
     97 H97        22.9951  -30.6462  -37.0813 H         1 UNK         0.0839 
     98 H98        22.4150  -29.0614  -37.5626 H         1 UNK         0.0839 
     99 H99        24.1123  -29.2884  -37.1375 H         1 UNK         0.0839 
    100 H100       24.5427  -30.9091  -41.2300 H         1 UNK         0.2998 
    101 H101       26.0269  -33.2388  -40.2528 H         1 UNK         0.0822 
    102 H102       27.7432  -31.4499  -39.9843 H         1 UNK         0.0787 
    103 H103       28.1764  -32.5024  -41.3221 H         1 UNK         0.0787 
    104 H104       27.4853  -30.9165  -41.6447 H         1 UNK         0.0787 
    105 H105       24.9250  -31.1285  -42.9311 H         1 UNK         0.3055 
    106 H106       25.3617  -32.9409  -45.0686 H         1 UNK         0.1106 
    107 H107       24.9446  -30.5123  -45.3922 H         1 UNK         0.0828 
    108 H108       23.7380  -31.4433  -46.2632 H         1 UNK         0.0828 
    109 H109       23.3147  -30.6729  -44.7398 H         1 UNK         0.0828 
    110 H110       22.7872  -32.7146  -42.7016 H         1 UNK         0.2931 
    111 H111       21.1759  -34.8296  -43.9728 H         1 UNK         0.0412 
    112 H112       23.9778  -35.0771  -42.2298 H         1 UNK         0.3472 
    113 H113       23.5485  -36.4900  -41.2996 H         1 UNK         0.3472 
    114 H114       19.5253  -34.3251  -42.1270 H         1 UNK         0.0970 
    115 H115       19.7934  -33.0669  -43.2748 H         1 UNK         0.0970 
    116 H116       21.3179  -30.8729  -42.7901 H         1 UNK         0.0612 
    117 H117       21.0464  -30.0989  -41.2524 H         1 UNK         0.0612 
@<TRIPOS>BOND
     1    1    2 1    
     2    1   62 1    
     3    1   63 1    
     4    1   64 1    
     5    2    3 2    
     6    2    4 am   BACKBONE|DICT|INTERRES
     7    4    5 1    
     8    4   65 1    
     9    5    6 1    
    10    5   25 1    
    11    5   66 1    
    12    6    7 1    
    13    6   67 1    
    14    6   68 1    
    15    7    8 1    
    16    8    9 1    
    17    8   69 1    
    18    8   70 1    
    19    9   10 ar   
    20    9   14 ar   
    21   10   11 ar   
    22   10   71 1    
    23   11   12 ar   
    24   11   61 1    
    25   12   13 ar   
    26   12   72 1    
    27   13   14 ar   
    28   13   15 1    
    29   14   73 1    
    30   15   16 1    
    31   15   74 1    
    32   15   75 1    
    33   16   17 1    
    34   17   18 1    
    35   17   76 1    
    36   17   77 1    
    37   18   19 1    
    38   18   27 1    
    39   18   78 1    
    40   19   20 am   BACKBONE|DICT|INTERRES
    41   19   79 1    
    42   20   21 2    
    43   20   22 1    
    44   22   23 1    
    45   22   24 1    
    46   22   80 1    
    47   23   81 1    
    48   23   82 1    
    49   23   83 1    
    50   24   25 am   BACKBONE|DICT|INTERRES
    51   24   84 1    
    52   25   26 2    
    53   27   28 2    
    54   27   29 am   BACKBONE|DICT|INTERRES
    55   29   30 1    
    56   29   85 1    
    57   30   31 1    
    58   30   32 1    
    59   30   86 1    
    60   31   87 1    
    61   31   88 1    
    62   31   89 1    
    63   32   33 2    
    64   32   34 am   BACKBONE|DICT|INTERRES
    65   34   35 1    
    66   34   90 1    
    67   35   36 1    
    68   35   37 1    
    69   35   91 1    
    70   36   92 1    
    71   36   93 1    
    72   36   94 1    
    73   37   38 2    
    74   37   39 am   BACKBONE|DICT|INTERRES
    75   39   40 1    
    76   39   95 1    
    77   40   41 1    
    78   40   42 1    
    79   40   96 1    
    80   41   97 1    
    81   41   98 1    
    82   41   99 1    
    83   42   43 2    
    84   42   44 am   BACKBONE|DICT|INTERRES
    85   44   45 1    
    86   44  100 1    
    87   45   46 1    
    88   45   47 1    
    89   45  101 1    
    90   46  102 1    
    91   46  103 1    
    92   46  104 1    
    93   47   48 2    
    94   47   49 am   BACKBONE|DICT|INTERRES
    95   49   50 1    
    96   49  105 1    
    97   50   51 1    
    98   50   52 1    
    99   50  106 1    
   100   51  107 1    
   101   51  108 1    
   102   51  109 1    
   103   52   53 2    
   104   52   54 am   BACKBONE|DICT|INTERRES
   105   54   55 1    
   106   54  110 1    
   107   55   56 1    
   108   55   59 1    
   109   55  111 1    
   110   56   57 am   BACKBONE|DICT|INTERRES
   111   56   58 2    
   112   57  112 1    
   113   57  113 1    
   114   59   60 1    
   115   59  114 1    
   116   59  115 1    
   117   60   61 1    
   118   61  116 1    
   119   61  117 1    
@<TRIPOS>SUBSTRUCTURE
     1 UNK         1 GROUP             0       ****    0 ROOT    
