@<TRIPOS>MOLECULE
3R8
117   119    1
SMALL
USER_CHARGES


@<TRIPOS>ATOM
      1 CA         16.9322  -23.5227  -40.4802 C.3       0 UNK        -0.2013 
      2 C          16.7934  -23.7650  -41.9758 C.2       0 UNK         0.4866 
      3 O          16.5116  -22.8284  -42.7245 O.2       0 UNK        -0.5176 
      4 N          16.9788  -25.0158  -42.4149 N.am      1 UNK        -0.4884 
      5 CA         16.9321  -25.4256  -43.8232 C.3       1 UNK         0.0853 
      6 C6         16.8361  -26.9620  -43.9744 C.3       10 UNK        -0.0849 
      7 S7         15.4172  -27.6989  -43.0891 S.3       10 UNK        -0.2776 
      8 C8         15.3875  -29.3958  -43.7679 C.3       10 UNK         0.0316 
      9 C9         16.7823  -29.9991  -43.8658 C.ar      10 UNK        -0.0863 
     10 C10        17.5234  -30.2523  -42.7081 C.ar      10 UNK        -0.1009 
     11 C11        18.8432  -30.7028  -42.7944 C.ar      10 UNK        -0.0712 
     12 C12        19.4114  -30.9308  -44.0521 C.ar      10 UNK        -0.0894 
     13 C13        18.6741  -30.6934  -45.2176 C.ar      10 UNK        -0.0745 
     14 C14        17.3577  -30.2363  -45.1174 C.ar      10 UNK        -0.0972 
     15 C15        19.3072  -30.8906  -46.5891 C.3       10 UNK         0.0209 
     16 S16        19.7053  -29.3013  -47.3934 S.3       10 UNK        -0.2568 
     17 C17        20.9716  -28.6565  -46.2544 C.3       10 UNK        -0.0983 
     18 CA         21.4017  -27.1946  -46.5349 C.3       3 UNK         0.0876 
     19 N          20.2583  -26.2778  -46.5859 N.am      3 UNK        -0.4424 
     20 C          20.3210  -24.9831  -46.9259 C.2       2 UNK         0.4918 
     21 O          21.3510  -24.4261  -47.3066 O.2       2 UNK        -0.4875 
     22 CA         19.0232  -24.1571  -46.8187 C.3       2 UNK         0.0481 
     23 CB         18.3976  -23.9705  -48.2104 C.3       2 UNK        -0.1831 
     24 N          18.0056  -24.6933  -45.9037 N.am      2 UNK        -0.4498 
     25 C          18.1675  -24.9075  -44.5893 C.2       1 UNK         0.5027 
     26 O          19.2435  -24.7695  -43.9995 O.2       1 UNK        -0.4969 
     27 C          22.4355  -26.7920  -45.4632 C.2       3 UNK         0.5005 
     28 O          23.6331  -26.9923  -45.6757 O.2       3 UNK        -0.5279 
     29 N          21.9439  -26.2987  -44.3131 N.am      4 UNK        -0.4463 
     30 CA         22.6349  -26.1245  -43.0290 C.3       4 UNK         0.0283 
     31 CB         23.7735  -25.0878  -43.1158 C.3       4 UNK        -0.1875 
     32 C          23.1046  -27.4670  -42.4372 C.2       4 UNK         0.4949 
     33 O          22.5566  -27.9081  -41.4262 O.2       4 UNK        -0.5039 
     34 N          24.0951  -28.0934  -43.0923 N.am      5 UNK        -0.4663 
     35 CA         24.6337  -29.4428  -42.8612 C.3       5 UNK         0.0242 
     36 CB         23.6522  -30.4856  -43.4308 C.3       5 UNK        -0.1982 
     37 C          25.0245  -29.7326  -41.3981 C.2       5 UNK         0.5017 
     38 O          24.8106  -30.8460  -40.9121 O.2       5 UNK        -0.5012 
     39 N          25.5297  -28.6974  -40.7072 N.am      6 UNK        -0.4439 
     40 CA         25.8993  -28.6548  -39.2838 C.3       6 UNK         0.0297 
     41 CB         27.1629  -29.5080  -39.0432 C.3       6 UNK        -0.2006 
     42 C          24.7575  -29.0331  -38.3117 C.2       6 UNK         0.4892 
     43 O          25.0398  -29.4050  -37.1720 O.2       6 UNK        -0.5089 
     44 N          23.5012  -28.9786  -38.7872 N.am      7 UNK        -0.4243 
     45 CA         22.2816  -29.5145  -38.1660 C.3       7 UNK         0.0196 
     46 CB         21.9463  -28.7664  -36.8586 C.3       7 UNK        -0.2007 
     47 C          22.2867  -31.0504  -37.9808 C.2       7 UNK         0.5020 
     48 O          21.4136  -31.5741  -37.2879 O.2       7 UNK        -0.5147 
     49 N          23.2452  -31.7516  -38.6034 N.am      8 UNK        -0.4734 
     50 CA         23.3624  -33.2116  -38.5940 C.3       8 UNK         0.0238 
     51 CB         24.8498  -33.5956  -38.6537 C.3       8 UNK        -0.1912 
     52 C          22.5955  -33.8480  -39.7629 C.2       8 UNK         0.5038 
     53 O          22.1540  -34.9911  -39.6403 O.2       8 UNK        -0.5046 
     54 N          22.4458  -33.0923  -40.8598 N.am      9 UNK        -0.4200 
     55 CA         21.6832  -33.4461  -42.0695 C.3       9 UNK         0.0839 
     56 C          22.3254  -34.5662  -42.9411 C.2       9 UNK         0.5513 
     57 N          23.6008  -34.8894  -42.7636 N.am      9 UNK        -0.7519 
     58 O          21.6704  -35.1299  -43.8140 O.2       9 UNK        -0.4960 
     59 C59        20.1637  -33.6841  -41.8090 C.3       10 UNK        -0.0876 
     60 S60        19.3478  -32.4707  -40.7080 S.3       10 UNK        -0.2414 
     61 C61        19.6640  -30.8770  -41.5256 C.3       10 UNK         0.0169 
     62 H62        17.7316  -22.8073  -40.2893 H         1 UNK         0.0903 
     63 H63        16.0053  -23.1140  -40.0785 H         1 UNK         0.0903 
     64 H64        17.1612  -24.4399  -39.9378 H         1 UNK         0.0903 
     65 H65        17.2105  -25.7475  -41.7586 H         1 UNK         0.3096 
     66 H66        16.0413  -24.9772  -44.2697 H         1 UNK         0.1121 
     67 H67        17.7503  -27.4323  -43.6050 H         1 UNK         0.0849 
     68 H68        16.7541  -27.2358  -45.0284 H         1 UNK         0.0849 
     69 H69        14.7620  -30.0255  -43.1336 H         1 UNK         0.0865 
     70 H70        14.9065  -29.3743  -44.7471 H         1 UNK         0.0865 
     71 H71        17.0861  -30.0537  -41.7389 H         1 UNK         0.1346 
     72 H72        20.4367  -31.2628  -44.1280 H         1 UNK         0.1412 
     73 H73        16.7975  -30.0288  -46.0191 H         1 UNK         0.1426 
     74 H74        18.6200  -31.4476  -47.2275 H         1 UNK         0.0716 
     75 H75        20.2132  -31.4943  -46.5153 H         1 UNK         0.0716 
     76 H76        21.8344  -29.3240  -46.3054 H         1 UNK         0.0695 
     77 H77        20.5843  -28.7345  -45.2373 H         1 UNK         0.0695 
     78 H78        21.9000  -27.1581  -47.5061 H         1 UNK         0.0983 
     79 H79        19.3632  -26.6679  -46.3330 H         1 UNK         0.3095 
     80 H80        19.3051  -23.1723  -46.4408 H         1 UNK         0.0454 
     81 H81        19.1174  -23.5410  -48.9088 H         1 UNK         0.0851 
     82 H82        17.5432  -23.2943  -48.1765 H         1 UNK         0.0851 
     83 H83        18.0616  -24.9184  -48.6327 H         1 UNK         0.0851 
     84 H84        17.0944  -24.8571  -46.3083 H         1 UNK         0.2976 
     85 H85        20.9474  -26.1135  -44.2775 H         1 UNK         0.3116 
     86 H86        21.8862  -25.7243  -42.3431 H         1 UNK         0.0646 
     87 H87        24.5676  -25.3902  -43.7984 H         1 UNK         0.0847 
     88 H88        23.3978  -24.1222  -43.4541 H         1 UNK         0.0847 
     89 H89        24.2302  -24.9313  -42.1378 H         1 UNK         0.0847 
     90 H90        24.4031  -27.6451  -43.9510 H         1 UNK         0.3040 
     91 H91        25.5597  -29.5131  -43.4341 H         1 UNK         0.1015 
     92 H92        24.0429  -31.4993  -43.3325 H         1 UNK         0.0786 
     93 H93        23.4674  -30.3147  -44.4912 H         1 UNK         0.0786 
     94 H94        22.6941  -30.4428  -42.9162 H         1 UNK         0.0786 
     95 H95        25.6256  -27.8238  -41.2068 H         1 UNK         0.3172 
     96 H96        26.1506  -27.6162  -39.0642 H         1 UNK         0.0595 
     97 H97        26.9639  -30.5713  -39.1833 H         1 UNK         0.0839 
     98 H98        27.5387  -29.3793  -38.0273 H         1 UNK         0.0839 
     99 H99        27.9686  -29.2256  -39.7206 H         1 UNK         0.0839 
    100 H100       23.3721  -28.6370  -39.7361 H         1 UNK         0.2998 
    101 H101       21.4791  -29.3083  -38.8761 H         1 UNK         0.0822 
    102 H102       20.9601  -29.0487  -36.4884 H         1 UNK         0.0787 
    103 H103       21.9362  -27.6872  -37.0106 H         1 UNK         0.0787 
    104 H104       22.6630  -28.9884  -36.0677 H         1 UNK         0.0787 
    105 H105       23.9111  -31.2524  -39.1855 H         1 UNK         0.3055 
    106 H106       22.9423  -33.6073  -37.6664 H         1 UNK         0.1106 
    107 H107       25.3975  -33.1865  -37.8045 H         1 UNK         0.0828 
    108 H108       24.9746  -34.6790  -38.6285 H         1 UNK         0.0828 
    109 H109       25.3273  -33.2325  -39.5648 H         1 UNK         0.0828 
    110 H110       22.9019  -32.1906  -40.8721 H         1 UNK         0.2931 
    111 H111       21.7545  -32.5672  -42.7050 H         1 UNK         0.0412 
    112 H112       24.1518  -34.4270  -42.0585 H         1 UNK         0.3472 
    113 H113       24.0133  -35.6081  -43.3376 H         1 UNK         0.3472 
    114 H114       19.6182  -33.6987  -42.7543 H         1 UNK         0.0970 
    115 H115       20.0146  -34.6710  -41.3677 H         1 UNK         0.0970 
    116 H116       19.4099  -30.0804  -40.8247 H         1 UNK         0.0612 
    117 H117       20.7276  -30.7561  -41.7242 H         1 UNK         0.0612 
@<TRIPOS>BOND
     1    1    2 1    
     2    1   62 1    
     3    1   63 1    
     4    1   64 1    
     5    2    3 2    
     6    2    4 am   BACKBONE|DICT|INTERRES
     7    4    5 1    
     8    4   65 1    
     9    5    6 1    
    10    5   25 1    
    11    5   66 1    
    12    6    7 1    
    13    6   67 1    
    14    6   68 1    
    15    7    8 1    
    16    8    9 1    
    17    8   69 1    
    18    8   70 1    
    19    9   10 ar   
    20    9   14 ar   
    21   10   11 ar   
    22   10   71 1    
    23   11   12 ar   
    24   11   61 1    
    25   12   13 ar   
    26   12   72 1    
    27   13   14 ar   
    28   13   15 1    
    29   14   73 1    
    30   15   16 1    
    31   15   74 1    
    32   15   75 1    
    33   16   17 1    
    34   17   18 1    
    35   17   76 1    
    36   17   77 1    
    37   18   19 1    
    38   18   27 1    
    39   18   78 1    
    40   19   20 am   BACKBONE|DICT|INTERRES
    41   19   79 1    
    42   20   21 2    
    43   20   22 1    
    44   22   23 1    
    45   22   24 1    
    46   22   80 1    
    47   23   81 1    
    48   23   82 1    
    49   23   83 1    
    50   24   25 am   BACKBONE|DICT|INTERRES
    51   24   84 1    
    52   25   26 2    
    53   27   28 2    
    54   27   29 am   BACKBONE|DICT|INTERRES
    55   29   30 1    
    56   29   85 1    
    57   30   31 1    
    58   30   32 1    
    59   30   86 1    
    60   31   87 1    
    61   31   88 1    
    62   31   89 1    
    63   32   33 2    
    64   32   34 am   BACKBONE|DICT|INTERRES
    65   34   35 1    
    66   34   90 1    
    67   35   36 1    
    68   35   37 1    
    69   35   91 1    
    70   36   92 1    
    71   36   93 1    
    72   36   94 1    
    73   37   38 2    
    74   37   39 am   BACKBONE|DICT|INTERRES
    75   39   40 1    
    76   39   95 1    
    77   40   41 1    
    78   40   42 1    
    79   40   96 1    
    80   41   97 1    
    81   41   98 1    
    82   41   99 1    
    83   42   43 2    
    84   42   44 am   BACKBONE|DICT|INTERRES
    85   44   45 1    
    86   44  100 1    
    87   45   46 1    
    88   45   47 1    
    89   45  101 1    
    90   46  102 1    
    91   46  103 1    
    92   46  104 1    
    93   47   48 2    
    94   47   49 am   BACKBONE|DICT|INTERRES
    95   49   50 1    
    96   49  105 1    
    97   50   51 1    
    98   50   52 1    
    99   50  106 1    
   100   51  107 1    
   101   51  108 1    
   102   51  109 1    
   103   52   53 2    
   104   52   54 am   BACKBONE|DICT|INTERRES
   105   54   55 1    
   106   54  110 1    
   107   55   56 1    
   108   55   59 1    
   109   55  111 1    
   110   56   57 am   BACKBONE|DICT|INTERRES
   111   56   58 2    
   112   57  112 1    
   113   57  113 1    
   114   59   60 1    
   115   59  114 1    
   116   59  115 1    
   117   60   61 1    
   118   61  116 1    
   119   61  117 1    
@<TRIPOS>SUBSTRUCTURE
     1 UNK         1 GROUP             0       ****    0 ROOT    
