@<TRIPOS>MOLECULE
3R8
117   119    1
SMALL
USER_CHARGES


@<TRIPOS>ATOM
      1 CA         23.3013  -29.9720  -47.7021 C.3       0 UNK        -0.2013 
      2 C          22.0693  -29.0932  -47.5446 C.2       0 UNK         0.4866 
      3 O          21.8983  -28.1420  -48.3065 O.2       0 UNK        -0.5176 
      4 N          21.2190  -29.4053  -46.5557 N.am      1 UNK        -0.4884 
      5 CA         19.9450  -28.7298  -46.2516 C.3       1 UNK         0.0853 
      6 C6         18.8742  -28.8949  -47.3651 C.3       10 UNK        -0.0849 
      7 S7         18.3816  -30.6441  -47.5356 S.3       10 UNK        -0.2776 
      8 C8         16.7183  -30.6429  -46.7862 C.3       10 UNK         0.0316 
      9 C9         16.7133  -30.1461  -45.3441 C.ar      10 UNK        -0.0863 
     10 C10        17.2910  -30.9128  -44.3276 C.ar      10 UNK        -0.1009 
     11 C11        17.2614  -30.4706  -43.0008 C.ar      10 UNK        -0.0712 
     12 C12        16.6379  -29.2590  -42.6897 C.ar      10 UNK        -0.0894 
     13 C13        16.0624  -28.4809  -43.6975 C.ar      10 UNK        -0.0745 
     14 C14        16.1056  -28.9281  -45.0218 C.ar      10 UNK        -0.0972 
     15 C15        15.3698  -27.1690  -43.3612 C.3       10 UNK         0.0209 
     16 S16        16.5056  -25.7545  -43.5040 S.3       10 UNK        -0.2568 
     17 C17        17.2271  -25.6484  -41.8290 C.3       10 UNK        -0.0983 
     18 CA         18.6323  -26.2925  -41.7054 C.3       3 UNK         0.0876 
     19 N          19.5492  -25.8207  -42.7467 N.am      3 UNK        -0.4424 
     20 C          20.8317  -26.1692  -42.9021 C.2       2 UNK         0.4918 
     21 O          21.4807  -26.8396  -42.0974 O.2       2 UNK        -0.4875 
     22 CA         21.4537  -25.8242  -44.2623 C.3       2 UNK         0.0481 
     23 CB         22.9545  -25.5029  -44.1554 C.3       2 UNK        -0.1831 
     24 N          21.2591  -26.9921  -45.1195 N.am      2 UNK        -0.4498 
     25 C          20.1222  -27.2707  -45.7738 C.2       1 UNK         0.5027 
     26 O          19.2225  -26.4461  -45.9428 O.2       1 UNK        -0.4969 
     27 C          19.1923  -26.1068  -40.2799 C.2       3 UNK         0.5005 
     28 O          19.2598  -24.9744  -39.7969 O.2       3 UNK        -0.5279 
     29 N          19.5905  -27.2237  -39.6505 N.am      4 UNK        -0.4463 
     30 CA         20.1374  -27.3373  -38.2907 C.3       4 UNK         0.0283 
     31 CB         19.0802  -26.9332  -37.2407 C.3       4 UNK        -0.1875 
     32 C          21.4866  -26.6185  -38.0659 C.2       4 UNK         0.4949 
     33 O          21.8748  -26.4224  -36.9134 O.2       4 UNK        -0.5039 
     34 N          22.1912  -26.2564  -39.1471 N.am      5 UNK        -0.4663 
     35 CA         23.5221  -25.6442  -39.1015 C.3       5 UNK         0.0242 
     36 CB         23.8455  -24.9469  -40.4352 C.3       5 UNK        -0.1982 
     37 C          24.6519  -26.6058  -38.6636 C.2       5 UNK         0.5017 
     38 O          25.4522  -26.2015  -37.8218 O.2       5 UNK        -0.5012 
     39 N          24.7591  -27.8464  -39.1678 N.am      6 UNK        -0.4439 
     40 CA         24.0325  -28.4626  -40.2758 C.3       6 UNK         0.0297 
     41 CB         23.1626  -29.6154  -39.7488 C.3       6 UNK        -0.2006 
     42 C          25.0421  -28.9823  -41.3017 C.2       6 UNK         0.4892 
     43 O          26.0850  -29.5157  -40.9168 O.2       6 UNK        -0.5089 
     44 N          24.6934  -28.8377  -42.5858 N.am      7 UNK        -0.4243 
     45 CA         25.4597  -29.3683  -43.7194 C.3       7 UNK         0.0196 
     46 CB         25.1966  -28.4935  -44.9563 C.3       7 UNK        -0.2007 
     47 C          25.1320  -30.8442  -44.0167 C.2       7 UNK         0.5020 
     48 O          25.8890  -31.5001  -44.7320 O.2       7 UNK        -0.5147 
     49 N          24.0149  -31.3352  -43.4708 N.am      8 UNK        -0.4734 
     50 CA         23.5549  -32.7180  -43.5326 C.3       8 UNK         0.0238 
     51 CB         22.7816  -32.9673  -44.8471 C.3       8 UNK        -0.1912 
     52 C          22.7528  -32.9736  -42.2476 C.2       8 UNK         0.5038 
     53 O          23.2814  -32.7250  -41.1631 O.2       8 UNK        -0.5046 
     54 N          21.4968  -33.4181  -42.3814 N.am      9 UNK        -0.4200 
     55 CA         20.5181  -33.5939  -41.2919 C.3       9 UNK         0.0839 
     56 C          20.8437  -34.7465  -40.2934 C.2       9 UNK         0.5513 
     57 N          21.7273  -35.6794  -40.6275 N.am      9 UNK        -0.7519 
     58 O          20.2635  -34.8196  -39.2129 O.2       9 UNK        -0.4960 
     59 C59        20.1539  -32.2598  -40.5698 C.3       10 UNK        -0.0876 
     60 S60        19.6569  -30.9272  -41.7170 S.3       10 UNK        -0.2414 
     61 C61        17.8904  -31.3109  -41.9031 C.3       10 UNK         0.0169 
     62 H62        24.1866  -29.3562  -47.8578 H         1 UNK         0.0903 
     63 H63        23.4749  -30.5930  -46.8241 H         1 UNK         0.0903 
     64 H64        23.1864  -30.6254  -48.5664 H         1 UNK         0.0903 
     65 H65        21.4143  -30.2145  -45.9838 H         1 UNK         0.3096 
     66 H66        19.5545  -29.2349  -45.3659 H         1 UNK         0.1121 
     67 H67        19.2486  -28.5347  -48.3241 H         1 UNK         0.0849 
     68 H68        17.9827  -28.3020  -47.1557 H         1 UNK         0.0849 
     69 H69        16.0515  -30.0407  -47.4056 H         1 UNK         0.0865 
     70 H70        16.3195  -31.6580  -46.8145 H         1 UNK         0.0865 
     71 H71        17.7661  -31.8537  -44.5708 H         1 UNK         0.1346 
     72 H72        16.5999  -28.9225  -41.6628 H         1 UNK         0.1412 
     73 H73        15.6561  -28.3272  -45.8009 H         1 UNK         0.1426 
     74 H74        14.9284  -27.2078  -42.3643 H         1 UNK         0.0716 
     75 H75        14.5367  -27.0121  -44.0481 H         1 UNK         0.0716 
     76 H76        16.5391  -26.0944  -41.1086 H         1 UNK         0.0695 
     77 H77        17.2753  -24.5876  -41.5751 H         1 UNK         0.0695 
     78 H78        18.5172  -27.3629  -41.8814 H         1 UNK         0.0983 
     79 H79        19.1025  -25.3169  -43.5005 H         1 UNK         0.3095 
     80 H80        20.9481  -24.9542  -44.6869 H         1 UNK         0.0454 
     81 H81        23.5222  -26.3187  -43.7101 H         1 UNK         0.0851 
     82 H82        23.1162  -24.6196  -43.5368 H         1 UNK         0.0851 
     83 H83        23.3842  -25.2941  -45.1352 H         1 UNK         0.0851 
     84 H84        21.9346  -27.7352  -45.0297 H         1 UNK         0.2976 
     85 H85        19.5458  -28.0940  -40.1637 H         1 UNK         0.3116 
     86 H86        20.3435  -28.3985  -38.1459 H         1 UNK         0.0646 
     87 H87        18.8684  -25.8640  -37.2697 H         1 UNK         0.0847 
     88 H88        19.4192  -27.1677  -36.2310 H         1 UNK         0.0847 
     89 H89        18.1420  -27.4660  -37.3950 H         1 UNK         0.0847 
     90 H90        21.8134  -26.4631  -40.0654 H         1 UNK         0.3040 
     91 H91        23.4780  -24.8575  -38.3446 H         1 UNK         0.1015 
     92 H92        23.9290  -25.6453  -41.2658 H         1 UNK         0.0786 
     93 H93        24.7940  -24.4123  -40.3703 H         1 UNK         0.0786 
     94 H94        23.0800  -24.2146  -40.6927 H         1 UNK         0.0786 
     95 H95        25.5482  -28.3993  -38.8610 H         1 UNK         0.3172 
     96 H96        23.3950  -27.7467  -40.7806 H         1 UNK         0.0595 
     97 H97        23.7677  -30.4325  -39.3530 H         1 UNK         0.0839 
     98 H98        22.5419  -30.0266  -40.5453 H         1 UNK         0.0839 
     99 H99        22.4938  -29.2870  -38.9554 H         1 UNK         0.0839 
    100 H100       23.8186  -28.3798  -42.7984 H         1 UNK         0.2998 
    101 H101       26.5259  -29.3143  -43.4878 H         1 UNK         0.0822 
    102 H102       25.5181  -27.4654  -44.7887 H         1 UNK         0.0787 
    103 H103       25.7495  -28.8636  -45.8209 H         1 UNK         0.0787 
    104 H104       24.1409  -28.4769  -45.2250 H         1 UNK         0.0787 
    105 H105       23.4967  -30.7441  -42.8366 H         1 UNK         0.3055 
    106 H106       24.4187  -33.3859  -43.5001 H         1 UNK         0.1106 
    107 H107       22.4408  -34.0010  -44.9176 H         1 UNK         0.0828 
    108 H108       21.9113  -32.3169  -44.9410 H         1 UNK         0.0828 
    109 H109       23.4198  -32.7928  -45.7132 H         1 UNK         0.0828 
    110 H110       21.1495  -33.6046  -43.3102 H         1 UNK         0.2931 
    111 H111       19.6117  -33.9338  -41.7935 H         1 UNK         0.0412 
    112 H112       21.9245  -36.4277  -39.9814 H         1 UNK         0.3472 
    113 H113       22.2031  -35.6387  -41.5144 H         1 UNK         0.3472 
    114 H114       19.3448  -32.4181  -39.8545 H         1 UNK         0.0970 
    115 H115       21.0006  -31.9060  -39.9802 H         1 UNK         0.0970 
    116 H116       17.7671  -32.3694  -42.1363 H         1 UNK         0.0612 
    117 H117       17.3808  -31.1415  -40.9532 H         1 UNK         0.0612 
@<TRIPOS>BOND
     1    1    2 1    
     2    1   62 1    
     3    1   63 1    
     4    1   64 1    
     5    2    3 2    
     6    2    4 am   BACKBONE|DICT|INTERRES
     7    4    5 1    
     8    4   65 1    
     9    5    6 1    
    10    5   25 1    
    11    5   66 1    
    12    6    7 1    
    13    6   67 1    
    14    6   68 1    
    15    7    8 1    
    16    8    9 1    
    17    8   69 1    
    18    8   70 1    
    19    9   10 ar   
    20    9   14 ar   
    21   10   11 ar   
    22   10   71 1    
    23   11   12 ar   
    24   11   61 1    
    25   12   13 ar   
    26   12   72 1    
    27   13   14 ar   
    28   13   15 1    
    29   14   73 1    
    30   15   16 1    
    31   15   74 1    
    32   15   75 1    
    33   16   17 1    
    34   17   18 1    
    35   17   76 1    
    36   17   77 1    
    37   18   19 1    
    38   18   27 1    
    39   18   78 1    
    40   19   20 am   BACKBONE|DICT|INTERRES
    41   19   79 1    
    42   20   21 2    
    43   20   22 1    
    44   22   23 1    
    45   22   24 1    
    46   22   80 1    
    47   23   81 1    
    48   23   82 1    
    49   23   83 1    
    50   24   25 am   BACKBONE|DICT|INTERRES
    51   24   84 1    
    52   25   26 2    
    53   27   28 2    
    54   27   29 am   BACKBONE|DICT|INTERRES
    55   29   30 1    
    56   29   85 1    
    57   30   31 1    
    58   30   32 1    
    59   30   86 1    
    60   31   87 1    
    61   31   88 1    
    62   31   89 1    
    63   32   33 2    
    64   32   34 am   BACKBONE|DICT|INTERRES
    65   34   35 1    
    66   34   90 1    
    67   35   36 1    
    68   35   37 1    
    69   35   91 1    
    70   36   92 1    
    71   36   93 1    
    72   36   94 1    
    73   37   38 2    
    74   37   39 am   BACKBONE|DICT|INTERRES
    75   39   40 1    
    76   39   95 1    
    77   40   41 1    
    78   40   42 1    
    79   40   96 1    
    80   41   97 1    
    81   41   98 1    
    82   41   99 1    
    83   42   43 2    
    84   42   44 am   BACKBONE|DICT|INTERRES
    85   44   45 1    
    86   44  100 1    
    87   45   46 1    
    88   45   47 1    
    89   45  101 1    
    90   46  102 1    
    91   46  103 1    
    92   46  104 1    
    93   47   48 2    
    94   47   49 am   BACKBONE|DICT|INTERRES
    95   49   50 1    
    96   49  105 1    
    97   50   51 1    
    98   50   52 1    
    99   50  106 1    
   100   51  107 1    
   101   51  108 1    
   102   51  109 1    
   103   52   53 2    
   104   52   54 am   BACKBONE|DICT|INTERRES
   105   54   55 1    
   106   54  110 1    
   107   55   56 1    
   108   55   59 1    
   109   55  111 1    
   110   56   57 am   BACKBONE|DICT|INTERRES
   111   56   58 2    
   112   57  112 1    
   113   57  113 1    
   114   59   60 1    
   115   59  114 1    
   116   59  115 1    
   117   60   61 1    
   118   61  116 1    
   119   61  117 1    
@<TRIPOS>SUBSTRUCTURE
     1 UNK         1 GROUP             0       ****    0 ROOT    
