@<TRIPOS>MOLECULE
3R8
117   119    1
SMALL
USER_CHARGES


@<TRIPOS>ATOM
      1 CA         17.4400  -25.0988  -41.6782 C.3       0 UNK        -0.2013 
      2 C          18.5232  -25.3280  -42.7193 C.2       0 UNK         0.4866 
      3 O          19.6918  -25.4737  -42.3630 O.2       0 UNK        -0.5176 
      4 N          18.1322  -25.3745  -43.9987 N.am      1 UNK        -0.4884 
      5 CA         18.9696  -25.3901  -45.2108 C.3       1 UNK         0.0853 
      6 C6         18.1127  -25.2837  -46.5038 C.3       10 UNK        -0.0849 
      7 S7         16.5498  -26.2350  -46.4997 S.3       10 UNK        -0.2776 
      8 C8         17.1078  -27.9305  -46.8885 C.3       10 UNK         0.0316 
      9 C9         17.0896  -28.9258  -45.7230 C.ar      10 UNK        -0.0863 
     10 C10        17.6184  -30.2007  -45.9487 C.ar      10 UNK        -0.1009 
     11 C11        17.5978  -31.1822  -44.9532 C.ar      10 UNK        -0.0712 
     12 C12        17.0146  -30.8822  -43.7187 C.ar      10 UNK        -0.0894 
     13 C13        16.5034  -29.6097  -43.4606 C.ar      10 UNK        -0.0745 
     14 C14        16.5402  -28.6365  -44.4642 C.ar      10 UNK        -0.0972 
     15 C15        15.8782  -29.3039  -42.1070 C.3       10 UNK         0.0209 
     16 S16        17.0497  -28.5028  -40.9660 S.3       10 UNK        -0.2568 
     17 C17        18.1965  -29.8563  -40.5200 C.3       10 UNK        -0.0983 
     18 CA         19.6883  -29.5288  -40.7895 C.3       3 UNK         0.0876 
     19 N          19.9189  -29.1279  -42.1823 N.am      3 UNK        -0.4424 
     20 C          21.1071  -28.8432  -42.7355 C.2       2 UNK         0.4918 
     21 O          22.1704  -28.8259  -42.1182 O.2       2 UNK        -0.4875 
     22 CA         21.0992  -28.4407  -44.2107 C.3       2 UNK         0.0481 
     23 CB         21.0310  -29.6684  -45.1311 C.3       2 UNK        -0.1831 
     24 N          19.9947  -27.5140  -44.4590 N.am      2 UNK        -0.4498 
     25 C          20.0458  -26.4960  -45.3217 C.2       1 UNK         0.5027 
     26 O          20.9301  -26.3756  -46.1712 O.2       1 UNK        -0.4969 
     27 C          20.2580  -28.5635  -39.7231 C.2       3 UNK         0.5005 
     28 O          20.6192  -29.0328  -38.6430 O.2       3 UNK        -0.5279 
     29 N          20.3535  -27.2621  -40.0345 N.am      4 UNK        -0.4463 
     30 CA         21.0101  -26.2574  -39.1954 C.3       4 UNK         0.0283 
     31 CB         20.0446  -25.0948  -38.9119 C.3       4 UNK        -0.1875 
     32 C          22.2935  -25.7452  -39.8629 C.2       4 UNK         0.4949 
     33 O          23.3135  -25.6311  -39.1850 O.2       4 UNK        -0.5039 
     34 N          22.2298  -25.4546  -41.1713 N.am      5 UNK        -0.4663 
     35 CA         23.3114  -24.8535  -41.9598 C.3       5 UNK         0.0242 
     36 CB         22.7890  -24.5268  -43.3677 C.3       5 UNK        -0.1982 
     37 C          24.5893  -25.7048  -42.0474 C.2       5 UNK         0.5017 
     38 O          25.6856  -25.1471  -41.9863 O.2       5 UNK        -0.5012 
     39 N          24.4257  -27.0265  -42.1790 N.am      6 UNK        -0.4439 
     40 CA         25.5094  -28.0135  -42.2007 C.3       6 UNK         0.0297 
     41 CB         25.4106  -28.8207  -43.5070 C.3       6 UNK        -0.2006 
     42 C          25.4626  -28.9424  -40.9726 C.2       6 UNK         0.4892 
     43 O          26.3228  -29.8148  -40.8513 O.2       6 UNK        -0.5089 
     44 N          24.4588  -28.7512  -40.1015 N.am      7 UNK        -0.4243 
     45 CA         24.1199  -29.5270  -38.9015 C.3       7 UNK         0.0196 
     46 CB         25.2646  -29.4764  -37.8678 C.3       7 UNK        -0.2007 
     47 C          23.6502  -30.9719  -39.1779 C.2       7 UNK         0.5020 
     48 O          23.4575  -31.7271  -38.2239 O.2       7 UNK        -0.5147 
     49 N          23.4579  -31.3399  -40.4504 N.am      8 UNK        -0.4734 
     50 CA         23.0682  -32.6663  -40.9246 C.3       8 UNK         0.0238 
     51 CB         24.1842  -33.6962  -40.6480 C.3       8 UNK        -0.1912 
     52 C          22.7940  -32.5890  -42.4306 C.2       8 UNK         0.5038 
     53 O          23.3203  -31.6991  -43.1017 O.2       8 UNK        -0.5046 
     54 N          22.0057  -33.5429  -42.9357 N.am      9 UNK        -0.4200 
     55 CA         21.6715  -33.6861  -44.3639 C.3       9 UNK         0.0839 
     56 C          22.7620  -34.4055  -45.2104 C.2       9 UNK         0.5513 
     57 N          23.8340  -34.9232  -44.6224 N.am      9 UNK        -0.7519 
     58 O          22.6353  -34.4886  -46.4292 O.2       9 UNK        -0.4960 
     59 C59        20.2807  -34.3453  -44.5547 C.3       10 UNK        -0.0876 
     60 S60        18.9632  -33.3466  -43.7851 S.3       10 UNK        -0.2414 
     61 C61        18.2019  -32.5548  -45.2442 C.3       10 UNK         0.0169 
     62 H62        17.6742  -25.6319  -40.7579 H         1 UNK         0.0903 
     63 H63        17.3675  -24.0376  -41.4429 H         1 UNK         0.0903 
     64 H64        16.4668  -25.4432  -42.0276 H         1 UNK         0.0903 
     65 H65        17.1447  -25.2952  -44.1997 H         1 UNK         0.3096 
     66 H66        19.5596  -24.4725  -45.1529 H         1 UNK         0.1121 
     67 H67        18.6860  -25.5254  -47.4015 H         1 UNK         0.0849 
     68 H68        17.8268  -24.2391  -46.6368 H         1 UNK         0.0849 
     69 H69        16.4564  -28.3199  -47.6722 H         1 UNK         0.0865 
     70 H70        18.1093  -27.8967  -47.3199 H         1 UNK         0.0865 
     71 H71        18.0477  -30.4333  -46.9141 H         1 UNK         0.1346 
     72 H72        16.9589  -31.6409  -42.9513 H         1 UNK         0.1412 
     73 H73        16.1164  -27.6652  -44.2560 H         1 UNK         0.1426 
     74 H74        15.4873  -30.2129  -41.6469 H         1 UNK         0.0716 
     75 H75        15.0204  -28.6439  -42.2443 H         1 UNK         0.0716 
     76 H76        17.9240  -30.7593  -41.0642 H         1 UNK         0.0695 
     77 H77        18.0393  -30.1055  -39.4687 H         1 UNK         0.0695 
     78 H78        20.2473  -30.4582  -40.6588 H         1 UNK         0.0983 
     79 H79        19.0990  -29.1534  -42.7711 H         1 UNK         0.3095 
     80 H80        22.0421  -27.9240  -44.4042 H         1 UNK         0.0454 
     81 H81        21.9522  -30.2476  -45.0598 H         1 UNK         0.0851 
     82 H82        20.9060  -29.3834  -46.1755 H         1 UNK         0.0851 
     83 H83        20.2139  -30.3335  -44.8596 H         1 UNK         0.0851 
     84 H84        19.2585  -27.4813  -43.7690 H         1 UNK         0.2976 
     85 H85        20.0339  -26.9505  -40.9442 H         1 UNK         0.3116 
     86 H86        21.2944  -26.6888  -38.2334 H         1 UNK         0.0646 
     87 H87        19.7739  -24.5542  -39.8188 H         1 UNK         0.0847 
     88 H88        20.4981  -24.3735  -38.2309 H         1 UNK         0.0847 
     89 H89        19.1258  -25.4482  -38.4441 H         1 UNK         0.0847 
     90 H90        21.3267  -25.5229  -41.6387 H         1 UNK         0.3040 
     91 H91        23.5826  -23.9146  -41.4720 H         1 UNK         0.1015 
     92 H92        22.4911  -25.4279  -43.9037 H         1 UNK         0.0786 
     93 H93        23.5554  -24.0305  -43.9646 H         1 UNK         0.0786 
     94 H94        21.9269  -23.8605  -43.3280 H         1 UNK         0.0786 
     95 H95        23.4843  -27.4078  -42.2211 H         1 UNK         0.3172 
     96 H96        26.4822  -27.5186  -42.1811 H         1 UNK         0.0595 
     97 H97        24.4548  -29.3382  -43.5906 H         1 UNK         0.0839 
     98 H98        26.1955  -29.5758  -43.5656 H         1 UNK         0.0839 
     99 H99        25.5171  -28.1754  -44.3789 H         1 UNK         0.0839 
    100 H100       23.8149  -28.0031  -40.3152 H         1 UNK         0.2998 
    101 H101       23.2644  -29.0170  -38.4579 H         1 UNK         0.0822 
    102 H102       24.9521  -29.9097  -36.9169 H         1 UNK         0.0787 
    103 H103       26.1401  -30.0329  -38.2032 H         1 UNK         0.0787 
    104 H104       25.5732  -28.4503  -37.6680 H         1 UNK         0.0787 
    105 H105       23.5894  -30.6581  -41.1905 H         1 UNK         0.3055 
    106 H106       22.1508  -32.9628  -40.4116 H         1 UNK         0.1106 
    107 H107       23.9224  -34.6796  -41.0401 H         1 UNK         0.0828 
    108 H108       25.1259  -33.3986  -41.1113 H         1 UNK         0.0828 
    109 H109       24.3649  -33.8230  -39.5809 H         1 UNK         0.0828 
    110 H110       21.6218  -34.2460  -42.3218 H         1 UNK         0.2931 
    111 H111       21.6034  -32.6829  -44.7885 H         1 UNK         0.0412 
    112 H112       23.9564  -34.8532  -43.6258 H         1 UNK         0.3472 
    113 H113       24.5326  -35.3818  -45.1863 H         1 UNK         0.3472 
    114 H114       20.2663  -35.3416  -44.1097 H         1 UNK         0.0970 
    115 H115       20.0526  -34.4889  -45.6126 H         1 UNK         0.0970 
    116 H116       17.4280  -33.2114  -45.6433 H         1 UNK         0.0612 
    117 H117       18.9602  -32.4524  -46.0221 H         1 UNK         0.0612 
@<TRIPOS>BOND
     1    1    2 1    
     2    1   62 1    
     3    1   63 1    
     4    1   64 1    
     5    2    3 2    
     6    2    4 am   BACKBONE|DICT|INTERRES
     7    4    5 1    
     8    4   65 1    
     9    5    6 1    
    10    5   25 1    
    11    5   66 1    
    12    6    7 1    
    13    6   67 1    
    14    6   68 1    
    15    7    8 1    
    16    8    9 1    
    17    8   69 1    
    18    8   70 1    
    19    9   10 ar   
    20    9   14 ar   
    21   10   11 ar   
    22   10   71 1    
    23   11   12 ar   
    24   11   61 1    
    25   12   13 ar   
    26   12   72 1    
    27   13   14 ar   
    28   13   15 1    
    29   14   73 1    
    30   15   16 1    
    31   15   74 1    
    32   15   75 1    
    33   16   17 1    
    34   17   18 1    
    35   17   76 1    
    36   17   77 1    
    37   18   19 1    
    38   18   27 1    
    39   18   78 1    
    40   19   20 am   BACKBONE|DICT|INTERRES
    41   19   79 1    
    42   20   21 2    
    43   20   22 1    
    44   22   23 1    
    45   22   24 1    
    46   22   80 1    
    47   23   81 1    
    48   23   82 1    
    49   23   83 1    
    50   24   25 am   BACKBONE|DICT|INTERRES
    51   24   84 1    
    52   25   26 2    
    53   27   28 2    
    54   27   29 am   BACKBONE|DICT|INTERRES
    55   29   30 1    
    56   29   85 1    
    57   30   31 1    
    58   30   32 1    
    59   30   86 1    
    60   31   87 1    
    61   31   88 1    
    62   31   89 1    
    63   32   33 2    
    64   32   34 am   BACKBONE|DICT|INTERRES
    65   34   35 1    
    66   34   90 1    
    67   35   36 1    
    68   35   37 1    
    69   35   91 1    
    70   36   92 1    
    71   36   93 1    
    72   36   94 1    
    73   37   38 2    
    74   37   39 am   BACKBONE|DICT|INTERRES
    75   39   40 1    
    76   39   95 1    
    77   40   41 1    
    78   40   42 1    
    79   40   96 1    
    80   41   97 1    
    81   41   98 1    
    82   41   99 1    
    83   42   43 2    
    84   42   44 am   BACKBONE|DICT|INTERRES
    85   44   45 1    
    86   44  100 1    
    87   45   46 1    
    88   45   47 1    
    89   45  101 1    
    90   46  102 1    
    91   46  103 1    
    92   46  104 1    
    93   47   48 2    
    94   47   49 am   BACKBONE|DICT|INTERRES
    95   49   50 1    
    96   49  105 1    
    97   50   51 1    
    98   50   52 1    
    99   50  106 1    
   100   51  107 1    
   101   51  108 1    
   102   51  109 1    
   103   52   53 2    
   104   52   54 am   BACKBONE|DICT|INTERRES
   105   54   55 1    
   106   54  110 1    
   107   55   56 1    
   108   55   59 1    
   109   55  111 1    
   110   56   57 am   BACKBONE|DICT|INTERRES
   111   56   58 2    
   112   57  112 1    
   113   57  113 1    
   114   59   60 1    
   115   59  114 1    
   116   59  115 1    
   117   60   61 1    
   118   61  116 1    
   119   61  117 1    
@<TRIPOS>SUBSTRUCTURE
     1 UNK         1 GROUP             0       ****    0 ROOT    
