@<TRIPOS>MOLECULE
3R8
117   119    1
SMALL
USER_CHARGES


@<TRIPOS>ATOM
      1 CA         19.2888  -26.3102  -38.6111 C.3       0 UNK        -0.2013 
      2 C          18.9132  -25.6837  -39.9449 C.2       0 UNK         0.4866 
      3 O          19.3739  -24.5861  -40.2594 O.2       0 UNK        -0.5176 
      4 N          18.0842  -26.3717  -40.7400 N.am      1 UNK        -0.4884 
      5 CA         17.5585  -25.9372  -42.0423 C.3       1 UNK         0.0853 
      6 C6         16.2099  -26.6396  -42.3645 C.3       10 UNK        -0.0849 
      7 S7         16.2850  -28.4662  -42.2869 S.3       10 UNK        -0.2776 
      8 C8         15.9370  -28.9377  -44.0104 C.3       10 UNK         0.0316 
      9 C9         16.6928  -30.1988  -44.3994 C.ar      10 UNK        -0.0863 
     10 C10        16.2679  -31.4471  -43.9377 C.ar      10 UNK        -0.1009 
     11 C11        16.9535  -32.6116  -44.2990 C.ar      10 UNK        -0.0712 
     12 C12        18.0594  -32.5212  -45.1502 C.ar      10 UNK        -0.0894 
     13 C13        18.4908  -31.2780  -45.6235 C.ar      10 UNK        -0.0745 
     14 C14        17.8080  -30.1199  -45.2382 C.ar      10 UNK        -0.0972 
     15 C15        19.6710  -31.1898  -46.5815 C.3       10 UNK         0.0209 
     16 S16        21.2739  -31.4018  -45.7442 S.3       10 UNK        -0.2568 
     17 C17        21.4011  -29.8584  -44.7814 C.3       10 UNK        -0.0983 
     18 CA         22.0617  -28.6924  -45.5701 C.3       3 UNK         0.0876 
     19 N          21.5060  -27.3840  -45.2006 N.am      3 UNK        -0.4424 
     20 C          21.5315  -26.8348  -43.9776 C.2       2 UNK         0.4918 
     21 O          22.0024  -27.3899  -42.9816 O.2       2 UNK        -0.4875 
     22 CA         20.9548  -25.4137  -43.8287 C.3       2 UNK         0.0481 
     23 CB         20.6676  -24.6878  -45.1639 C.3       2 UNK        -0.1831 
     24 N          19.7757  -25.4157  -42.9609 N.am      2 UNK        -0.4498 
     25 C          18.6097  -26.0413  -43.1750 C.2       1 UNK         0.5027 
     26 O          18.3587  -26.6682  -44.2052 O.2       1 UNK        -0.4969 
     27 C          23.6091  -28.6871  -45.5092 C.2       3 UNK         0.5005 
     28 O          24.2242  -29.6759  -45.1062 O.2       3 UNK        -0.5279 
     29 N          24.2119  -27.5415  -45.8724 N.am      4 UNK        -0.4463 
     30 CA         25.6431  -27.1932  -45.8656 C.3       4 UNK         0.0283 
     31 CB         26.4583  -28.1202  -46.7882 C.3       4 UNK        -0.1875 
     32 C          26.2805  -27.1099  -44.4651 C.2       4 UNK         0.4949 
     33 O          27.0487  -26.1835  -44.2081 O.2       4 UNK        -0.5039 
     34 N          25.9476  -28.0592  -43.5843 N.am      5 UNK        -0.4663 
     35 CA         26.4328  -28.1542  -42.2061 C.3       5 UNK         0.0242 
     36 CB         26.1778  -29.5824  -41.6953 C.3       5 UNK        -0.1982 
     37 C          25.7986  -27.1307  -41.2477 C.2       5 UNK         0.5017 
     38 O          26.3540  -26.9107  -40.1711 O.2       5 UNK        -0.5012 
     39 N          24.6452  -26.5588  -41.6329 N.am      6 UNK        -0.4439 
     40 CA         23.7703  -25.6973  -40.8234 C.3       6 UNK         0.0297 
     41 CB         24.4661  -24.3701  -40.4535 C.3       6 UNK        -0.2006 
     42 C          23.2014  -26.4529  -39.6071 C.2       6 UNK         0.4892 
     43 O          23.1564  -25.9073  -38.5032 O.2       6 UNK        -0.5089 
     44 N          22.8100  -27.7138  -39.8363 N.am      7 UNK        -0.4243 
     45 CA         22.4301  -28.6719  -38.7962 C.3       7 UNK         0.0196 
     46 CB         23.6828  -29.4580  -38.3609 C.3       7 UNK        -0.2007 
     47 C          21.2890  -29.6098  -39.2268 C.2       7 UNK         0.5020 
     48 O          21.0317  -30.5838  -38.5184 O.2       7 UNK        -0.5147 
     49 N          20.6205  -29.3123  -40.3535 N.am      8 UNK        -0.4734 
     50 CA         19.5660  -30.1261  -40.9789 C.3       8 UNK         0.0238 
     51 CB         18.3283  -30.2472  -40.0555 C.3       8 UNK        -0.1912 
     52 C          20.1021  -31.4862  -41.4780 C.2       8 UNK         0.5038 
     53 O          21.2613  -31.5579  -41.8887 O.2       8 UNK        -0.5046 
     54 N          19.2431  -32.5146  -41.4702 N.am      9 UNK        -0.4200 
     55 CA         19.4688  -33.8620  -42.0151 C.3       9 UNK         0.0839 
     56 C          20.7844  -34.5364  -41.5356 C.2       9 UNK         0.5513 
     57 N          21.5405  -35.1425  -42.4411 N.am      9 UNK        -0.7519 
     58 O          21.0880  -34.5665  -40.3449 O.2       9 UNK        -0.4960 
     59 C59        18.2671  -34.8079  -41.7353 C.3       10 UNK        -0.0876 
     60 S60        16.6074  -34.0819  -41.9750 S.3       10 UNK        -0.2414 
     61 C61        16.4754  -33.9631  -43.7868 C.3       10 UNK         0.0169 
     62 H62        18.9883  -27.3552  -38.5488 H         1 UNK         0.0903 
     63 H63        20.3659  -26.2582  -38.4607 H         1 UNK         0.0903 
     64 H64        18.8086  -25.7685  -37.7968 H         1 UNK         0.0903 
     65 H65        17.7518  -27.2793  -40.4462 H         1 UNK         0.3096 
     66 H66        17.3349  -24.8706  -41.9628 H         1 UNK         0.1121 
     67 H67        15.4616  -26.3191  -41.6381 H         1 UNK         0.0849 
     68 H68        15.8230  -26.3101  -43.3303 H         1 UNK         0.0849 
     69 H69        16.2007  -28.1256  -44.6888 H         1 UNK         0.0865 
     70 H70        14.8642  -29.0956  -44.1297 H         1 UNK         0.0865 
     71 H71        15.4062  -31.5121  -43.2871 H         1 UNK         0.1346 
     72 H72        18.5866  -33.4170  -45.4486 H         1 UNK         0.1412 
     73 H73        18.1393  -29.1547  -45.5980 H         1 UNK         0.1426 
     74 H74        19.6655  -30.2384  -47.1156 H         1 UNK         0.0716 
     75 H75        19.5712  -31.9639  -47.3437 H         1 UNK         0.0716 
     76 H76        21.9497  -30.0617  -43.8612 H         1 UNK         0.0695 
     77 H77        20.4004  -29.5799  -44.4520 H         1 UNK         0.0695 
     78 H78        21.8134  -28.8161  -46.6254 H         1 UNK         0.0983 
     79 H79        21.0605  -26.8658  -45.9444 H         1 UNK         0.3095 
     80 H80        21.7138  -24.8285  -43.3098 H         1 UNK         0.0454 
     81 H81        20.3290  -23.6676  -44.9835 H         1 UNK         0.0851 
     82 H82        19.8990  -25.1830  -45.7578 H         1 UNK         0.0851 
     83 H83        21.5675  -24.6160  -45.7759 H         1 UNK         0.0851 
     84 H84        19.8811  -24.9577  -42.0587 H         1 UNK         0.2976 
     85 H85        23.6036  -26.7877  -46.1599 H         1 UNK         0.3116 
     86 H86        25.6985  -26.1886  -46.2883 H         1 UNK         0.0646 
     87 H87        27.4947  -27.7868  -46.8551 H         1 UNK         0.0847 
     88 H88        26.0550  -28.1273  -47.8007 H         1 UNK         0.0847 
     89 H89        26.4746  -29.1487  -46.4265 H         1 UNK         0.0847 
     90 H90        25.3273  -28.7961  -43.9160 H         1 UNK         0.3040 
     91 H91        27.5101  -27.9735  -42.2068 H         1 UNK         0.1015 
     92 H92        26.6914  -30.3210  -42.3111 H         1 UNK         0.0786 
     93 H93        25.1145  -29.8271  -41.6960 H         1 UNK         0.0786 
     94 H94        26.5407  -29.7054  -40.6738 H         1 UNK         0.0786 
     95 H95        24.2654  -26.8467  -42.5250 H         1 UNK         0.3172 
     96 H96        22.9132  -25.4442  -41.4446 H         1 UNK         0.0595 
     97 H97        25.2938  -24.5213  -39.7601 H         1 UNK         0.0839 
     98 H98        23.7654  -23.6857  -39.9737 H         1 UNK         0.0839 
     99 H99        24.8563  -23.8666  -41.3379 H         1 UNK         0.0839 
    100 H100       22.8739  -28.0688  -40.7819 H         1 UNK         0.2998 
    101 H101       22.0502  -28.1305  -37.9274 H         1 UNK         0.0822 
    102 H102       24.0832  -30.0564  -39.1800 H         1 UNK         0.0787 
    103 H103       24.4728  -28.7890  -38.0187 H         1 UNK         0.0787 
    104 H104       23.4585  -30.1372  -37.5375 H         1 UNK         0.0787 
    105 H105       20.9225  -28.5116  -40.8911 H         1 UNK         0.3055 
    106 H106       19.2573  -29.5849  -41.8757 H         1 UNK         0.1106 
    107 H107       17.4728  -30.6612  -40.5905 H         1 UNK         0.0828 
    108 H108       18.5169  -30.8902  -39.1952 H         1 UNK         0.0828 
    109 H109       18.0172  -29.2753  -39.6770 H         1 UNK         0.0828 
    110 H110       18.3130  -32.3571  -41.1131 H         1 UNK         0.2931 
    111 H111       19.5413  -33.7290  -43.0950 H         1 UNK         0.0412 
    112 H112       21.2955  -35.1286  -43.4190 H         1 UNK         0.3472 
    113 H113       22.3868  -35.6028  -42.1440 H         1 UNK         0.3472 
    114 H114       18.3458  -35.7069  -42.3495 H         1 UNK         0.0970 
    115 H115       18.2998  -35.1563  -40.7007 H         1 UNK         0.0970 
    116 H116       17.0227  -34.7829  -44.2546 H         1 UNK         0.0612 
    117 H117       15.4295  -34.0927  -44.0683 H         1 UNK         0.0612 
@<TRIPOS>BOND
     1    1    2 1    
     2    1   62 1    
     3    1   63 1    
     4    1   64 1    
     5    2    3 2    
     6    2    4 am   BACKBONE|DICT|INTERRES
     7    4    5 1    
     8    4   65 1    
     9    5    6 1    
    10    5   25 1    
    11    5   66 1    
    12    6    7 1    
    13    6   67 1    
    14    6   68 1    
    15    7    8 1    
    16    8    9 1    
    17    8   69 1    
    18    8   70 1    
    19    9   10 ar   
    20    9   14 ar   
    21   10   11 ar   
    22   10   71 1    
    23   11   12 ar   
    24   11   61 1    
    25   12   13 ar   
    26   12   72 1    
    27   13   14 ar   
    28   13   15 1    
    29   14   73 1    
    30   15   16 1    
    31   15   74 1    
    32   15   75 1    
    33   16   17 1    
    34   17   18 1    
    35   17   76 1    
    36   17   77 1    
    37   18   19 1    
    38   18   27 1    
    39   18   78 1    
    40   19   20 am   BACKBONE|DICT|INTERRES
    41   19   79 1    
    42   20   21 2    
    43   20   22 1    
    44   22   23 1    
    45   22   24 1    
    46   22   80 1    
    47   23   81 1    
    48   23   82 1    
    49   23   83 1    
    50   24   25 am   BACKBONE|DICT|INTERRES
    51   24   84 1    
    52   25   26 2    
    53   27   28 2    
    54   27   29 am   BACKBONE|DICT|INTERRES
    55   29   30 1    
    56   29   85 1    
    57   30   31 1    
    58   30   32 1    
    59   30   86 1    
    60   31   87 1    
    61   31   88 1    
    62   31   89 1    
    63   32   33 2    
    64   32   34 am   BACKBONE|DICT|INTERRES
    65   34   35 1    
    66   34   90 1    
    67   35   36 1    
    68   35   37 1    
    69   35   91 1    
    70   36   92 1    
    71   36   93 1    
    72   36   94 1    
    73   37   38 2    
    74   37   39 am   BACKBONE|DICT|INTERRES
    75   39   40 1    
    76   39   95 1    
    77   40   41 1    
    78   40   42 1    
    79   40   96 1    
    80   41   97 1    
    81   41   98 1    
    82   41   99 1    
    83   42   43 2    
    84   42   44 am   BACKBONE|DICT|INTERRES
    85   44   45 1    
    86   44  100 1    
    87   45   46 1    
    88   45   47 1    
    89   45  101 1    
    90   46  102 1    
    91   46  103 1    
    92   46  104 1    
    93   47   48 2    
    94   47   49 am   BACKBONE|DICT|INTERRES
    95   49   50 1    
    96   49  105 1    
    97   50   51 1    
    98   50   52 1    
    99   50  106 1    
   100   51  107 1    
   101   51  108 1    
   102   51  109 1    
   103   52   53 2    
   104   52   54 am   BACKBONE|DICT|INTERRES
   105   54   55 1    
   106   54  110 1    
   107   55   56 1    
   108   55   59 1    
   109   55  111 1    
   110   56   57 am   BACKBONE|DICT|INTERRES
   111   56   58 2    
   112   57  112 1    
   113   57  113 1    
   114   59   60 1    
   115   59  114 1    
   116   59  115 1    
   117   60   61 1    
   118   61  116 1    
   119   61  117 1    
@<TRIPOS>SUBSTRUCTURE
     1 UNK         1 GROUP             0       ****    0 ROOT    
