@<TRIPOS>MOLECULE
3R8
117   119    1
SMALL
USER_CHARGES


@<TRIPOS>ATOM
      1 CA         19.6519  -26.4659  -50.8959 C.3       0 UNK        -0.2013 
      2 C          20.0438  -27.2243  -49.6366 C.2       0 UNK         0.4866 
      3 O          20.5735  -28.3321  -49.7278 O.2       0 UNK        -0.5176 
      4 N          19.7935  -26.6359  -48.4640 N.am      1 UNK        -0.4884 
      5 CA         20.1106  -27.1890  -47.1480 C.3       1 UNK         0.0853 
      6 C6         19.1421  -28.3276  -46.7179 C.3       10 UNK        -0.0849 
      7 S7         17.4055  -27.7956  -46.5196 S.3       10 UNK        -0.2776 
      8 C8         16.6440  -29.3164  -45.8752 C.3       10 UNK         0.0316 
      9 C9         17.0917  -29.6387  -44.4550 C.ar      10 UNK        -0.0863 
     10 C10        17.9354  -30.7247  -44.2097 C.ar      10 UNK        -0.1009 
     11 C11        18.2775  -31.0838  -42.9023 C.ar      10 UNK        -0.0712 
     12 C12        17.7911  -30.3196  -41.8332 C.ar      10 UNK        -0.0894 
     13 C13        16.9560  -29.2188  -42.0626 C.ar      10 UNK        -0.0745 
     14 C14        16.6069  -28.8917  -43.3787 C.ar      10 UNK        -0.0972 
     15 C15        16.3553  -28.4539  -40.8839 C.3       10 UNK         0.0209 
     16 S16        16.3290  -26.6440  -41.1288 S.3       10 UNK        -0.2568 
     17 C17        17.5632  -26.0621  -39.9198 C.3       10 UNK        -0.0983 
     18 CA         19.0276  -26.3310  -40.3454 C.3       3 UNK         0.0876 
     19 N          19.3239  -25.8047  -41.6794 N.am      3 UNK        -0.4424 
     20 C          20.2964  -26.2537  -42.4775 C.2       2 UNK         0.4918 
     21 O          20.9948  -27.2446  -42.2435 O.2       2 UNK        -0.4875 
     22 CA         20.5492  -25.4432  -43.7494 C.3       2 UNK         0.0481 
     23 CB         21.9053  -24.7188  -43.6834 C.3       2 UNK        -0.1831 
     24 N          20.5165  -26.3611  -44.8787 N.am      2 UNK        -0.4498 
     25 C          20.1825  -26.0329  -46.1309 C.2       1 UNK         0.5027 
     26 O          19.9269  -24.8792  -46.4921 O.2       1 UNK        -0.4969 
     27 C          20.0068  -25.7151  -39.3249 C.2       3 UNK         0.5005 
     28 O          20.6226  -24.6840  -39.6123 O.2       3 UNK        -0.5279 
     29 N          20.1551  -26.3609  -38.1581 N.am      4 UNK        -0.4463 
     30 CA         21.0682  -26.0367  -37.0445 C.3       4 UNK         0.0283 
     31 CB         20.8159  -24.6275  -36.4725 C.3       4 UNK        -0.1875 
     32 C          22.5559  -26.2505  -37.3831 C.2       4 UNK         0.4949 
     33 O          23.2668  -26.8853  -36.6046 O.2       4 UNK        -0.5039 
     34 N          22.9816  -25.7818  -38.5634 N.am      5 UNK        -0.4663 
     35 CA         24.2350  -26.1588  -39.2235 C.3       5 UNK         0.0242 
     36 CB         24.4678  -25.2334  -40.4285 C.3       5 UNK        -0.1982 
     37 C          24.2298  -27.6335  -39.6707 C.2       5 UNK         0.5017 
     38 O          25.2921  -28.2541  -39.7047 O.2       5 UNK        -0.5012 
     39 N          23.0270  -28.1528  -39.9669 N.am      6 UNK        -0.4439 
     40 CA         22.6894  -29.5353  -40.3076 C.3       6 UNK         0.0297 
     41 CB         22.9396  -30.4662  -39.1034 C.3       6 UNK        -0.2006 
     42 C          23.3911  -29.9992  -41.5931 C.2       6 UNK         0.4892 
     43 O          24.2403  -30.8922  -41.5554 O.2       6 UNK        -0.5089 
     44 N          23.0258  -29.3659  -42.7156 N.am      7 UNK        -0.4243 
     45 CA         23.5019  -29.7224  -44.0544 C.3       7 UNK         0.0196 
     46 CB         22.9449  -28.7272  -45.0810 C.3       7 UNK        -0.2007 
     47 C          23.0969  -31.1621  -44.4145 C.2       7 UNK         0.5020 
     48 O          21.9044  -31.4677  -44.4354 O.2       7 UNK        -0.5147 
     49 N          24.0986  -32.0212  -44.6398 N.am      8 UNK        -0.4734 
     50 CA         24.0284  -33.4714  -44.8790 C.3       8 UNK         0.0238 
     51 CB         23.1587  -33.8157  -46.1050 C.3       8 UNK        -0.1912 
     52 C          23.6169  -34.3066  -43.6502 C.2       8 UNK         0.5038 
     53 O          24.1991  -35.3727  -43.4449 O.2       8 UNK        -0.5046 
     54 N          22.6448  -33.8322  -42.8606 N.am      9 UNK        -0.4200 
     55 CA         22.1777  -34.4793  -41.6235 C.3       9 UNK         0.0839 
     56 C          23.1468  -34.3928  -40.4098 C.2       9 UNK         0.5513 
     57 N          24.1440  -33.5194  -40.4010 N.am      9 UNK        -0.7519 
     58 O          23.0038  -35.1611  -39.4619 O.2       9 UNK        -0.4960 
     59 C59        20.7185  -34.0960  -41.2522 C.3       10 UNK        -0.0876 
     60 S60        20.3116  -32.3133  -41.3538 S.3       10 UNK        -0.2414 
     61 C61        19.0574  -32.3763  -42.6765 C.3       10 UNK         0.0169 
     62 H62        20.5308  -26.2839  -51.5137 H         1 UNK         0.0903 
     63 H63        18.9401  -27.0498  -51.4787 H         1 UNK         0.0903 
     64 H64        19.1933  -25.5041  -50.6662 H         1 UNK         0.0903 
     65 H65        19.4042  -25.7012  -48.4213 H         1 UNK         0.3096 
     66 H66        21.1201  -27.6017  -47.2066 H         1 UNK         0.1121 
     67 H67        19.1705  -29.1333  -47.4528 H         1 UNK         0.0849 
     68 H68        19.4789  -28.7796  -45.7841 H         1 UNK         0.0849 
     69 H69        15.5596  -29.1973  -45.8881 H         1 UNK         0.0865 
     70 H70        16.8633  -30.1442  -46.5516 H         1 UNK         0.0865 
     71 H71        18.2898  -31.3230  -45.0383 H         1 UNK         0.1346 
     72 H72        18.0271  -30.6113  -40.8192 H         1 UNK         0.1412 
     73 H73        15.9354  -28.0657  -43.5695 H         1 UNK         0.1426 
     74 H74        16.8820  -28.6948  -39.9595 H         1 UNK         0.0716 
     75 H75        15.3287  -28.7952  -40.7454 H         1 UNK         0.0716 
     76 H76        17.3462  -26.5248  -38.9552 H         1 UNK         0.0695 
     77 H77        17.3986  -24.9914  -39.7819 H         1 UNK         0.0695 
     78 H78        19.1895  -27.4115  -40.3600 H         1 UNK         0.0983 
     79 H79        18.8196  -24.9712  -41.9422 H         1 UNK         0.3095 
     80 H80        19.7543  -24.7023  -43.8613 H         1 UNK         0.0454 
     81 H81        22.7344  -25.4219  -43.5964 H         1 UNK         0.0851 
     82 H82        21.9490  -24.0529  -42.8205 H         1 UNK         0.0851 
     83 H83        22.0746  -24.1102  -44.5715 H         1 UNK         0.0851 
     84 H84        20.6679  -27.3296  -44.6324 H         1 UNK         0.2976 
     85 H85        19.6135  -27.2036  -38.0177 H         1 UNK         0.3116 
     86 H86        20.8252  -26.7500  -36.2549 H         1 UNK         0.0646 
     87 H87        19.7710  -24.4939  -36.1931 H         1 UNK         0.0847 
     88 H88        21.4144  -24.4624  -35.5757 H         1 UNK         0.0847 
     89 H89        21.0771  -23.8403  -37.1800 H         1 UNK         0.0847 
     90 H90        22.3113  -25.2405  -39.1064 H         1 UNK         0.3040 
     91 H91        25.0538  -26.0265  -38.5127 H         1 UNK         0.1015 
     92 H92        23.6666  -25.3197  -41.1634 H         1 UNK         0.0786 
     93 H93        25.4031  -25.4785  -40.9339 H         1 UNK         0.0786 
     94 H94        24.5298  -24.1894  -40.1207 H         1 UNK         0.0786 
     95 H95        22.2488  -27.5106  -39.9713 H         1 UNK         0.3172 
     96 H96        21.6176  -29.5485  -40.5127 H         1 UNK         0.0595 
     97 H97        24.0010  -30.5557  -38.8697 H         1 UNK         0.0839 
     98 H98        22.5646  -31.4691  -39.3070 H         1 UNK         0.0839 
     99 H99        22.4289  -30.1066  -38.2103 H         1 UNK         0.0839 
    100 H100       22.3111  -28.6472  -42.6483 H         1 UNK         0.2998 
    101 H101       24.5908  -29.6400  -44.0521 H         1 UNK         0.0822 
    102 H102       23.3449  -28.9298  -46.0754 H         1 UNK         0.0787 
    103 H103       21.8606  -28.8026  -45.1451 H         1 UNK         0.0787 
    104 H104       23.2063  -27.6998  -44.8265 H         1 UNK         0.0787 
    105 H105       25.0392  -31.6608  -44.5481 H         1 UNK         0.3055 
    106 H106       25.0503  -33.7721  -45.1180 H         1 UNK         0.1106 
    107 H107       23.4803  -33.2638  -46.9881 H         1 UNK         0.0828 
    108 H108       23.2299  -34.8778  -46.3430 H         1 UNK         0.0828 
    109 H109       22.1041  -33.5959  -45.9368 H         1 UNK         0.0828 
    110 H110       22.2100  -32.9491  -43.1075 H         1 UNK         0.2931 
    111 H111       22.1411  -35.5477  -41.8472 H         1 UNK         0.0412 
    112 H112       24.7669  -33.5000  -39.6101 H         1 UNK         0.3472 
    113 H113       24.2148  -32.7946  -41.1078 H         1 UNK         0.3472 
    114 H114       20.0480  -34.6495  -41.9107 H         1 UNK         0.0970 
    115 H115       20.4640  -34.4467  -40.2500 H         1 UNK         0.0970 
    116 H116       18.3312  -33.1543  -42.4379 H         1 UNK         0.0612 
    117 H117       19.5547  -32.6872  -43.5968 H         1 UNK         0.0612 
@<TRIPOS>BOND
     1    1    2 1    
     2    1   62 1    
     3    1   63 1    
     4    1   64 1    
     5    2    3 2    
     6    2    4 am   BACKBONE|DICT|INTERRES
     7    4    5 1    
     8    4   65 1    
     9    5    6 1    
    10    5   25 1    
    11    5   66 1    
    12    6    7 1    
    13    6   67 1    
    14    6   68 1    
    15    7    8 1    
    16    8    9 1    
    17    8   69 1    
    18    8   70 1    
    19    9   10 ar   
    20    9   14 ar   
    21   10   11 ar   
    22   10   71 1    
    23   11   12 ar   
    24   11   61 1    
    25   12   13 ar   
    26   12   72 1    
    27   13   14 ar   
    28   13   15 1    
    29   14   73 1    
    30   15   16 1    
    31   15   74 1    
    32   15   75 1    
    33   16   17 1    
    34   17   18 1    
    35   17   76 1    
    36   17   77 1    
    37   18   19 1    
    38   18   27 1    
    39   18   78 1    
    40   19   20 am   BACKBONE|DICT|INTERRES
    41   19   79 1    
    42   20   21 2    
    43   20   22 1    
    44   22   23 1    
    45   22   24 1    
    46   22   80 1    
    47   23   81 1    
    48   23   82 1    
    49   23   83 1    
    50   24   25 am   BACKBONE|DICT|INTERRES
    51   24   84 1    
    52   25   26 2    
    53   27   28 2    
    54   27   29 am   BACKBONE|DICT|INTERRES
    55   29   30 1    
    56   29   85 1    
    57   30   31 1    
    58   30   32 1    
    59   30   86 1    
    60   31   87 1    
    61   31   88 1    
    62   31   89 1    
    63   32   33 2    
    64   32   34 am   BACKBONE|DICT|INTERRES
    65   34   35 1    
    66   34   90 1    
    67   35   36 1    
    68   35   37 1    
    69   35   91 1    
    70   36   92 1    
    71   36   93 1    
    72   36   94 1    
    73   37   38 2    
    74   37   39 am   BACKBONE|DICT|INTERRES
    75   39   40 1    
    76   39   95 1    
    77   40   41 1    
    78   40   42 1    
    79   40   96 1    
    80   41   97 1    
    81   41   98 1    
    82   41   99 1    
    83   42   43 2    
    84   42   44 am   BACKBONE|DICT|INTERRES
    85   44   45 1    
    86   44  100 1    
    87   45   46 1    
    88   45   47 1    
    89   45  101 1    
    90   46  102 1    
    91   46  103 1    
    92   46  104 1    
    93   47   48 2    
    94   47   49 am   BACKBONE|DICT|INTERRES
    95   49   50 1    
    96   49  105 1    
    97   50   51 1    
    98   50   52 1    
    99   50  106 1    
   100   51  107 1    
   101   51  108 1    
   102   51  109 1    
   103   52   53 2    
   104   52   54 am   BACKBONE|DICT|INTERRES
   105   54   55 1    
   106   54  110 1    
   107   55   56 1    
   108   55   59 1    
   109   55  111 1    
   110   56   57 am   BACKBONE|DICT|INTERRES
   111   56   58 2    
   112   57  112 1    
   113   57  113 1    
   114   59   60 1    
   115   59  114 1    
   116   59  115 1    
   117   60   61 1    
   118   61  116 1    
   119   61  117 1    
@<TRIPOS>SUBSTRUCTURE
     1 UNK         1 GROUP             0       ****    0 ROOT    
