@<TRIPOS>MOLECULE
3R8
117   119    1
SMALL
USER_CHARGES


@<TRIPOS>ATOM
      1 CA         19.8564  -24.4570  -49.5448 C.3       0 UNK        -0.2013 
      2 C          20.5463  -25.3812  -48.5525 C.2       0 UNK         0.4866 
      3 O          21.7205  -25.1788  -48.2439 O.2       0 UNK        -0.5176 
      4 N          19.8268  -26.3976  -48.0610 N.am      1 UNK        -0.4884 
      5 CA         20.2881  -27.3634  -47.0567 C.3       1 UNK         0.0853 
      6 C6         19.3493  -28.6002  -46.9526 C.3       10 UNK        -0.0849 
      7 S7         17.5666  -28.1854  -46.8991 S.3       10 UNK        -0.2776 
      8 C8         16.8144  -29.8000  -46.5238 C.3       10 UNK         0.0316 
      9 C9         16.6839  -30.0396  -45.0258 C.ar      10 UNK        -0.0863 
     10 C10        17.4888  -30.9830  -44.3801 C.ar      10 UNK        -0.1009 
     11 C11        17.3266  -31.2361  -43.0135 C.ar      10 UNK        -0.0712 
     12 C12        16.3579  -30.5357  -42.2900 C.ar      10 UNK        -0.0894 
     13 C13        15.5657  -29.5724  -42.9196 C.ar      10 UNK        -0.0745 
     14 C14        15.7254  -29.3371  -44.2887 C.ar      10 UNK        -0.0972 
     15 C15        14.5375  -28.7815  -42.1264 C.3       10 UNK         0.0209 
     16 S16        15.1171  -27.0891  -41.7908 S.3       10 UNK        -0.2568 
     17 C17        16.3030  -27.3386  -40.4225 C.3       10 UNK        -0.0983 
     18 CA         17.7772  -27.5394  -40.8767 C.3       3 UNK         0.0876 
     19 N          18.1984  -26.5172  -41.8385 N.am      3 UNK        -0.4424 
     20 C          19.1308  -26.6948  -42.7792 C.2       2 UNK         0.4918 
     21 O          19.8377  -27.7018  -42.8463 O.2       2 UNK        -0.4875 
     22 CA         19.2789  -25.5509  -43.8002 C.3       2 UNK         0.0481 
     23 CB         20.3778  -24.5544  -43.3848 C.3       2 UNK        -0.1831 
     24 N          19.4654  -26.0574  -45.1651 N.am      2 UNK        -0.4498 
     25 C          20.5214  -26.7041  -45.6831 C.2       1 UNK         0.5027 
     26 O          21.6272  -26.7928  -45.1505 O.2       1 UNK        -0.4969 
     27 C          18.7528  -27.6233  -39.6810 C.2       3 UNK         0.5005 
     28 O          18.3486  -27.3801  -38.5412 O.2       3 UNK        -0.5279 
     29 N          20.0255  -27.9375  -39.9506 N.am      4 UNK        -0.4463 
     30 CA         21.0824  -28.0547  -38.9512 C.3       4 UNK         0.0283 
     31 CB         21.7455  -26.6835  -38.7278 C.3       4 UNK        -0.1875 
     32 C          22.1154  -29.0828  -39.4133 C.2       4 UNK         0.4949 
     33 O          22.5290  -29.0510  -40.5737 O.2       4 UNK        -0.5039 
     34 N          22.5727  -29.9219  -38.4742 N.am      5 UNK        -0.4663 
     35 CA         23.6028  -30.9488  -38.6825 C.3       5 UNK         0.0242 
     36 CB         23.6656  -31.8558  -37.4429 C.3       5 UNK        -0.1982 
     37 C          24.9986  -30.3847  -39.0117 C.2       5 UNK         0.5017 
     38 O          25.8321  -31.1050  -39.5607 O.2       5 UNK        -0.5012 
     39 N          25.2294  -29.1100  -38.6710 N.am      6 UNK        -0.4439 
     40 CA         26.4254  -28.3525  -39.0383 C.3       6 UNK         0.0297 
     41 CB         26.5822  -27.1685  -38.0697 C.3       6 UNK        -0.2006 
     42 C          26.3961  -27.8501  -40.4947 C.2       6 UNK         0.4892 
     43 O          27.4589  -27.5287  -41.0279 O.2       6 UNK        -0.5089 
     44 N          25.2023  -27.7625  -41.1000 N.am      7 UNK        -0.4243 
     45 CA         24.9939  -27.2457  -42.4523 C.3       7 UNK         0.0196 
     46 CB         23.7861  -26.2948  -42.4517 C.3       7 UNK        -0.2007 
     47 C          24.7880  -28.3830  -43.4612 C.2       7 UNK         0.5020 
     48 O          25.4158  -28.3680  -44.5209 O.2       7 UNK        -0.5147 
     49 N          23.9287  -29.3491  -43.1197 N.am      8 UNK        -0.4734 
     50 CA         23.5754  -30.4946  -43.9561 C.3       8 UNK         0.0238 
     51 CB         22.5078  -30.0768  -44.9938 C.3       8 UNK        -0.1912 
     52 C          23.1524  -31.6582  -43.0464 C.2       8 UNK         0.5038 
     53 O          23.7905  -31.8745  -42.0160 O.2       8 UNK        -0.5046 
     54 N          22.0916  -32.3779  -43.4317 N.am      9 UNK        -0.4200 
     55 CA         21.4503  -33.4610  -42.6688 C.3       9 UNK         0.0839 
     56 C          22.3730  -34.7006  -42.4539 C.2       9 UNK         0.5513 
     57 N          22.0995  -35.5462  -41.4682 N.am      9 UNK        -0.7519 
     58 O          23.3076  -34.9422  -43.2158 O.2       9 UNK        -0.4960 
     59 C59        20.7499  -32.9502  -41.3696 C.3       10 UNK        -0.0876 
     60 S60        19.6944  -31.4846  -41.6424 S.3       10 UNK        -0.2414 
     61 C61        18.2001  -32.2651  -42.3182 C.3       10 UNK         0.0169 
     62 H62        20.3895  -24.4617  -50.4952 H         1 UNK         0.0903 
     63 H63        18.8255  -24.7563  -49.7332 H         1 UNK         0.0903 
     64 H64        19.8486  -23.4363  -49.1635 H         1 UNK         0.0903 
     65 H65        18.8659  -26.5164  -48.3524 H         1 UNK         0.3096 
     66 H66        21.2644  -27.7272  -47.3863 H         1 UNK         0.1121 
     67 H67        19.5097  -29.2419  -47.8204 H         1 UNK         0.0849 
     68 H68        19.6024  -29.2123  -46.0840 H         1 UNK         0.0849 
     69 H69        15.8206  -29.8329  -46.9729 H         1 UNK         0.0865 
     70 H70        17.3856  -30.5971  -47.0024 H         1 UNK         0.0865 
     71 H71        18.2368  -31.5272  -44.9402 H         1 UNK         0.1346 
     72 H72        16.2375  -30.7261  -41.2322 H         1 UNK         0.1412 
     73 H73        15.1072  -28.5982  -44.7807 H         1 UNK         0.1426 
     74 H74        14.2894  -29.2832  -41.1898 H         1 UNK         0.0716 
     75 H75        13.6091  -28.7271  -42.6968 H         1 UNK         0.0716 
     76 H76        15.9746  -28.1844  -39.8157 H         1 UNK         0.0695 
     77 H77        16.2227  -26.4600  -39.7796 H         1 UNK         0.0695 
     78 H78        17.8348  -28.5076  -41.3751 H         1 UNK         0.0983 
     79 H79        17.6669  -25.6591  -41.8256 H         1 UNK         0.3095 
     80 H80        18.3347  -25.0045  -43.8271 H         1 UNK         0.0454 
     81 H81        21.3424  -25.0420  -43.2552 H         1 UNK         0.0851 
     82 H82        20.1311  -24.0789  -42.4350 H         1 UNK         0.0851 
     83 H83        20.4979  -23.7630  -44.1242 H         1 UNK         0.0851 
     84 H84        18.6217  -26.0864  -45.7214 H         1 UNK         0.2976 
     85 H85        20.2941  -28.1337  -40.9132 H         1 UNK         0.3116 
     86 H86        20.6521  -28.3995  -38.0082 H         1 UNK         0.0646 
     87 H87        22.1806  -26.2920  -39.6483 H         1 UNK         0.0847 
     88 H88        22.5445  -26.7474  -37.9883 H         1 UNK         0.0847 
     89 H89        21.0264  -25.9507  -38.3617 H         1 UNK         0.0847 
     90 H90        22.1834  -29.8636  -37.5433 H         1 UNK         0.3040 
     91 H91        23.2966  -31.5579  -39.5332 H         1 UNK         0.1015 
     92 H92        23.9497  -31.2997  -36.5486 H         1 UNK         0.0786 
     93 H93        24.3997  -32.6514  -37.5789 H         1 UNK         0.0786 
     94 H94        22.7051  -32.3350  -37.2522 H         1 UNK         0.0786 
     95 H95        24.4979  -28.6106  -38.1874 H         1 UNK         0.3172 
     96 H96        27.2988  -28.9991  -38.9285 H         1 UNK         0.0595 
     97 H97        25.7396  -26.4785  -38.1323 H         1 UNK         0.0839 
     98 H98        27.4854  -26.5989  -38.2937 H         1 UNK         0.0839 
     99 H99        26.6646  -27.5075  -37.0368 H         1 UNK         0.0839 
    100 H100       24.3811  -28.1212  -40.6278 H         1 UNK         0.2998 
    101 H101       25.8651  -26.6699  -42.7728 H         1 UNK         0.0822 
    102 H102       23.9261  -25.4718  -41.7510 H         1 UNK         0.0787 
    103 H103       23.6426  -25.8592  -43.4413 H         1 UNK         0.0787 
    104 H104       22.8608  -26.8096  -42.1879 H         1 UNK         0.0787 
    105 H105       23.4650  -29.3126  -42.2134 H         1 UNK         0.3055 
    106 H106       24.4672  -30.8326  -44.4884 H         1 UNK         0.1106 
    107 H107       22.2709  -30.8882  -45.6825 H         1 UNK         0.0828 
    108 H108       21.5831  -29.7574  -44.5094 H         1 UNK         0.0828 
    109 H109       22.8599  -29.2453  -45.6042 H         1 UNK         0.0828 
    110 H110       21.6479  -32.1420  -44.3057 H         1 UNK         0.2931 
    111 H111       20.6674  -33.8300  -43.3311 H         1 UNK         0.0412 
    112 H112       21.3233  -35.3960  -40.8439 H         1 UNK         0.3472 
    113 H113       22.6853  -36.3582  -41.3483 H         1 UNK         0.3472 
    114 H114       21.4958  -32.6880  -40.6185 H         1 UNK         0.0970 
    115 H115       20.1332  -33.7322  -40.9246 H         1 UNK         0.0970 
    116 H116       17.6501  -32.7529  -41.5120 H         1 UNK         0.0612 
    117 H117       18.4736  -33.0492  -43.0248 H         1 UNK         0.0612 
@<TRIPOS>BOND
     1    1    2 1    
     2    1   62 1    
     3    1   63 1    
     4    1   64 1    
     5    2    3 2    
     6    2    4 am   BACKBONE|DICT|INTERRES
     7    4    5 1    
     8    4   65 1    
     9    5    6 1    
    10    5   25 1    
    11    5   66 1    
    12    6    7 1    
    13    6   67 1    
    14    6   68 1    
    15    7    8 1    
    16    8    9 1    
    17    8   69 1    
    18    8   70 1    
    19    9   10 ar   
    20    9   14 ar   
    21   10   11 ar   
    22   10   71 1    
    23   11   12 ar   
    24   11   61 1    
    25   12   13 ar   
    26   12   72 1    
    27   13   14 ar   
    28   13   15 1    
    29   14   73 1    
    30   15   16 1    
    31   15   74 1    
    32   15   75 1    
    33   16   17 1    
    34   17   18 1    
    35   17   76 1    
    36   17   77 1    
    37   18   19 1    
    38   18   27 1    
    39   18   78 1    
    40   19   20 am   BACKBONE|DICT|INTERRES
    41   19   79 1    
    42   20   21 2    
    43   20   22 1    
    44   22   23 1    
    45   22   24 1    
    46   22   80 1    
    47   23   81 1    
    48   23   82 1    
    49   23   83 1    
    50   24   25 am   BACKBONE|DICT|INTERRES
    51   24   84 1    
    52   25   26 2    
    53   27   28 2    
    54   27   29 am   BACKBONE|DICT|INTERRES
    55   29   30 1    
    56   29   85 1    
    57   30   31 1    
    58   30   32 1    
    59   30   86 1    
    60   31   87 1    
    61   31   88 1    
    62   31   89 1    
    63   32   33 2    
    64   32   34 am   BACKBONE|DICT|INTERRES
    65   34   35 1    
    66   34   90 1    
    67   35   36 1    
    68   35   37 1    
    69   35   91 1    
    70   36   92 1    
    71   36   93 1    
    72   36   94 1    
    73   37   38 2    
    74   37   39 am   BACKBONE|DICT|INTERRES
    75   39   40 1    
    76   39   95 1    
    77   40   41 1    
    78   40   42 1    
    79   40   96 1    
    80   41   97 1    
    81   41   98 1    
    82   41   99 1    
    83   42   43 2    
    84   42   44 am   BACKBONE|DICT|INTERRES
    85   44   45 1    
    86   44  100 1    
    87   45   46 1    
    88   45   47 1    
    89   45  101 1    
    90   46  102 1    
    91   46  103 1    
    92   46  104 1    
    93   47   48 2    
    94   47   49 am   BACKBONE|DICT|INTERRES
    95   49   50 1    
    96   49  105 1    
    97   50   51 1    
    98   50   52 1    
    99   50  106 1    
   100   51  107 1    
   101   51  108 1    
   102   51  109 1    
   103   52   53 2    
   104   52   54 am   BACKBONE|DICT|INTERRES
   105   54   55 1    
   106   54  110 1    
   107   55   56 1    
   108   55   59 1    
   109   55  111 1    
   110   56   57 am   BACKBONE|DICT|INTERRES
   111   56   58 2    
   112   57  112 1    
   113   57  113 1    
   114   59   60 1    
   115   59  114 1    
   116   59  115 1    
   117   60   61 1    
   118   61  116 1    
   119   61  117 1    
@<TRIPOS>SUBSTRUCTURE
     1 UNK         1 GROUP             0       ****    0 ROOT    
