@<TRIPOS>MOLECULE
3R8
117   119    1
SMALL
USER_CHARGES


@<TRIPOS>ATOM
      1 CA         20.2887  -21.6299  -42.5995 C.3       0 UNK        -0.2013 
      2 C          19.6451  -22.9748  -42.8953 C.2       0 UNK         0.4866 
      3 O          20.2693  -23.8140  -43.5437 O.2       0 UNK        -0.5176 
      4 N          18.4058  -23.1839  -42.4339 N.am      1 UNK        -0.4884 
      5 CA         17.5737  -24.3962  -42.5322 C.3       1 UNK         0.0853 
      6 C6         18.1132  -25.5994  -41.6945 C.3       10 UNK        -0.0849 
      7 S7         19.1880  -26.8308  -42.5288 S.3       10 UNK        -0.2776 
      8 C8         18.0223  -28.2256  -42.6714 C.3       10 UNK         0.0316 
      9 C9         18.6563  -29.4417  -43.3300 C.ar      10 UNK        -0.0863 
     10 C10        18.9043  -30.6036  -42.5911 C.ar      10 UNK        -0.1009 
     11 C11        19.4574  -31.7306  -43.2071 C.ar      10 UNK        -0.0712 
     12 C12        19.7830  -31.6780  -44.5660 C.ar      10 UNK        -0.0894 
     13 C13        19.5629  -30.5185  -45.3150 C.ar      10 UNK        -0.0745 
     14 C14        18.9722  -29.4130  -44.6906 C.ar      10 UNK        -0.0972 
     15 C15        19.9710  -30.5123  -46.7901 C.3       10 UNK         0.0209 
     16 S16        20.2580  -28.8673  -47.5345 S.3       10 UNK        -0.2568 
     17 C17        21.5845  -28.1926  -46.4739 C.3       10 UNK        -0.0983 
     18 CA         21.5852  -26.6398  -46.3998 C.3       3 UNK         0.0876 
     19 N          20.2794  -26.0832  -46.0132 N.am      3 UNK        -0.4424 
     20 C          19.4536  -25.4280  -46.8455 C.2       2 UNK         0.4918 
     21 O          19.7554  -25.0990  -47.9929 O.2       2 UNK        -0.4875 
     22 CA         18.0489  -25.0797  -46.3256 C.3       2 UNK         0.0481 
     23 CB         17.0761  -26.2229  -46.6892 C.3       2 UNK        -0.1831 
     24 N          18.1037  -24.8029  -44.8893 N.am      2 UNK        -0.4498 
     25 C          17.1320  -24.7523  -43.9720 C.2       1 UNK         0.5027 
     26 O          15.9383  -24.9460  -44.2047 O.2       1 UNK        -0.4969 
     27 C          22.7078  -26.1008  -45.4876 C.2       3 UNK         0.5005 
     28 O          23.6264  -26.8462  -45.1433 O.2       3 UNK        -0.5279 
     29 N          22.6221  -24.8129  -45.1211 N.am      4 UNK        -0.4463 
     30 CA         23.5727  -24.0580  -44.2923 C.3       4 UNK         0.0283 
     31 CB         24.9396  -23.9200  -44.9975 C.3       4 UNK        -0.1875 
     32 C          23.6826  -24.6079  -42.8565 C.2       4 UNK         0.4949 
     33 O          24.7855  -24.8582  -42.3676 O.2       4 UNK        -0.5039 
     34 N          22.5168  -24.7608  -42.2137 N.am      5 UNK        -0.4663 
     35 CA         22.2982  -25.2034  -40.8316 C.3       5 UNK         0.0242 
     36 CB         22.8460  -24.1632  -39.8312 C.3       5 UNK        -0.1982 
     37 C          22.8149  -26.6303  -40.5724 C.2       5 UNK         0.5017 
     38 O          23.4954  -26.8750  -39.5734 O.2       5 UNK        -0.5012 
     39 N          22.4795  -27.5457  -41.4893 N.am      6 UNK        -0.4439 
     40 CA         22.7655  -28.9748  -41.3826 C.3       6 UNK         0.0297 
     41 CB         22.5493  -29.6308  -42.7546 C.3       6 UNK        -0.2006 
     42 C          21.8921  -29.6435  -40.3062 C.2       6 UNK         0.4892 
     43 O          20.7513  -29.2299  -40.0859 O.2       6 UNK        -0.5089 
     44 N          22.4455  -30.6753  -39.6656 N.am      7 UNK        -0.4243 
     45 CA         21.8091  -31.4809  -38.6293 C.3       7 UNK         0.0196 
     46 CB         21.8030  -30.7218  -37.2881 C.3       7 UNK        -0.2007 
     47 C          22.5813  -32.7984  -38.5119 C.2       7 UNK         0.5020 
     48 O          23.7376  -32.8630  -38.9389 O.2       7 UNK        -0.5147 
     49 N          21.9292  -33.8155  -37.9286 N.am      8 UNK        -0.4734 
     50 CA         22.4312  -35.1865  -37.7364 C.3       8 UNK         0.0238 
     51 CB         23.5797  -35.2092  -36.7043 C.3       8 UNK        -0.1912 
     52 C          22.8030  -35.8760  -39.0662 C.2       8 UNK         0.5038 
     53 O          23.8250  -36.5604  -39.1479 O.2       8 UNK        -0.5046 
     54 N          21.9659  -35.6544  -40.0881 N.am      9 UNK        -0.4200 
     55 CA         22.1636  -36.1178  -41.4701 C.3       9 UNK         0.0839 
     56 C          22.0469  -37.6570  -41.6767 C.2       9 UNK         0.5513 
     57 N          21.5141  -38.4199  -40.7296 N.am      9 UNK        -0.7519 
     58 O          22.4489  -38.1665  -42.7196 O.2       9 UNK        -0.4960 
     59 C59        21.2362  -35.3657  -42.4605 C.3       10 UNK        -0.0876 
     60 S60        21.4060  -33.5453  -42.3897 S.3       10 UNK        -0.2414 
     61 C61        19.6593  -33.0228  -42.4272 C.3       10 UNK         0.0169 
     62 H62        19.6347  -20.9823  -42.0161 H         1 UNK         0.0903 
     63 H63        21.2122  -21.7739  -42.0393 H         1 UNK         0.0903 
     64 H64        20.5316  -21.1192  -43.5308 H         1 UNK         0.0903 
     65 H65        17.9554  -22.4217  -41.9450 H         1 UNK         0.3096 
     66 H66        16.6492  -24.0910  -42.0377 H         1 UNK         0.1121 
     67 H67        17.2597  -26.1320  -41.2720 H         1 UNK         0.0849 
     68 H68        18.6540  -25.2268  -40.8235 H         1 UNK         0.0849 
     69 H69        17.6542  -28.4846  -41.6773 H         1 UNK         0.0865 
     70 H70        17.1530  -27.9140  -43.2526 H         1 UNK         0.0865 
     71 H71        18.6568  -30.6335  -41.5386 H         1 UNK         0.1346 
     72 H72        20.2154  -32.5486  -45.0404 H         1 UNK         0.1412 
     73 H73        18.7758  -28.5141  -45.2536 H         1 UNK         0.1426 
     74 H74        19.1939  -31.0180  -47.3643 H         1 UNK         0.0716 
     75 H75        20.8819  -31.0993  -46.9188 H         1 UNK         0.0716 
     76 H76        22.5346  -28.5550  -46.8704 H         1 UNK         0.0695 
     77 H77        21.5003  -28.6114  -45.4711 H         1 UNK         0.0695 
     78 H78        21.8507  -26.2815  -47.3966 H         1 UNK         0.0983 
     79 H79        19.9640  -26.3003  -45.0775 H         1 UNK         0.3095 
     80 H80        17.7254  -24.1663  -46.8274 H         1 UNK         0.0454 
     81 H81        17.2094  -27.0924  -46.0476 H         1 UNK         0.0851 
     82 H82        17.2184  -26.5526  -47.7195 H         1 UNK         0.0851 
     83 H83        16.0375  -25.9042  -46.6072 H         1 UNK         0.0851 
     84 H84        19.0247  -24.5430  -44.5347 H         1 UNK         0.2976 
     85 H85        21.7893  -24.3063  -45.3915 H         1 UNK         0.3116 
     86 H86        23.1565  -23.0537  -44.1972 H         1 UNK         0.0646 
     87 H87        24.8312  -23.4944  -45.9948 H         1 UNK         0.0847 
     88 H88        25.4470  -24.8801  -45.0949 H         1 UNK         0.0847 
     89 H89        25.6021  -23.2611  -44.4350 H         1 UNK         0.0847 
     90 H90        21.6716  -24.5244  -42.7344 H         1 UNK         0.3040 
     91 H91        21.2169  -25.2480  -40.6930 H         1 UNK         0.1015 
     92 H92        23.9325  -24.0858  -39.8805 H         1 UNK         0.0786 
     93 H93        22.5858  -24.4328  -38.8069 H         1 UNK         0.0786 
     94 H94        22.4295  -23.1739  -40.0202 H         1 UNK         0.0786 
     95 H95        21.8739  -27.2607  -42.2453 H         1 UNK         0.3172 
     96 H96        23.8153  -29.0930  -41.1055 H         1 UNK         0.0595 
     97 H97        21.5270  -29.4941  -43.1049 H         1 UNK         0.0839 
     98 H98        22.7373  -30.7043  -42.7139 H         1 UNK         0.0839 
     99 H99        23.2184  -29.2112  -43.5062 H         1 UNK         0.0839 
    100 H100       23.3699  -31.0021  -39.9223 H         1 UNK         0.2998 
    101 H101       20.7847  -31.7040  -38.9358 H         1 UNK         0.0822 
    102 H102       21.2365  -29.7930  -37.3574 H         1 UNK         0.0787 
    103 H103       21.3450  -31.3188  -36.4987 H         1 UNK         0.0787 
    104 H104       22.8145  -30.4723  -36.9648 H         1 UNK         0.0787 
    105 H105       20.9855  -33.6497  -37.6043 H         1 UNK         0.3055 
    106 H106       21.6062  -35.7666  -37.3193 H         1 UNK         0.1106 
    107 H107       23.2831  -34.7336  -35.7696 H         1 UNK         0.0828 
    108 H108       24.4685  -34.6968  -37.0740 H         1 UNK         0.0828 
    109 H109       23.8717  -36.2329  -36.4666 H         1 UNK         0.0828 
    110 H110       21.1604  -35.0685  -39.9307 H         1 UNK         0.2931 
    111 H111       23.1912  -35.8617  -41.7362 H         1 UNK         0.0412 
    112 H112       21.4472  -39.4152  -40.8757 H         1 UNK         0.3472 
    113 H113       21.1832  -38.0123  -39.8700 H         1 UNK         0.3472 
    114 H114       20.1990  -35.6493  -42.2738 H         1 UNK         0.0970 
    115 H115       21.4494  -35.6709  -43.4869 H         1 UNK         0.0970 
    116 H116       19.0458  -33.7915  -42.8983 H         1 UNK         0.0612 
    117 H117       19.3006  -32.9240  -41.4015 H         1 UNK         0.0612 
@<TRIPOS>BOND
     1    1    2 1    
     2    1   62 1    
     3    1   63 1    
     4    1   64 1    
     5    2    3 2    
     6    2    4 am   BACKBONE|DICT|INTERRES
     7    4    5 1    
     8    4   65 1    
     9    5    6 1    
    10    5   25 1    
    11    5   66 1    
    12    6    7 1    
    13    6   67 1    
    14    6   68 1    
    15    7    8 1    
    16    8    9 1    
    17    8   69 1    
    18    8   70 1    
    19    9   10 ar   
    20    9   14 ar   
    21   10   11 ar   
    22   10   71 1    
    23   11   12 ar   
    24   11   61 1    
    25   12   13 ar   
    26   12   72 1    
    27   13   14 ar   
    28   13   15 1    
    29   14   73 1    
    30   15   16 1    
    31   15   74 1    
    32   15   75 1    
    33   16   17 1    
    34   17   18 1    
    35   17   76 1    
    36   17   77 1    
    37   18   19 1    
    38   18   27 1    
    39   18   78 1    
    40   19   20 am   BACKBONE|DICT|INTERRES
    41   19   79 1    
    42   20   21 2    
    43   20   22 1    
    44   22   23 1    
    45   22   24 1    
    46   22   80 1    
    47   23   81 1    
    48   23   82 1    
    49   23   83 1    
    50   24   25 am   BACKBONE|DICT|INTERRES
    51   24   84 1    
    52   25   26 2    
    53   27   28 2    
    54   27   29 am   BACKBONE|DICT|INTERRES
    55   29   30 1    
    56   29   85 1    
    57   30   31 1    
    58   30   32 1    
    59   30   86 1    
    60   31   87 1    
    61   31   88 1    
    62   31   89 1    
    63   32   33 2    
    64   32   34 am   BACKBONE|DICT|INTERRES
    65   34   35 1    
    66   34   90 1    
    67   35   36 1    
    68   35   37 1    
    69   35   91 1    
    70   36   92 1    
    71   36   93 1    
    72   36   94 1    
    73   37   38 2    
    74   37   39 am   BACKBONE|DICT|INTERRES
    75   39   40 1    
    76   39   95 1    
    77   40   41 1    
    78   40   42 1    
    79   40   96 1    
    80   41   97 1    
    81   41   98 1    
    82   41   99 1    
    83   42   43 2    
    84   42   44 am   BACKBONE|DICT|INTERRES
    85   44   45 1    
    86   44  100 1    
    87   45   46 1    
    88   45   47 1    
    89   45  101 1    
    90   46  102 1    
    91   46  103 1    
    92   46  104 1    
    93   47   48 2    
    94   47   49 am   BACKBONE|DICT|INTERRES
    95   49   50 1    
    96   49  105 1    
    97   50   51 1    
    98   50   52 1    
    99   50  106 1    
   100   51  107 1    
   101   51  108 1    
   102   51  109 1    
   103   52   53 2    
   104   52   54 am   BACKBONE|DICT|INTERRES
   105   54   55 1    
   106   54  110 1    
   107   55   56 1    
   108   55   59 1    
   109   55  111 1    
   110   56   57 am   BACKBONE|DICT|INTERRES
   111   56   58 2    
   112   57  112 1    
   113   57  113 1    
   114   59   60 1    
   115   59  114 1    
   116   59  115 1    
   117   60   61 1    
   118   61  116 1    
   119   61  117 1    
@<TRIPOS>SUBSTRUCTURE
     1 UNK         1 GROUP             0       ****    0 ROOT    
