@<TRIPOS>MOLECULE
3R8
117   119    1
SMALL
USER_CHARGES


@<TRIPOS>ATOM
      1 CA         18.5412  -28.6620  -41.3915 C.3       0 UNK        -0.2013 
      2 C          17.9625  -27.3773  -41.9546 C.2       0 UNK         0.4866 
      3 O          17.6848  -26.4470  -41.1977 O.2       0 UNK        -0.5176 
      4 N          17.7645  -27.3345  -43.2763 N.am      1 UNK        -0.4884 
      5 CA         17.2098  -26.1956  -44.0074 C.3       1 UNK         0.0853 
      6 C6         16.1872  -26.6627  -45.0820 C.3       10 UNK        -0.0849 
      7 S7         16.8403  -27.7596  -46.3958 S.3       10 UNK        -0.2776 
      8 C8         16.4351  -29.4360  -45.7909 C.3       10 UNK         0.0316 
      9 C9         17.5773  -30.1456  -45.0612 C.ar      10 UNK        -0.0863 
     10 C10        17.2724  -31.0834  -44.0692 C.ar      10 UNK        -0.1009 
     11 C11        18.2821  -31.8339  -43.4600 C.ar      10 UNK        -0.0712 
     12 C12        19.6126  -31.6174  -43.8260 C.ar      10 UNK        -0.0894 
     13 C13        19.9443  -30.6843  -44.8127 C.ar      10 UNK        -0.0745 
     14 C14        18.9165  -29.9591  -45.4311 C.ar      10 UNK        -0.0972 
     15 C15        21.4089  -30.5750  -45.2439 C.3       10 UNK         0.0209 
     16 S16        21.8651  -29.0509  -46.1390 S.3       10 UNK        -0.2568 
     17 C17        22.2830  -27.9361  -44.7623 C.3       10 UNK        -0.0983 
     18 CA         22.4185  -26.4694  -45.2419 C.3       3 UNK         0.0876 
     19 N          21.1424  -25.9453  -45.7340 N.am      3 UNK        -0.4424 
     20 C          20.9424  -24.7452  -46.2956 C.2       2 UNK         0.4918 
     21 O          21.8501  -23.9682  -46.5925 O.2       2 UNK        -0.4875 
     22 CA         19.4805  -24.3213  -46.5443 C.3       2 UNK         0.0481 
     23 CB         19.1661  -24.3460  -48.0487 C.3       2 UNK        -0.1831 
     24 N          18.4714  -25.1210  -45.8367 N.am      2 UNK        -0.4498 
     25 C          18.3575  -25.2905  -44.5110 C.2       1 UNK         0.5027 
     26 O          19.1380  -24.7871  -43.6989 O.2       1 UNK        -0.4969 
     27 C          23.0341  -25.5974  -44.1265 C.2       3 UNK         0.5005 
     28 O          24.2609  -25.5517  -44.0238 O.2       3 UNK        -0.5279 
     29 N          22.1899  -24.9331  -43.3153 N.am      4 UNK        -0.4463 
     30 CA         22.4984  -24.0031  -42.2140 C.3       4 UNK         0.0283 
     31 CB         23.2565  -22.7621  -42.7231 C.3       4 UNK        -0.1875 
     32 C          23.2197  -24.6377  -41.0093 C.2       4 UNK         0.4949 
     33 O          22.7902  -24.4412  -39.8733 O.2       4 UNK        -0.5039 
     34 N          24.2730  -25.4176  -41.2759 N.am      5 UNK        -0.4663 
     35 CA         25.0168  -26.2322  -40.3097 C.3       5 UNK         0.0242 
     36 CB         26.4280  -26.4838  -40.8678 C.3       5 UNK        -0.1982 
     37 C          24.3155  -27.5661  -39.9844 C.2       5 UNK         0.5017 
     38 O          24.8342  -28.3387  -39.1779 O.2       5 UNK        -0.5012 
     39 N          23.1738  -27.8269  -40.6374 N.am      6 UNK        -0.4439 
     40 CA         22.2707  -28.9786  -40.5292 C.3       6 UNK         0.0297 
     41 CB         21.7406  -29.1479  -39.0938 C.3       6 UNK        -0.2006 
     42 C          22.8294  -30.2995  -41.0827 C.2       6 UNK         0.4892 
     43 O          22.0728  -31.0310  -41.7201 O.2       6 UNK        -0.5089 
     44 N          24.1233  -30.5706  -40.8653 N.am      7 UNK        -0.4243 
     45 CA         24.8904  -31.7248  -41.3465 C.3       7 UNK         0.0196 
     46 CB         25.1213  -31.6190  -42.8711 C.3       7 UNK        -0.2007 
     47 C          24.2671  -33.0654  -40.9119 C.2       7 UNK         0.5020 
     48 O          24.5397  -33.5261  -39.8035 O.2       7 UNK        -0.5147 
     49 N          23.4463  -33.6620  -41.7865 N.am      8 UNK        -0.4734 
     50 CA         22.6866  -34.8867  -41.5273 C.3       8 UNK         0.0238 
     51 CB         22.1875  -35.4591  -42.8643 C.3       8 UNK        -0.1912 
     52 C          21.5052  -34.6807  -40.5613 C.2       8 UNK         0.5038 
     53 O          21.1162  -35.6358  -39.8875 O.2       8 UNK        -0.5046 
     54 N          20.9503  -33.4620  -40.5188 N.am      9 UNK        -0.4200 
     55 CA         19.8837  -33.0653  -39.5891 C.3       9 UNK         0.0839 
     56 C          20.4304  -32.8042  -38.1584 C.2       9 UNK         0.5513 
     57 N          19.5804  -32.9192  -37.1475 N.am      9 UNK        -0.7519 
     58 O          21.5932  -32.4620  -37.9562 O.2       9 UNK        -0.4960 
     59 C59        19.0834  -31.8485  -40.1399 C.3       10 UNK        -0.0876 
     60 S60        17.4675  -32.3256  -40.8322 S.3       10 UNK        -0.2414 
     61 C61        17.9278  -32.9437  -42.4788 C.3       10 UNK         0.0169 
     62 H62        17.7318  -29.3344  -41.1094 H         1 UNK         0.0903 
     63 H63        19.1735  -29.1690  -42.1206 H         1 UNK         0.0903 
     64 H64        19.1362  -28.4547  -40.5027 H         1 UNK         0.0903 
     65 H65        18.0039  -28.1376  -43.8435 H         1 UNK         0.3096 
     66 H66        16.6484  -25.5688  -43.3105 H         1 UNK         0.1121 
     67 H67        15.3541  -27.1636  -44.5867 H         1 UNK         0.0849 
     68 H68        15.7354  -25.7935  -45.5641 H         1 UNK         0.0849 
     69 H69        15.5439  -29.3957  -45.1631 H         1 UNK         0.0865 
     70 H70        16.1654  -30.0470  -46.6533 H         1 UNK         0.0865 
     71 H71        16.2412  -31.2673  -43.7990 H         1 UNK         0.1346 
     72 H72        20.3932  -32.2098  -43.3692 H         1 UNK         0.1412 
     73 H73        19.1523  -29.2775  -46.2352 H         1 UNK         0.1426 
     74 H74        21.6283  -31.4228  -45.8939 H         1 UNK         0.0716 
     75 H75        22.0617  -30.6793  -44.3769 H         1 UNK         0.0716 
     76 H76        23.2182  -28.2925  -44.3245 H         1 UNK         0.0695 
     77 H77        21.5218  -28.0247  -43.9841 H         1 UNK         0.0695 
     78 H78        23.1215  -26.4425  -46.0775 H         1 UNK         0.0983 
     79 H79        20.3349  -26.5267  -45.5710 H         1 UNK         0.3095 
     80 H80        19.3833  -23.2927  -46.1917 H         1 UNK         0.0454 
     81 H81        19.2185  -25.3570  -48.4547 H         1 UNK         0.0851 
     82 H82        19.8747  -23.7333  -48.6080 H         1 UNK         0.0851 
     83 H83        18.1707  -23.9520  -48.2540 H         1 UNK         0.0851 
     84 H84        17.8159  -25.6277  -46.4190 H         1 UNK         0.2976 
     85 H85        21.1954  -25.0432  -43.4935 H         1 UNK         0.3116 
     86 H86        21.5284  -23.6609  -41.8489 H         1 UNK         0.0646 
     87 H87        23.3936  -22.0345  -41.9221 H         1 UNK         0.0847 
     88 H88        22.7077  -22.2645  -43.5227 H         1 UNK         0.0847 
     89 H89        24.2468  -23.0133  -43.1040 H         1 UNK         0.0847 
     90 H90        24.5318  -25.5130  -42.2582 H         1 UNK         0.3040 
     91 H91        25.1067  -25.6775  -39.3731 H         1 UNK         0.1015 
     92 H92        26.9507  -25.5465  -41.0594 H         1 UNK         0.0786 
     93 H93        26.3974  -27.0474  -41.8013 H         1 UNK         0.0786 
     94 H94        27.0356  -27.0521  -40.1620 H         1 UNK         0.0786 
     95 H95        22.8836  -27.1187  -41.2955 H         1 UNK         0.3172 
     96 H96        21.4224  -28.7239  -41.1639 H         1 UNK         0.0595 
     97 H97        22.5251  -29.4541  -38.4011 H         1 UNK         0.0839 
     98 H98        20.9658  -29.9115  -39.0539 H         1 UNK         0.0839 
     99 H99        21.3022  -28.2231  -38.7190 H         1 UNK         0.0839 
    100 H100       24.6246  -29.9182  -40.2686 H         1 UNK         0.2998 
    101 H101       25.8671  -31.6693  -40.8633 H         1 UNK         0.0822 
    102 H102       24.1895  -31.5649  -43.4338 H         1 UNK         0.0787 
    103 H103       25.6994  -30.7276  -43.1147 H         1 UNK         0.0787 
    104 H104       25.6834  -32.4767  -43.2432 H         1 UNK         0.0787 
    105 H105       23.2593  -33.1818  -42.6550 H         1 UNK         0.3055 
    106 H106       23.3585  -35.6159  -41.0687 H         1 UNK         0.1106 
    107 H107       21.5155  -34.7684  -43.3754 H         1 UNK         0.0828 
    108 H108       23.0169  -35.6815  -43.5360 H         1 UNK         0.0828 
    109 H109       21.6404  -36.3903  -42.7095 H         1 UNK         0.0828 
    110 H110       21.3834  -32.7114  -41.0482 H         1 UNK         0.2931 
    111 H111       19.2046  -33.9160  -39.4980 H         1 UNK         0.0412 
    112 H112       19.9062  -32.7413  -36.2098 H         1 UNK         0.3472 
    113 H113       18.6202  -33.1866  -37.3023 H         1 UNK         0.3472 
    114 H114       18.8663  -31.1192  -39.3570 H         1 UNK         0.0970 
    115 H115       19.6493  -31.2976  -40.8901 H         1 UNK         0.0970 
    116 H116       18.7496  -33.6547  -42.3822 H         1 UNK         0.0612 
    117 H117       17.0874  -33.5128  -42.8783 H         1 UNK         0.0612 
@<TRIPOS>BOND
     1    1    2 1    
     2    1   62 1    
     3    1   63 1    
     4    1   64 1    
     5    2    3 2    
     6    2    4 am   BACKBONE|DICT|INTERRES
     7    4    5 1    
     8    4   65 1    
     9    5    6 1    
    10    5   25 1    
    11    5   66 1    
    12    6    7 1    
    13    6   67 1    
    14    6   68 1    
    15    7    8 1    
    16    8    9 1    
    17    8   69 1    
    18    8   70 1    
    19    9   10 ar   
    20    9   14 ar   
    21   10   11 ar   
    22   10   71 1    
    23   11   12 ar   
    24   11   61 1    
    25   12   13 ar   
    26   12   72 1    
    27   13   14 ar   
    28   13   15 1    
    29   14   73 1    
    30   15   16 1    
    31   15   74 1    
    32   15   75 1    
    33   16   17 1    
    34   17   18 1    
    35   17   76 1    
    36   17   77 1    
    37   18   19 1    
    38   18   27 1    
    39   18   78 1    
    40   19   20 am   BACKBONE|DICT|INTERRES
    41   19   79 1    
    42   20   21 2    
    43   20   22 1    
    44   22   23 1    
    45   22   24 1    
    46   22   80 1    
    47   23   81 1    
    48   23   82 1    
    49   23   83 1    
    50   24   25 am   BACKBONE|DICT|INTERRES
    51   24   84 1    
    52   25   26 2    
    53   27   28 2    
    54   27   29 am   BACKBONE|DICT|INTERRES
    55   29   30 1    
    56   29   85 1    
    57   30   31 1    
    58   30   32 1    
    59   30   86 1    
    60   31   87 1    
    61   31   88 1    
    62   31   89 1    
    63   32   33 2    
    64   32   34 am   BACKBONE|DICT|INTERRES
    65   34   35 1    
    66   34   90 1    
    67   35   36 1    
    68   35   37 1    
    69   35   91 1    
    70   36   92 1    
    71   36   93 1    
    72   36   94 1    
    73   37   38 2    
    74   37   39 am   BACKBONE|DICT|INTERRES
    75   39   40 1    
    76   39   95 1    
    77   40   41 1    
    78   40   42 1    
    79   40   96 1    
    80   41   97 1    
    81   41   98 1    
    82   41   99 1    
    83   42   43 2    
    84   42   44 am   BACKBONE|DICT|INTERRES
    85   44   45 1    
    86   44  100 1    
    87   45   46 1    
    88   45   47 1    
    89   45  101 1    
    90   46  102 1    
    91   46  103 1    
    92   46  104 1    
    93   47   48 2    
    94   47   49 am   BACKBONE|DICT|INTERRES
    95   49   50 1    
    96   49  105 1    
    97   50   51 1    
    98   50   52 1    
    99   50  106 1    
   100   51  107 1    
   101   51  108 1    
   102   51  109 1    
   103   52   53 2    
   104   52   54 am   BACKBONE|DICT|INTERRES
   105   54   55 1    
   106   54  110 1    
   107   55   56 1    
   108   55   59 1    
   109   55  111 1    
   110   56   57 am   BACKBONE|DICT|INTERRES
   111   56   58 2    
   112   57  112 1    
   113   57  113 1    
   114   59   60 1    
   115   59  114 1    
   116   59  115 1    
   117   60   61 1    
   118   61  116 1    
   119   61  117 1    
@<TRIPOS>SUBSTRUCTURE
     1 UNK         1 GROUP             0       ****    0 ROOT    
