@<TRIPOS>MOLECULE
3R8
117   119    1
SMALL
USER_CHARGES


@<TRIPOS>ATOM
      1 CA         19.4968  -29.4410  -47.1194 C.3       0 UNK        -0.2013 
      2 C          18.9221  -28.4648  -46.1066 C.2       0 UNK         0.4866 
      3 O          19.5743  -28.1723  -45.1053 O.2       0 UNK        -0.5176 
      4 N          17.7188  -27.9297  -46.3635 N.am      1 UNK        -0.4884 
      5 CA         16.9563  -27.0513  -45.4574 C.3       1 UNK         0.0853 
      6 C6         15.4266  -27.1772  -45.6944 C.3       10 UNK        -0.0849 
      7 S7         14.4094  -26.8583  -44.2070 S.3       10 UNK        -0.2776 
      8 C8         14.4235  -28.4651  -43.3380 C.3       10 UNK         0.0316 
      9 C9         15.7785  -28.7614  -42.7079 C.ar      10 UNK        -0.0863 
     10 C10        16.5697  -29.8082  -43.1921 C.ar      10 UNK        -0.1009 
     11 C11        17.8405  -30.0408  -42.6578 C.ar      10 UNK        -0.0712 
     12 C12        18.3084  -29.2346  -41.6152 C.ar      10 UNK        -0.0894 
     13 C13        17.5339  -28.1771  -41.1296 C.ar      10 UNK        -0.0745 
     14 C14        16.2629  -27.9570  -41.6703 C.ar      10 UNK        -0.0972 
     15 C15        18.0645  -27.2621  -40.0318 C.3       10 UNK         0.0209 
     16 S16        18.5657  -25.6328  -40.6880 S.3       10 UNK        -0.2568 
     17 C17        20.3458  -25.8556  -41.0344 C.3       10 UNK        -0.0983 
     18 CA         20.6140  -26.5509  -42.3942 C.3       3 UNK         0.0876 
     19 N          20.0413  -25.8864  -43.5624 N.am      3 UNK        -0.4424 
     20 C          20.2493  -24.6456  -44.0258 C.2       2 UNK         0.4918 
     21 O          20.9321  -23.7979  -43.4515 O.2       2 UNK        -0.4875 
     22 CA         19.6022  -24.3002  -45.3902 C.3       2 UNK         0.0481 
     23 CB         20.6877  -24.0654  -46.4537 C.3       2 UNK        -0.1831 
     24 N          18.7043  -25.3623  -45.8600 N.am      2 UNK        -0.4498 
     25 C          17.4837  -25.5967  -45.3581 C.2       1 UNK         0.5027 
     26 O          16.8375  -24.7404  -44.7543 O.2       1 UNK        -0.4969 
     27 C          22.0817  -26.9280  -42.6570 C.2       3 UNK         0.5005 
     28 O          22.9454  -26.7324  -41.7997 O.2       3 UNK        -0.5279 
     29 N          22.3268  -27.4883  -43.8484 N.am      4 UNK        -0.4463 
     30 CA         23.6253  -27.9770  -44.2975 C.3       4 UNK         0.0283 
     31 CB         23.9653  -27.3172  -45.6437 C.3       4 UNK        -0.1875 
     32 C          23.5449  -29.5057  -44.4599 C.2       4 UNK         0.4949 
     33 O          22.5327  -29.9851  -44.9680 O.2       4 UNK        -0.5039 
     34 N          24.5746  -30.2821  -44.0947 N.am      5 UNK        -0.4663 
     35 CA         25.7978  -29.8813  -43.3976 C.3       5 UNK         0.0242 
     36 CB         26.8910  -30.9255  -43.6762 C.3       5 UNK        -0.1982 
     37 C          25.5437  -29.7794  -41.8849 C.2       5 UNK         0.5017 
     38 O          25.0107  -30.7294  -41.3069 O.2       5 UNK        -0.5012 
     39 N          25.9498  -28.6498  -41.2839 N.am      6 UNK        -0.4439 
     40 CA         26.0355  -28.3710  -39.8396 C.3       6 UNK         0.0297 
     41 CB         27.2902  -29.0632  -39.2658 C.3       6 UNK        -0.2006 
     42 C          24.7691  -28.6967  -39.0163 C.2       6 UNK         0.4892 
     43 O          24.8859  -29.1528  -37.8777 O.2       6 UNK        -0.5089 
     44 N          23.5862  -28.4963  -39.6173 N.am      7 UNK        -0.4243 
     45 CA         22.2503  -28.8539  -39.1132 C.3       7 UNK         0.0196 
     46 CB         21.8837  -28.0040  -37.8788 C.3       7 UNK        -0.2007 
     47 C          22.0189  -30.3624  -38.8681 C.2       7 UNK         0.5020 
     48 O          20.9742  -30.7267  -38.3284 O.2       7 UNK        -0.5147 
     49 N          22.9594  -31.2165  -39.2916 N.am      8 UNK        -0.4734 
     50 CA         22.8790  -32.6775  -39.2166 C.3       8 UNK         0.0238 
     51 CB         24.2768  -33.2266  -38.8829 C.3       8 UNK        -0.1912 
     52 C          22.3556  -33.2922  -40.5264 C.2       8 UNK         0.5038 
     53 O          22.1303  -34.5022  -40.5728 O.2       8 UNK        -0.5046 
     54 N          22.1858  -32.4548  -41.5583 N.am      9 UNK        -0.4200 
     55 CA         21.7333  -32.8016  -42.9137 C.3       9 UNK         0.0839 
     56 C          22.7867  -33.5863  -43.7496 C.2       9 UNK         0.5513 
     57 N          24.0675  -33.5351  -43.3980 N.am      9 UNK        -0.7519 
     58 O          22.4509  -34.2241  -44.7440 O.2       9 UNK        -0.4960 
     59 C59        20.3075  -33.4275  -42.9663 C.3       10 UNK        -0.0876 
     60 S60        19.0557  -32.4567  -42.0567 S.3       10 UNK        -0.2414 
     61 C61        18.7372  -31.1192  -43.2458 C.3       10 UNK         0.0169 
     62 H62        20.4309  -29.0529  -47.5247 H         1 UNK         0.0903 
     63 H63        19.7100  -30.3937  -46.6350 H         1 UNK         0.0903 
     64 H64        18.8122  -29.6239  -47.9472 H         1 UNK         0.0903 
     65 H65        17.2506  -28.1727  -47.2259 H         1 UNK         0.3096 
     66 H66        17.1555  -27.4367  -44.4590 H         1 UNK         0.1121 
     67 H67        15.1062  -26.5045  -46.4919 H         1 UNK         0.0849 
     68 H68        15.1795  -28.1818  -46.0417 H         1 UNK         0.0849 
     69 H69        13.6666  -28.4465  -42.5526 H         1 UNK         0.0865 
     70 H70        14.1260  -29.2565  -44.0277 H         1 UNK         0.0865 
     71 H71        16.2110  -30.4204  -44.0083 H         1 UNK         0.1346 
     72 H72        19.2895  -29.4206  -41.2007 H         1 UNK         0.1412 
     73 H73        15.6624  -27.1341  -41.3063 H         1 UNK         0.1426 
     74 H74        18.8957  -27.7276  -39.5001 H         1 UNK         0.0716 
     75 H75        17.2799  -27.1100  -39.2892 H         1 UNK         0.0716 
     76 H76        20.8247  -24.8759  -41.0079 H         1 UNK         0.0695 
     77 H77        20.7862  -26.4190  -40.2126 H         1 UNK         0.0695 
     78 H78        20.1100  -27.5122  -42.3578 H         1 UNK         0.0983 
     79 H79        19.5347  -26.5251  -44.1665 H         1 UNK         0.3095 
     80 H80        19.0332  -23.3765  -45.2672 H         1 UNK         0.0454 
     81 H81        21.3069  -24.9510  -46.6030 H         1 UNK         0.0851 
     82 H82        21.3515  -23.2508  -46.1607 H         1 UNK         0.0851 
     83 H83        20.2505  -23.7939  -47.4146 H         1 UNK         0.0851 
     84 H84        19.1391  -26.1209  -46.3668 H         1 UNK         0.2976 
     85 H85        21.5387  -27.7275  -44.4435 H         1 UNK         0.3116 
     86 H86        24.3873  -27.6897  -43.5763 H         1 UNK         0.0646 
     87 H87        23.2316  -27.5638  -46.4126 H         1 UNK         0.0847 
     88 H88        24.9402  -27.6473  -46.0047 H         1 UNK         0.0847 
     89 H89        24.0025  -26.2314  -45.5541 H         1 UNK         0.0847 
     90 H90        24.4696  -31.2784  -44.2234 H         1 UNK         0.3040 
     91 H91        26.1617  -28.9299  -43.7889 H         1 UNK         0.1015 
     92 H92        26.6142  -31.9145  -43.3086 H         1 UNK         0.0786 
     93 H93        27.8273  -30.6493  -43.1892 H         1 UNK         0.0786 
     94 H94        27.0955  -31.0110  -44.7437 H         1 UNK         0.0786 
     95 H95        26.3317  -27.9197  -41.8696 H         1 UNK         0.3172 
     96 H96        26.1803  -27.2937  -39.7458 H         1 UNK         0.0595 
     97 H97        27.1959  -30.1496  -39.2948 H         1 UNK         0.0839 
     98 H98        27.4607  -28.7776  -38.2269 H         1 UNK         0.0839 
     99 H99        28.1864  -28.7899  -39.8227 H         1 UNK         0.0839 
    100 H100       23.5926  -28.0425  -40.5278 H         1 UNK         0.2998 
    101 H101       21.5576  -28.5903  -39.9119 H         1 UNK         0.0822 
    102 H102       22.0237  -26.9406  -38.0725 H         1 UNK         0.0787 
    103 H103       20.8388  -28.1460  -37.6000 H         1 UNK         0.0787 
    104 H104       22.4889  -28.2691  -37.0115 H         1 UNK         0.0787 
    105 H105       23.7826  -30.8437  -39.7571 H         1 UNK         0.3055 
    106 H106       22.1922  -32.9732  -38.4204 H         1 UNK         0.1106 
    107 H107       24.2574  -34.3123  -38.7791 H         1 UNK         0.0828 
    108 H108       25.0023  -32.9856  -39.6609 H         1 UNK         0.0828 
    109 H109       24.6476  -32.8183  -37.9426 H         1 UNK         0.0828 
    110 H110       22.4415  -31.4899  -41.4151 H         1 UNK         0.2931 
    111 H111       21.6627  -31.8437  -43.4232 H         1 UNK         0.0412 
    112 H112       24.7452  -34.0537  -43.9346 H         1 UNK         0.3472 
    113 H113       24.3495  -33.0362  -42.5679 H         1 UNK         0.3472 
    114 H114       19.9745  -33.5345  -44.0003 H         1 UNK         0.0970 
    115 H115       20.3217  -34.4371  -42.5531 H         1 UNK         0.0970 
    116 H116       18.2973  -31.5418  -44.1504 H         1 UNK         0.0612 
    117 H117       19.6789  -30.6583  -43.5465 H         1 UNK         0.0612 
@<TRIPOS>BOND
     1    1    2 1    
     2    1   62 1    
     3    1   63 1    
     4    1   64 1    
     5    2    3 2    
     6    2    4 am   BACKBONE|DICT|INTERRES
     7    4    5 1    
     8    4   65 1    
     9    5    6 1    
    10    5   25 1    
    11    5   66 1    
    12    6    7 1    
    13    6   67 1    
    14    6   68 1    
    15    7    8 1    
    16    8    9 1    
    17    8   69 1    
    18    8   70 1    
    19    9   10 ar   
    20    9   14 ar   
    21   10   11 ar   
    22   10   71 1    
    23   11   12 ar   
    24   11   61 1    
    25   12   13 ar   
    26   12   72 1    
    27   13   14 ar   
    28   13   15 1    
    29   14   73 1    
    30   15   16 1    
    31   15   74 1    
    32   15   75 1    
    33   16   17 1    
    34   17   18 1    
    35   17   76 1    
    36   17   77 1    
    37   18   19 1    
    38   18   27 1    
    39   18   78 1    
    40   19   20 am   BACKBONE|DICT|INTERRES
    41   19   79 1    
    42   20   21 2    
    43   20   22 1    
    44   22   23 1    
    45   22   24 1    
    46   22   80 1    
    47   23   81 1    
    48   23   82 1    
    49   23   83 1    
    50   24   25 am   BACKBONE|DICT|INTERRES
    51   24   84 1    
    52   25   26 2    
    53   27   28 2    
    54   27   29 am   BACKBONE|DICT|INTERRES
    55   29   30 1    
    56   29   85 1    
    57   30   31 1    
    58   30   32 1    
    59   30   86 1    
    60   31   87 1    
    61   31   88 1    
    62   31   89 1    
    63   32   33 2    
    64   32   34 am   BACKBONE|DICT|INTERRES
    65   34   35 1    
    66   34   90 1    
    67   35   36 1    
    68   35   37 1    
    69   35   91 1    
    70   36   92 1    
    71   36   93 1    
    72   36   94 1    
    73   37   38 2    
    74   37   39 am   BACKBONE|DICT|INTERRES
    75   39   40 1    
    76   39   95 1    
    77   40   41 1    
    78   40   42 1    
    79   40   96 1    
    80   41   97 1    
    81   41   98 1    
    82   41   99 1    
    83   42   43 2    
    84   42   44 am   BACKBONE|DICT|INTERRES
    85   44   45 1    
    86   44  100 1    
    87   45   46 1    
    88   45   47 1    
    89   45  101 1    
    90   46  102 1    
    91   46  103 1    
    92   46  104 1    
    93   47   48 2    
    94   47   49 am   BACKBONE|DICT|INTERRES
    95   49   50 1    
    96   49  105 1    
    97   50   51 1    
    98   50   52 1    
    99   50  106 1    
   100   51  107 1    
   101   51  108 1    
   102   51  109 1    
   103   52   53 2    
   104   52   54 am   BACKBONE|DICT|INTERRES
   105   54   55 1    
   106   54  110 1    
   107   55   56 1    
   108   55   59 1    
   109   55  111 1    
   110   56   57 am   BACKBONE|DICT|INTERRES
   111   56   58 2    
   112   57  112 1    
   113   57  113 1    
   114   59   60 1    
   115   59  114 1    
   116   59  115 1    
   117   60   61 1    
   118   61  116 1    
   119   61  117 1    
@<TRIPOS>SUBSTRUCTURE
     1 UNK         1 GROUP             0       ****    0 ROOT    
