@<TRIPOS>MOLECULE
3R8
117   119    1
SMALL
USER_CHARGES


@<TRIPOS>ATOM
      1 CA         16.2811  -26.8870  -46.4273 C.3       0 UNK        -0.2013 
      2 C          16.4782  -26.8155  -47.9390 C.2       0 UNK         0.4866 
      3 O          15.5234  -26.4824  -48.6386 O.2       0 UNK        -0.5176 
      4 N          17.6567  -27.1057  -48.5123 N.am      1 UNK        -0.4884 
      5 CA         18.9363  -27.5140  -47.9106 C.3       1 UNK         0.0853 
      6 C6         18.9021  -28.9756  -47.3350 C.3       10 UNK        -0.0849 
      7 S7         19.1677  -29.2302  -45.5431 S.3       10 UNK        -0.2776 
      8 C8         17.6210  -30.0124  -45.0003 C.3       10 UNK         0.0316 
      9 C9         17.4551  -29.7751  -43.5115 C.ar      10 UNK        -0.0863 
     10 C10        18.0371  -30.6482  -42.5900 C.ar      10 UNK        -0.1009 
     11 C11        17.9825  -30.3697  -41.2214 C.ar      10 UNK        -0.0712 
     12 C12        17.3241  -29.2208  -40.7743 C.ar      10 UNK        -0.0894 
     13 C13        16.7434  -28.3397  -41.6918 C.ar      10 UNK        -0.0745 
     14 C14        16.7945  -28.6316  -43.0564 C.ar      10 UNK        -0.0972 
     15 C15        16.1296  -27.0328  -41.2188 C.3       10 UNK         0.0209 
     16 S16        17.4139  -25.8634  -40.6684 S.3       10 UNK        -0.2568 
     17 C17        18.4099  -25.5938  -42.1824 C.3       10 UNK        -0.0983 
     18 CA         19.6609  -26.5184  -42.3163 C.3       3 UNK         0.0876 
     19 N          20.2105  -26.5170  -43.6803 N.am      3 UNK        -0.4424 
     20 C          20.8597  -25.4981  -44.2680 C.2       2 UNK         0.4918 
     21 O          20.9626  -24.3711  -43.7818 O.2       2 UNK        -0.4875 
     22 CA         21.5358  -25.7831  -45.6231 C.3       2 UNK         0.0481 
     23 CB         22.9430  -26.3610  -45.3969 C.3       2 UNK        -0.1831 
     24 N          20.7768  -26.6860  -46.4921 N.am      2 UNK        -0.4498 
     25 C          19.5897  -26.4009  -47.0457 C.2       1 UNK         0.5027 
     26 O          19.0375  -25.3047  -46.9207 O.2       1 UNK        -0.4969 
     27 C          20.7914  -26.2753  -41.2826 C.2       3 UNK         0.5005 
     28 O          21.8837  -26.8225  -41.4520 O.2       3 UNK        -0.5279 
     29 N          20.5216  -25.4805  -40.2358 N.am      4 UNK        -0.4463 
     30 CA         21.4610  -24.9478  -39.2358 C.3       4 UNK         0.0283 
     31 CB         22.3798  -23.8996  -39.8987 C.3       4 UNK        -0.1875 
     32 C          22.2712  -26.0063  -38.4560 C.2       4 UNK         0.4949 
     33 O          23.3366  -25.6820  -37.9293 O.2       4 UNK        -0.5039 
     34 N          21.7649  -27.2482  -38.4073 N.am      5 UNK        -0.4663 
     35 CA         22.4198  -28.4511  -37.8742 C.3       5 UNK         0.0242 
     36 CB         22.5852  -28.3575  -36.3418 C.3       5 UNK        -0.1982 
     37 C          23.7359  -28.8066  -38.6031 C.2       5 UNK         0.5017 
     38 O          24.6389  -29.3780  -37.9875 O.2       5 UNK        -0.5012 
     39 N          23.8269  -28.4601  -39.8963 N.am      6 UNK        -0.4439 
     40 CA         24.9517  -28.7766  -40.7793 C.3       6 UNK         0.0297 
     41 CB         24.8416  -27.9033  -42.0431 C.3       6 UNK        -0.2006 
     42 C          24.9997  -30.2701  -41.1523 C.2       6 UNK         0.4892 
     43 O          24.0779  -31.0258  -40.8371 O.2       6 UNK        -0.5089 
     44 N          26.0575  -30.6607  -41.8792 N.am      7 UNK        -0.4243 
     45 CA         26.2906  -32.0191  -42.3938 C.3       7 UNK         0.0196 
     46 CB         27.6256  -32.0476  -43.1552 C.3       7 UNK        -0.2007 
     47 C          25.1578  -32.5809  -43.2770 C.2       7 UNK         0.5020 
     48 O          25.0173  -33.8002  -43.3730 O.2       7 UNK        -0.5147 
     49 N          24.3393  -31.6927  -43.8601 N.am      8 UNK        -0.4734 
     50 CA         23.1008  -32.0132  -44.5766 C.3       8 UNK         0.0238 
     51 CB         22.5195  -30.7210  -45.1728 C.3       8 UNK        -0.1912 
     52 C          22.0416  -32.7322  -43.7149 C.2       8 UNK         0.5038 
     53 O          21.2027  -33.4381  -44.2761 O.2       8 UNK        -0.5046 
     54 N          22.1072  -32.5692  -42.3852 N.am      9 UNK        -0.4200 
     55 CA         21.2994  -33.3197  -41.4115 C.3       9 UNK         0.0839 
     56 C          21.7642  -34.7907  -41.1979 C.2       9 UNK         0.5513 
     57 N          22.8984  -35.2291  -41.7336 N.am      9 UNK        -0.7519 
     58 O          21.0711  -35.5576  -40.5344 O.2       9 UNK        -0.4960 
     59 C59        21.1774  -32.5763  -40.0531 C.3       10 UNK        -0.0876 
     60 S60        20.4732  -30.9036  -40.2223 S.3       10 UNK        -0.2414 
     61 C61        18.6943  -31.2822  -40.2404 C.3       10 UNK         0.0169 
     62 H62        15.5013  -27.6091  -46.1889 H         1 UNK         0.0903 
     63 H63        17.1786  -27.1639  -45.8837 H         1 UNK         0.0903 
     64 H64        15.9627  -25.9143  -46.0538 H         1 UNK         0.0903 
     65 H65        17.7045  -26.9973  -49.5162 H         1 UNK         0.3096 
     66 H66        19.5990  -27.5576  -48.7774 H         1 UNK         0.1121 
     67 H67        19.6852  -29.5544  -47.8277 H         1 UNK         0.0849 
     68 H68        17.9808  -29.4799  -47.6308 H         1 UNK         0.0849 
     69 H69        16.7681  -29.6078  -45.5450 H         1 UNK         0.0865 
     70 H70        17.6533  -31.0806  -45.2207 H         1 UNK         0.0865 
     71 H71        18.5780  -31.5177  -42.9394 H         1 UNK         0.1346 
     72 H72        17.3046  -28.9857  -39.7188 H         1 UNK         0.1412 
     73 H73        16.3657  -27.9393  -43.7660 H         1 UNK         0.1426 
     74 H74        15.4486  -27.2307  -40.3899 H         1 UNK         0.0716 
     75 H75        15.5317  -26.5701  -42.0057 H         1 UNK         0.0716 
     76 H76        18.7042  -24.5435  -42.2189 H         1 UNK         0.0695 
     77 H77        17.7559  -25.7385  -43.0438 H         1 UNK         0.0695 
     78 H78        19.3418  -27.5460  -42.1435 H         1 UNK         0.0983 
     79 H79        20.1799  -27.4049  -44.1626 H         1 UNK         0.3095 
     80 H80        21.6429  -24.8302  -46.1459 H         1 UNK         0.0454 
     81 H81        22.9071  -27.3341  -44.9057 H         1 UNK         0.0851 
     82 H82        23.5381  -25.7015  -44.7634 H         1 UNK         0.0851 
     83 H83        23.4822  -26.4773  -46.3370 H         1 UNK         0.0851 
     84 H84        21.1632  -27.6085  -46.6335 H         1 UNK         0.2976 
     85 H85        19.5672  -25.1480  -40.1587 H         1 UNK         0.3116 
     86 H86        20.8513  -24.4317  -38.4929 H         1 UNK         0.0646 
     87 H87        23.0605  -24.3603  -40.6157 H         1 UNK         0.0847 
     88 H88        22.9888  -23.3802  -39.1578 H         1 UNK         0.0847 
     89 H89        21.8019  -23.1414  -40.4272 H         1 UNK         0.0847 
     90 H90        20.8873  -27.4037  -38.8834 H         1 UNK         0.3040 
     91 H91        21.7411  -29.2808  -38.0748 H         1 UNK         0.1015 
     92 H92        23.3146  -27.5986  -36.0574 H         1 UNK         0.0786 
     93 H93        22.9273  -29.3065  -35.9271 H         1 UNK         0.0786 
     94 H94        21.6407  -28.1155  -35.8546 H         1 UNK         0.0786 
     95 H95        23.0415  -27.9808  -40.3291 H         1 UNK         0.3172 
     96 H96        25.8777  -28.5258  -40.2580 H         1 UNK         0.0595 
     97 H97        25.7136  -28.0137  -42.6883 H         1 UNK         0.0839 
     98 H98        24.7673  -26.8458  -41.7878 H         1 UNK         0.0839 
     99 H99        23.9617  -28.1618  -42.6339 H         1 UNK         0.0839 
    100 H100       26.7664  -29.9753  -42.0984 H         1 UNK         0.2998 
    101 H101       26.3745  -32.6806  -41.5290 H         1 UNK         0.0822 
    102 H102       27.8422  -33.0504  -43.5269 H         1 UNK         0.0787 
    103 H103       27.6138  -31.3770  -44.0154 H         1 UNK         0.0787 
    104 H104       28.4570  -31.7575  -42.5124 H         1 UNK         0.0787 
    105 H105       24.5390  -30.7136  -43.7201 H         1 UNK         0.3055 
    106 H106       23.3601  -32.6875  -45.3957 H         1 UNK         0.1106 
    107 H107       21.6354  -30.9392  -45.7730 H         1 UNK         0.0828 
    108 H108       22.2200  -30.0158  -44.3960 H         1 UNK         0.0828 
    109 H109       23.2357  -30.2226  -45.8262 H         1 UNK         0.0828 
    110 H110       22.8257  -31.9706  -41.9878 H         1 UNK         0.2931 
    111 H111       20.2916  -33.3942  -41.8240 H         1 UNK         0.0412 
    112 H112       23.4886  -34.6219  -42.2908 H         1 UNK         0.3472 
    113 H113       23.1723  -36.1871  -41.5827 H         1 UNK         0.3472 
    114 H114       22.1589  -32.4846  -39.5845 H         1 UNK         0.0970 
    115 H115       20.5621  -33.1417  -39.3504 H         1 UNK         0.0970 
    116 H116       18.5246  -32.3206  -40.5280 H         1 UNK         0.0612 
    117 H117       18.2899  -31.1684  -39.2336 H         1 UNK         0.0612 
@<TRIPOS>BOND
     1    1    2 1    
     2    1   62 1    
     3    1   63 1    
     4    1   64 1    
     5    2    3 2    
     6    2    4 am   BACKBONE|DICT|INTERRES
     7    4    5 1    
     8    4   65 1    
     9    5    6 1    
    10    5   25 1    
    11    5   66 1    
    12    6    7 1    
    13    6   67 1    
    14    6   68 1    
    15    7    8 1    
    16    8    9 1    
    17    8   69 1    
    18    8   70 1    
    19    9   10 ar   
    20    9   14 ar   
    21   10   11 ar   
    22   10   71 1    
    23   11   12 ar   
    24   11   61 1    
    25   12   13 ar   
    26   12   72 1    
    27   13   14 ar   
    28   13   15 1    
    29   14   73 1    
    30   15   16 1    
    31   15   74 1    
    32   15   75 1    
    33   16   17 1    
    34   17   18 1    
    35   17   76 1    
    36   17   77 1    
    37   18   19 1    
    38   18   27 1    
    39   18   78 1    
    40   19   20 am   BACKBONE|DICT|INTERRES
    41   19   79 1    
    42   20   21 2    
    43   20   22 1    
    44   22   23 1    
    45   22   24 1    
    46   22   80 1    
    47   23   81 1    
    48   23   82 1    
    49   23   83 1    
    50   24   25 am   BACKBONE|DICT|INTERRES
    51   24   84 1    
    52   25   26 2    
    53   27   28 2    
    54   27   29 am   BACKBONE|DICT|INTERRES
    55   29   30 1    
    56   29   85 1    
    57   30   31 1    
    58   30   32 1    
    59   30   86 1    
    60   31   87 1    
    61   31   88 1    
    62   31   89 1    
    63   32   33 2    
    64   32   34 am   BACKBONE|DICT|INTERRES
    65   34   35 1    
    66   34   90 1    
    67   35   36 1    
    68   35   37 1    
    69   35   91 1    
    70   36   92 1    
    71   36   93 1    
    72   36   94 1    
    73   37   38 2    
    74   37   39 am   BACKBONE|DICT|INTERRES
    75   39   40 1    
    76   39   95 1    
    77   40   41 1    
    78   40   42 1    
    79   40   96 1    
    80   41   97 1    
    81   41   98 1    
    82   41   99 1    
    83   42   43 2    
    84   42   44 am   BACKBONE|DICT|INTERRES
    85   44   45 1    
    86   44  100 1    
    87   45   46 1    
    88   45   47 1    
    89   45  101 1    
    90   46  102 1    
    91   46  103 1    
    92   46  104 1    
    93   47   48 2    
    94   47   49 am   BACKBONE|DICT|INTERRES
    95   49   50 1    
    96   49  105 1    
    97   50   51 1    
    98   50   52 1    
    99   50  106 1    
   100   51  107 1    
   101   51  108 1    
   102   51  109 1    
   103   52   53 2    
   104   52   54 am   BACKBONE|DICT|INTERRES
   105   54   55 1    
   106   54  110 1    
   107   55   56 1    
   108   55   59 1    
   109   55  111 1    
   110   56   57 am   BACKBONE|DICT|INTERRES
   111   56   58 2    
   112   57  112 1    
   113   57  113 1    
   114   59   60 1    
   115   59  114 1    
   116   59  115 1    
   117   60   61 1    
   118   61  116 1    
   119   61  117 1    
@<TRIPOS>SUBSTRUCTURE
     1 UNK         1 GROUP             0       ****    0 ROOT    
