@<TRIPOS>MOLECULE
3R8
117   119    1
SMALL
USER_CHARGES


@<TRIPOS>ATOM
      1 CA         21.8759  -23.0336  -47.9840 C.3       0 UNK        -0.2013 
      2 C          21.5761  -24.0289  -46.8736 C.2       0 UNK         0.4866 
      3 O          22.0481  -23.8548  -45.7489 O.2       0 UNK        -0.5176 
      4 N          20.7946  -25.0749  -47.1741 N.am      1 UNK        -0.4884 
      5 CA         20.3758  -26.1018  -46.2177 C.3       1 UNK         0.0853 
      6 C6         20.0158  -27.4333  -46.9256 C.3       10 UNK        -0.0849 
      7 S7         19.9206  -28.8297  -45.7508 S.3       10 UNK        -0.2776 
      8 C8         18.1707  -29.3042  -45.9082 C.3       10 UNK         0.0316 
      9 C9         17.7760  -30.2948  -44.8250 C.ar      10 UNK        -0.0863 
     10 C10        18.0533  -31.6562  -44.9820 C.ar      10 UNK        -0.1009 
     11 C11        17.6976  -32.5708  -43.9863 C.ar      10 UNK        -0.0712 
     12 C12        17.0647  -32.1138  -42.8267 C.ar      10 UNK        -0.0894 
     13 C13        16.7753  -30.7559  -42.6611 C.ar      10 UNK        -0.0745 
     14 C14        17.1275  -29.8515  -43.6678 C.ar      10 UNK        -0.0972 
     15 C15        16.0633  -30.2785  -41.4030 C.3       10 UNK         0.0209 
     16 S16        17.2331  -29.6625  -40.1490 S.3       10 UNK        -0.2568 
     17 C17        17.4903  -27.9382  -40.6850 C.3       10 UNK        -0.0983 
     18 CA         18.8694  -27.7181  -41.3651 C.3       3 UNK         0.0876 
     19 N          18.8824  -26.5946  -42.3067 N.am      3 UNK        -0.4424 
     20 C          18.5839  -25.3103  -42.0585 C.2       2 UNK         0.4918 
     21 O          18.2246  -24.9015  -40.9534 O.2       2 UNK        -0.4875 
     22 CA         18.7427  -24.3072  -43.2219 C.3       2 UNK         0.0481 
     23 CB         19.2698  -22.9467  -42.7319 C.3       2 UNK        -0.1831 
     24 N          19.6266  -24.8091  -44.2797 N.am      2 UNK        -0.4498 
     25 C          19.2435  -25.5619  -45.3181 C.2       1 UNK         0.5027 
     26 O          18.0681  -25.8366  -45.5627 O.2       1 UNK        -0.4969 
     27 C          20.0416  -27.6173  -40.3707 C.2       3 UNK         0.5005 
     28 O          21.0185  -28.3538  -40.5111 O.2       3 UNK        -0.5279 
     29 N          19.9680  -26.6639  -39.4317 N.am      4 UNK        -0.4463 
     30 CA         20.9916  -26.3945  -38.4156 C.3       4 UNK         0.0283 
     31 CB         20.4589  -25.3507  -37.4216 C.3       4 UNK        -0.1875 
     32 C          22.3400  -25.9397  -39.0021 C.2       4 UNK         0.4949 
     33 O          23.3813  -26.2253  -38.4122 O.2       4 UNK        -0.5039 
     34 N          22.2982  -25.2654  -40.1604 N.am      5 UNK        -0.4663 
     35 CA         23.4805  -24.8563  -40.9239 C.3       5 UNK         0.0242 
     36 CB         23.0758  -23.7972  -41.9618 C.3       5 UNK        -0.1982 
     37 C          24.1907  -26.0347  -41.6142 C.2       5 UNK         0.5017 
     38 O          25.4010  -25.9604  -41.8277 O.2       5 UNK        -0.5012 
     39 N          23.4337  -27.0880  -41.9536 N.am      6 UNK        -0.4439 
     40 CA         23.9536  -28.3227  -42.5412 C.3       6 UNK         0.0297 
     41 CB         22.8791  -28.9673  -43.4324 C.3       6 UNK        -0.2006 
     42 C          24.4233  -29.2988  -41.4529 C.2       6 UNK         0.4892 
     43 O          25.4708  -29.9238  -41.6181 O.2       6 UNK        -0.5089 
     44 N          23.6386  -29.4125  -40.3695 N.am      7 UNK        -0.4243 
     45 CA         23.8155  -30.2459  -39.1701 C.3       7 UNK         0.0196 
     46 CB         25.1382  -29.9297  -38.4458 C.3       7 UNK        -0.2007 
     47 C          23.6512  -31.7593  -39.4074 C.2       7 UNK         0.5020 
     48 O          23.1071  -32.4442  -38.5409 O.2       7 UNK        -0.5147 
     49 N          24.0887  -32.2530  -40.5676 N.am      8 UNK        -0.4734 
     50 CA         23.8758  -33.6064  -41.0688 C.3       8 UNK         0.0238 
     51 CB         25.1737  -34.4165  -40.9139 C.3       8 UNK        -0.1912 
     52 C          23.4579  -33.5103  -42.5413 C.2       8 UNK         0.5038 
     53 O          23.8153  -32.5395  -43.2143 O.2       8 UNK        -0.5046 
     54 N          22.7194  -34.5168  -43.0150 N.am      9 UNK        -0.4200 
     55 CA         22.1464  -34.5693  -44.3691 C.3       9 UNK         0.0839 
     56 C          22.1384  -35.9944  -44.9935 C.2       9 UNK         0.5513 
     57 N          22.8257  -36.9746  -44.4175 N.am      9 UNK        -0.7519 
     58 O          21.5202  -36.2143  -46.0320 O.2       9 UNK        -0.4960 
     59 C59        20.7759  -33.8400  -44.4411 C.3       10 UNK        -0.0876 
     60 S60        19.5151  -34.5525  -43.3261 S.3       10 UNK        -0.2414 
     61 C61        17.9799  -34.0553  -44.1637 C.3       10 UNK         0.0169 
     62 H62        21.5177  -22.0429  -47.7055 H         1 UNK         0.0903 
     63 H63        22.9508  -22.9725  -48.1519 H         1 UNK         0.0903 
     64 H64        21.4012  -23.3148  -48.9239 H         1 UNK         0.0903 
     65 H65        20.4098  -25.1559  -48.1052 H         1 UNK         0.3096 
     66 H66        21.2311  -26.3149  -45.5709 H         1 UNK         0.1121 
     67 H67        20.7911  -27.6837  -47.6515 H         1 UNK         0.0849 
     68 H68        19.0916  -27.3438  -47.5000 H         1 UNK         0.0849 
     69 H69        17.5377  -28.4178  -45.8516 H         1 UNK         0.0865 
     70 H70        18.0002  -29.7399  -46.8940 H         1 UNK         0.0865 
     71 H71        18.5496  -32.0017  -45.8786 H         1 UNK         0.1346 
     72 H72        16.7938  -32.8199  -42.0533 H         1 UNK         0.1412 
     73 H73        16.9017  -28.8007  -43.5484 H         1 UNK         0.1426 
     74 H74        15.4959  -31.1016  -40.9659 H         1 UNK         0.0716 
     75 H75        15.3275  -29.5116  -41.6490 H         1 UNK         0.0716 
     76 H76        17.3520  -27.2827  -39.8240 H         1 UNK         0.0695 
     77 H77        16.6907  -27.6674  -41.3753 H         1 UNK         0.0695 
     78 H78        19.0756  -28.5948  -41.9821 H         1 UNK         0.0983 
     79 H79        19.1748  -26.8261  -43.2443 H         1 UNK         0.3095 
     80 H80        17.7461  -24.1429  -43.6361 H         1 UNK         0.0454 
     81 H81        19.3970  -22.2482  -43.5591 H         1 UNK         0.0851 
     82 H82        20.2276  -23.0409  -42.2217 H         1 UNK         0.0851 
     83 H83        18.5735  -22.4865  -42.0296 H         1 UNK         0.0851 
     84 H84        20.6056  -24.5544  -44.2207 H         1 UNK         0.2976 
     85 H85        19.1669  -26.0421  -39.4596 H         1 UNK         0.3116 
     86 H86        21.1700  -27.3252  -37.8727 H         1 UNK         0.0646 
     87 H87        19.5522  -25.6995  -36.9270 H         1 UNK         0.0847 
     88 H88        20.2313  -24.4036  -37.9126 H         1 UNK         0.0847 
     89 H89        21.1926  -25.1452  -36.6408 H         1 UNK         0.0847 
     90 H90        21.3942  -25.0481  -40.5524 H         1 UNK         0.3040 
     91 H91        24.1951  -24.4034  -40.2324 H         1 UNK         0.1015 
     92 H92        23.9469  -23.4430  -42.5150 H         1 UNK         0.0786 
     93 H93        22.6227  -22.9270  -41.4868 H         1 UNK         0.0786 
     94 H94        22.3710  -24.1939  -42.6930 H         1 UNK         0.0786 
     95 H95        22.4633  -27.0934  -41.6713 H         1 UNK         0.3172 
     96 H96        24.8115  -28.0873  -43.1750 H         1 UNK         0.0595 
     97 H97        21.9832  -29.2370  -42.8724 H         1 UNK         0.0839 
     98 H98        23.2558  -29.8804  -43.8954 H         1 UNK         0.0839 
     99 H99        22.5819  -28.2975  -44.2390 H         1 UNK         0.0839 
    100 H100       22.7489  -28.9163  -40.3953 H         1 UNK         0.2998 
    101 H101       23.0033  -29.9524  -38.5027 H         1 UNK         0.0822 
    102 H102       25.2228  -28.8651  -38.2262 H         1 UNK         0.0787 
    103 H103       25.1970  -30.4634  -37.4964 H         1 UNK         0.0787 
    104 H104       26.0078  -30.2227  -39.0345 H         1 UNK         0.0787 
    105 H105       24.5137  -31.6093  -41.2307 H         1 UNK         0.3055 
    106 H106       23.0711  -34.0910  -40.5106 H         1 UNK         0.1106 
    107 H107       25.9964  -33.9696  -41.4738 H         1 UNK         0.0828 
    108 H108       25.0466  -35.4371  -41.2767 H         1 UNK         0.0828 
    109 H109       25.4769  -34.4801  -39.8687 H         1 UNK         0.0828 
    110 H110       22.4543  -35.2758  -42.4039 H         1 UNK         0.2931 
    111 H111       22.8209  -34.0218  -45.0302 H         1 UNK         0.0412 
    112 H112       22.8154  -37.8905  -44.8391 H         1 UNK         0.3472 
    113 H113       23.3918  -36.8069  -43.6017 H         1 UNK         0.3472 
    114 H114       20.9037  -32.7885  -44.1785 H         1 UNK         0.0970 
    115 H115       20.4023  -33.8410  -45.4664 H         1 UNK         0.0970 
    116 H116       17.1534  -34.6349  -43.7499 H         1 UNK         0.0612 
    117 H117       18.0331  -34.3174  -45.2216 H         1 UNK         0.0612 
@<TRIPOS>BOND
     1    1    2 1    
     2    1   62 1    
     3    1   63 1    
     4    1   64 1    
     5    2    3 2    
     6    2    4 am   BACKBONE|DICT|INTERRES
     7    4    5 1    
     8    4   65 1    
     9    5    6 1    
    10    5   25 1    
    11    5   66 1    
    12    6    7 1    
    13    6   67 1    
    14    6   68 1    
    15    7    8 1    
    16    8    9 1    
    17    8   69 1    
    18    8   70 1    
    19    9   10 ar   
    20    9   14 ar   
    21   10   11 ar   
    22   10   71 1    
    23   11   12 ar   
    24   11   61 1    
    25   12   13 ar   
    26   12   72 1    
    27   13   14 ar   
    28   13   15 1    
    29   14   73 1    
    30   15   16 1    
    31   15   74 1    
    32   15   75 1    
    33   16   17 1    
    34   17   18 1    
    35   17   76 1    
    36   17   77 1    
    37   18   19 1    
    38   18   27 1    
    39   18   78 1    
    40   19   20 am   BACKBONE|DICT|INTERRES
    41   19   79 1    
    42   20   21 2    
    43   20   22 1    
    44   22   23 1    
    45   22   24 1    
    46   22   80 1    
    47   23   81 1    
    48   23   82 1    
    49   23   83 1    
    50   24   25 am   BACKBONE|DICT|INTERRES
    51   24   84 1    
    52   25   26 2    
    53   27   28 2    
    54   27   29 am   BACKBONE|DICT|INTERRES
    55   29   30 1    
    56   29   85 1    
    57   30   31 1    
    58   30   32 1    
    59   30   86 1    
    60   31   87 1    
    61   31   88 1    
    62   31   89 1    
    63   32   33 2    
    64   32   34 am   BACKBONE|DICT|INTERRES
    65   34   35 1    
    66   34   90 1    
    67   35   36 1    
    68   35   37 1    
    69   35   91 1    
    70   36   92 1    
    71   36   93 1    
    72   36   94 1    
    73   37   38 2    
    74   37   39 am   BACKBONE|DICT|INTERRES
    75   39   40 1    
    76   39   95 1    
    77   40   41 1    
    78   40   42 1    
    79   40   96 1    
    80   41   97 1    
    81   41   98 1    
    82   41   99 1    
    83   42   43 2    
    84   42   44 am   BACKBONE|DICT|INTERRES
    85   44   45 1    
    86   44  100 1    
    87   45   46 1    
    88   45   47 1    
    89   45  101 1    
    90   46  102 1    
    91   46  103 1    
    92   46  104 1    
    93   47   48 2    
    94   47   49 am   BACKBONE|DICT|INTERRES
    95   49   50 1    
    96   49  105 1    
    97   50   51 1    
    98   50   52 1    
    99   50  106 1    
   100   51  107 1    
   101   51  108 1    
   102   51  109 1    
   103   52   53 2    
   104   52   54 am   BACKBONE|DICT|INTERRES
   105   54   55 1    
   106   54  110 1    
   107   55   56 1    
   108   55   59 1    
   109   55  111 1    
   110   56   57 am   BACKBONE|DICT|INTERRES
   111   56   58 2    
   112   57  112 1    
   113   57  113 1    
   114   59   60 1    
   115   59  114 1    
   116   59  115 1    
   117   60   61 1    
   118   61  116 1    
   119   61  117 1    
@<TRIPOS>SUBSTRUCTURE
     1 UNK         1 GROUP             0       ****    0 ROOT    
