@<TRIPOS>MOLECULE
3R8
117   119    1
SMALL
USER_CHARGES


@<TRIPOS>ATOM
      1 CA         16.3826  -23.7523  -40.3809 C.3       0 UNK        -0.2013 
      2 C          16.4205  -24.2025  -41.8337 C.2       0 UNK         0.4866 
      3 O          15.4186  -24.0837  -42.5392 O.2       0 UNK        -0.5176 
      4 N          17.5682  -24.7160  -42.2851 N.am      1 UNK        -0.4884 
      5 CA         17.8239  -25.1760  -43.6483 C.3       1 UNK         0.0853 
      6 C6         17.1795  -26.5609  -43.9355 C.3       10 UNK        -0.0849 
      7 S7         16.6931  -26.7324  -45.6830 S.3       10 UNK        -0.2776 
      8 C8         15.6789  -28.2480  -45.6259 C.3       10 UNK         0.0316 
      9 C9         16.5387  -29.4874  -45.4260 C.ar      10 UNK        -0.0863 
     10 C10        16.5124  -30.1918  -44.2159 C.ar      10 UNK        -0.1009 
     11 C11        17.3487  -31.2976  -44.0261 C.ar      10 UNK        -0.0712 
     12 C12        18.1863  -31.7154  -45.0618 C.ar      10 UNK        -0.0894 
     13 C13        18.2650  -30.9786  -46.2457 C.ar      10 UNK        -0.0745 
     14 C14        17.4110  -29.8918  -46.4411 C.ar      10 UNK        -0.0972 
     15 C15        19.3951  -31.2516  -47.2252 C.3       10 UNK         0.0209 
     16 S16        20.7688  -30.0593  -46.9988 S.3       10 UNK        -0.2568 
     17 C17        20.9924  -30.0364  -45.1801 C.3       10 UNK        -0.0983 
     18 CA         21.8395  -28.8606  -44.6489 C.3       3 UNK         0.0876 
     19 N          21.3395  -27.5687  -45.1254 N.am      3 UNK        -0.4424 
     20 C          21.9907  -26.4064  -44.9993 C.2       2 UNK         0.4918 
     21 O          23.1106  -26.2978  -44.4999 O.2       2 UNK        -0.4875 
     22 CA         21.2352  -25.1494  -45.4665 C.3       2 UNK         0.0481 
     23 CB         21.3839  -24.9635  -46.9845 C.3       2 UNK        -0.1831 
     24 N          19.8105  -25.1573  -45.1051 N.am      2 UNK        -0.4498 
     25 C          19.3501  -25.1871  -43.8467 C.2       1 UNK         0.5027 
     26 O          20.0861  -25.2449  -42.8568 O.2       1 UNK        -0.4969 
     27 C          21.8764  -28.9123  -43.1062 C.2       3 UNK         0.5005 
     28 O          22.8109  -29.4769  -42.5394 O.2       3 UNK        -0.5279 
     29 N          20.8692  -28.3111  -42.4531 N.am      4 UNK        -0.4463 
     30 CA         20.7466  -28.2373  -40.9950 C.3       4 UNK         0.0283 
     31 CB         19.3318  -27.7821  -40.6026 C.3       4 UNK        -0.1875 
     32 C          21.8114  -27.3249  -40.3713 C.2       4 UNK         0.4949 
     33 O          22.3597  -27.6693  -39.3260 O.2       4 UNK        -0.5039 
     34 N          22.1369  -26.2167  -41.0521 N.am      5 UNK        -0.4663 
     35 CA         23.2436  -25.3184  -40.7060 C.3       5 UNK         0.0242 
     36 CB         23.1808  -24.0678  -41.5969 C.3       5 UNK        -0.1982 
     37 C          24.6235  -25.9962  -40.8091 C.2       5 UNK         0.5017 
     38 O          25.5179  -25.6677  -40.0296 O.2       5 UNK        -0.5012 
     39 N          24.7553  -26.9538  -41.7376 N.am      6 UNK        -0.4439 
     40 CA         25.9204  -27.8294  -41.8917 C.3       6 UNK         0.0297 
     41 CB         26.0075  -28.2813  -43.3600 C.3       6 UNK        -0.2006 
     42 C          25.8977  -29.0499  -40.9456 C.2       6 UNK         0.4892 
     43 O          26.8676  -29.8089  -40.9401 O.2       6 UNK        -0.5089 
     44 N          24.8062  -29.2279  -40.1828 N.am      7 UNK        -0.4243 
     45 CA         24.5103  -30.3362  -39.2651 C.3       7 UNK         0.0196 
     46 CB         25.5047  -30.3575  -38.0847 C.3       7 UNK        -0.2007 
     47 C          24.3788  -31.7052  -39.9639 C.2       7 UNK         0.5020 
     48 O          24.6249  -32.7376  -39.3380 O.2       7 UNK        -0.5147 
     49 N          23.9751  -31.7056  -41.2414 N.am      8 UNK        -0.4734 
     50 CA         23.8406  -32.9095  -42.0666 C.3       8 UNK         0.0238 
     51 CB         24.0145  -32.5264  -43.5448 C.3       8 UNK        -0.1912 
     52 C          22.5196  -33.6678  -41.8418 C.2       8 UNK         0.5038 
     53 O          22.4208  -34.8204  -42.2651 O.2       8 UNK        -0.5046 
     54 N          21.5386  -33.0321  -41.1848 N.am      9 UNK        -0.4200 
     55 CA         20.2449  -33.6389  -40.8176 C.3       9 UNK         0.0839 
     56 C          20.3303  -34.7053  -39.6855 C.2       9 UNK         0.5513 
     57 N          21.4400  -34.8315  -38.9663 N.am      9 UNK        -0.7519 
     58 O          19.3684  -35.4344  -39.4584 O.2       9 UNK        -0.4960 
     59 C59        19.1633  -32.5763  -40.4803 C.3       10 UNK        -0.0876 
     60 S60        18.9334  -31.3514  -41.8081 S.3       10 UNK        -0.2414 
     61 C61        17.4579  -31.9780  -42.6720 C.3       10 UNK         0.0169 
     62 H62        15.6074  -24.2949  -39.8404 H         1 UNK         0.0903 
     63 H63        17.3324  -23.9257  -39.8752 H         1 UNK         0.0903 
     64 H64        16.1569  -22.6878  -40.3234 H         1 UNK         0.0903 
     65 H65        18.3930  -24.7442  -41.6966 H         1 UNK         0.3096 
     66 H66        17.4090  -24.4235  -44.3235 H         1 UNK         0.1121 
     67 H67        17.8320  -27.3880  -43.6483 H         1 UNK         0.0849 
     68 H68        16.2727  -26.6859  -43.3417 H         1 UNK         0.0849 
     69 H69        14.9253  -28.1595  -44.8418 H         1 UNK         0.0865 
     70 H70        15.1314  -28.3424  -46.5649 H         1 UNK         0.0865 
     71 H71        15.8771  -29.8550  -43.4082 H         1 UNK         0.1346 
     72 H72        18.8714  -32.5352  -44.8925 H         1 UNK         0.1412 
     73 H73        17.4821  -29.3104  -47.3507 H         1 UNK         0.1426 
     74 H74        19.7775  -32.2656  -47.0979 H         1 UNK         0.0716 
     75 H75        19.0250  -31.1865  -48.2493 H         1 UNK         0.0716 
     76 H76        21.4090  -30.9969  -44.8764 H         1 UNK         0.0695 
     77 H77        20.0180  -29.9617  -44.7026 H         1 UNK         0.0695 
     78 H78        22.8633  -28.9815  -45.0096 H         1 UNK         0.0983 
     79 H79        20.4379  -27.5768  -45.5795 H         1 UNK         0.3095 
     80 H80        21.6947  -24.2897  -44.9740 H         1 UNK         0.0454 
     81 H81        20.9136  -25.7746  -47.5418 H         1 UNK         0.0851 
     82 H82        20.9380  -24.0255  -47.3154 H         1 UNK         0.0851 
     83 H83        22.4359  -24.9381  -47.2726 H         1 UNK         0.0851 
     84 H84        19.1452  -25.1335  -45.8659 H         1 UNK         0.2976 
     85 H85        20.1598  -27.8411  -42.9933 H         1 UNK         0.3116 
     86 H86        20.8987  -29.2432  -40.5978 H         1 UNK         0.0646 
     87 H87        18.5679  -28.4251  -41.0395 H         1 UNK         0.0847 
     88 H88        19.2024  -27.8182  -39.5202 H         1 UNK         0.0847 
     89 H89        19.1286  -26.7597  -40.9164 H         1 UNK         0.0847 
     90 H90        21.5809  -25.9688  -41.8664 H         1 UNK         0.3040 
     91 H91        23.1085  -25.0084  -39.6674 H         1 UNK         0.1015 
     92 H92        23.3037  -24.3159  -42.6515 H         1 UNK         0.0786 
     93 H93        23.9687  -23.3609  -41.3335 H         1 UNK         0.0786 
     94 H94        22.2282  -23.5493  -41.4855 H         1 UNK         0.0786 
     95 H95        23.9705  -27.1330  -42.3510 H         1 UNK         0.3172 
     96 H96        26.8223  -27.2583  -41.6620 H         1 UNK         0.0595 
     97 H97        25.1595  -28.9043  -43.6442 H         1 UNK         0.0839 
     98 H98        26.9113  -28.8661  -43.5359 H         1 UNK         0.0839 
     99 H99        26.0376  -27.4280  -44.0380 H         1 UNK         0.0839 
    100 H100       24.0644  -28.5431  -40.2640 H         1 UNK         0.2998 
    101 H101       23.5232  -30.1233  -38.8528 H         1 UNK         0.0822 
    102 H102       25.1946  -31.0750  -37.3240 H         1 UNK         0.0787 
    103 H103       26.5083  -30.6384  -38.4050 H         1 UNK         0.0787 
    104 H104       25.5662  -29.3824  -37.6014 H         1 UNK         0.0787 
    105 H105       23.7278  -30.8198  -41.6822 H         1 UNK         0.3055 
    106 H106       24.6461  -33.6004  -41.8068 H         1 UNK         0.1106 
    107 H107       24.9899  -32.0734  -43.7231 H         1 UNK         0.0828 
    108 H108       23.9408  -33.4025  -44.1904 H         1 UNK         0.0828 
    109 H109       23.2551  -31.8174  -43.8675 H         1 UNK         0.0828 
    110 H110       21.6944  -32.0809  -40.8883 H         1 UNK         0.2931 
    111 H111       19.8916  -34.1768  -41.6997 H         1 UNK         0.0412 
    112 H112       21.4799  -35.5286  -38.2392 H         1 UNK         0.3472 
    113 H113       22.2399  -34.2441  -39.1461 H         1 UNK         0.3472 
    114 H114       18.2031  -33.0524  -40.2716 H         1 UNK         0.0970 
    115 H115       19.4345  -32.0374  -39.5707 H         1 UNK         0.0970 
    116 H116       17.5368  -33.0581  -42.8052 H         1 UNK         0.0612 
    117 H117       16.5695  -31.7935  -42.0663 H         1 UNK         0.0612 
@<TRIPOS>BOND
     1    1    2 1    
     2    1   62 1    
     3    1   63 1    
     4    1   64 1    
     5    2    3 2    
     6    2    4 am   BACKBONE|DICT|INTERRES
     7    4    5 1    
     8    4   65 1    
     9    5    6 1    
    10    5   25 1    
    11    5   66 1    
    12    6    7 1    
    13    6   67 1    
    14    6   68 1    
    15    7    8 1    
    16    8    9 1    
    17    8   69 1    
    18    8   70 1    
    19    9   10 ar   
    20    9   14 ar   
    21   10   11 ar   
    22   10   71 1    
    23   11   12 ar   
    24   11   61 1    
    25   12   13 ar   
    26   12   72 1    
    27   13   14 ar   
    28   13   15 1    
    29   14   73 1    
    30   15   16 1    
    31   15   74 1    
    32   15   75 1    
    33   16   17 1    
    34   17   18 1    
    35   17   76 1    
    36   17   77 1    
    37   18   19 1    
    38   18   27 1    
    39   18   78 1    
    40   19   20 am   BACKBONE|DICT|INTERRES
    41   19   79 1    
    42   20   21 2    
    43   20   22 1    
    44   22   23 1    
    45   22   24 1    
    46   22   80 1    
    47   23   81 1    
    48   23   82 1    
    49   23   83 1    
    50   24   25 am   BACKBONE|DICT|INTERRES
    51   24   84 1    
    52   25   26 2    
    53   27   28 2    
    54   27   29 am   BACKBONE|DICT|INTERRES
    55   29   30 1    
    56   29   85 1    
    57   30   31 1    
    58   30   32 1    
    59   30   86 1    
    60   31   87 1    
    61   31   88 1    
    62   31   89 1    
    63   32   33 2    
    64   32   34 am   BACKBONE|DICT|INTERRES
    65   34   35 1    
    66   34   90 1    
    67   35   36 1    
    68   35   37 1    
    69   35   91 1    
    70   36   92 1    
    71   36   93 1    
    72   36   94 1    
    73   37   38 2    
    74   37   39 am   BACKBONE|DICT|INTERRES
    75   39   40 1    
    76   39   95 1    
    77   40   41 1    
    78   40   42 1    
    79   40   96 1    
    80   41   97 1    
    81   41   98 1    
    82   41   99 1    
    83   42   43 2    
    84   42   44 am   BACKBONE|DICT|INTERRES
    85   44   45 1    
    86   44  100 1    
    87   45   46 1    
    88   45   47 1    
    89   45  101 1    
    90   46  102 1    
    91   46  103 1    
    92   46  104 1    
    93   47   48 2    
    94   47   49 am   BACKBONE|DICT|INTERRES
    95   49   50 1    
    96   49  105 1    
    97   50   51 1    
    98   50   52 1    
    99   50  106 1    
   100   51  107 1    
   101   51  108 1    
   102   51  109 1    
   103   52   53 2    
   104   52   54 am   BACKBONE|DICT|INTERRES
   105   54   55 1    
   106   54  110 1    
   107   55   56 1    
   108   55   59 1    
   109   55  111 1    
   110   56   57 am   BACKBONE|DICT|INTERRES
   111   56   58 2    
   112   57  112 1    
   113   57  113 1    
   114   59   60 1    
   115   59  114 1    
   116   59  115 1    
   117   60   61 1    
   118   61  116 1    
   119   61  117 1    
@<TRIPOS>SUBSTRUCTURE
     1 UNK         1 GROUP             0       ****    0 ROOT    
