@<TRIPOS>MOLECULE
3R8
117   119    1
SMALL
USER_CHARGES


@<TRIPOS>ATOM
      1 CA         14.4859  -24.8936  -41.2211 C.3       0 UNK        -0.2013 
      2 C          14.7658  -25.5295  -42.5747 C.2       0 UNK         0.4866 
      3 O          13.9282  -26.2717  -43.0880 O.2       0 UNK        -0.5176 
      4 N          15.9339  -25.2433  -43.1570 N.am      1 UNK        -0.4884 
      5 CA         16.3722  -25.7143  -44.4698 C.3       1 UNK         0.0853 
      6 C6         16.8441  -27.1931  -44.4420 C.3       10 UNK        -0.0849 
      7 S7         16.6977  -28.0022  -46.0727 S.3       10 UNK        -0.2776 
      8 C8         16.8950  -29.7570  -45.6222 C.3       10 UNK         0.0316 
      9 C9         18.2170  -30.0101  -44.9125 C.ar      10 UNK        -0.0863 
     10 C10        18.2362  -30.3707  -43.5621 C.ar      10 UNK        -0.1009 
     11 C11        19.4503  -30.5708  -42.8996 C.ar      10 UNK        -0.0712 
     12 C12        20.6520  -30.3917  -43.5930 C.ar      10 UNK        -0.0894 
     13 C13        20.6446  -30.0356  -44.9452 C.ar      10 UNK        -0.0745 
     14 C14        19.4231  -29.8632  -45.6028 C.ar      10 UNK        -0.0972 
     15 C15        21.9552  -29.8376  -45.6959 C.3       10 UNK         0.0209 
     16 S16        22.1024  -28.1690  -46.4142 S.3       10 UNK        -0.2568 
     17 C17        22.2016  -27.1381  -44.9142 C.3       10 UNK        -0.0983 
     18 CA         21.9874  -25.6387  -45.2281 C.3       3 UNK         0.0876 
     19 N          20.6576  -25.3725  -45.7855 N.am      3 UNK        -0.4424 
     20 C          20.3114  -24.2397  -46.4114 C.2       2 UNK         0.4918 
     21 O          21.0869  -23.3016  -46.6020 O.2       2 UNK        -0.4875 
     22 CA         18.8710  -24.1311  -46.9456 C.3       2 UNK         0.0481 
     23 CB         18.8337  -24.4808  -48.4421 C.3       2 UNK        -0.1831 
     24 N          17.8978  -24.9665  -46.2365 N.am      2 UNK        -0.4498 
     25 C          17.4507  -24.7446  -44.9940 C.2       1 UNK         0.5027 
     26 O          17.8433  -23.8161  -44.2807 O.2       1 UNK        -0.4969 
     27 C          22.2393  -24.7762  -43.9749 C.2       3 UNK         0.5005 
     28 O          21.3517  -24.6504  -43.1276 O.2       3 UNK        -0.5279 
     29 N          23.4517  -24.2138  -43.8735 N.am      4 UNK        -0.4463 
     30 CA         23.8803  -23.3434  -42.7721 C.3       4 UNK         0.0283 
     31 CB         25.0860  -22.5090  -43.2362 C.3       4 UNK        -0.1875 
     32 C          24.2226  -24.0991  -41.4740 C.2       4 UNK         0.4949 
     33 O          24.3092  -23.4687  -40.4196 O.2       4 UNK        -0.5039 
     34 N          24.4221  -25.4176  -41.5651 N.am      5 UNK        -0.4663 
     35 CA         24.7111  -26.3184  -40.4539 C.3       5 UNK         0.0242 
     36 CB         26.2354  -26.4517  -40.2846 C.3       5 UNK        -0.1982 
     37 C          24.0620  -27.6768  -40.7435 C.2       5 UNK         0.5017 
     38 O          23.7189  -27.9574  -41.8957 O.2       5 UNK        -0.5012 
     39 N          23.9080  -28.4950  -39.6956 N.am      6 UNK        -0.4439 
     40 CA         23.3494  -29.8446  -39.7805 C.3       6 UNK         0.0297 
     41 CB         23.0460  -30.3639  -38.3651 C.3       6 UNK        -0.2006 
     42 C          24.2868  -30.8148  -40.5188 C.2       6 UNK         0.4892 
     43 O          25.5065  -30.7352  -40.3530 O.2       6 UNK        -0.5089 
     44 N          23.6817  -31.7272  -41.2862 N.am      7 UNK        -0.4243 
     45 CA         24.3482  -32.8309  -41.9738 C.3       7 UNK         0.0196 
     46 CB         23.8441  -32.8835  -43.4324 C.3       7 UNK        -0.2007 
     47 C          24.0881  -34.1135  -41.1655 C.2       7 UNK         0.5020 
     48 O          24.5058  -34.1939  -40.0099 O.2       7 UNK        -0.5147 
     49 N          23.3581  -35.0740  -41.7486 N.am      8 UNK        -0.4734 
     50 CA         22.9017  -36.3047  -41.0866 C.3       8 UNK         0.0238 
     51 CB         22.4391  -37.3024  -42.1623 C.3       8 UNK        -0.1912 
     52 C          21.7872  -36.0772  -40.0422 C.2       8 UNK         0.5038 
     53 O          21.4353  -37.0147  -39.3253 O.2       8 UNK        -0.5046 
     54 N          21.2485  -34.8522  -39.9883 N.am      9 UNK        -0.4200 
     55 CA         20.1788  -34.3943  -39.0886 C.3       9 UNK         0.0839 
     56 C          20.5253  -34.4376  -37.5715 C.2       9 UNK         0.5513 
     57 N          21.7938  -34.4894  -37.1821 N.am      9 UNK        -0.7519 
     58 O          19.6244  -34.4167  -36.7371 O.2       9 UNK        -0.4960 
     59 C59        19.6745  -32.9759  -39.4751 C.3       10 UNK        -0.0876 
     60 S60        19.3324  -32.7807  -41.2584 S.3       10 UNK        -0.2414 
     61 C61        19.4605  -30.9757  -41.4348 C.3       10 UNK         0.0169 
     62 H62        15.3119  -24.2660  -40.8869 H         1 UNK         0.0903 
     63 H63        13.5903  -24.2752  -41.2749 H         1 UNK         0.0903 
     64 H64        14.3223  -25.6663  -40.4704 H         1 UNK         0.0903 
     65 H65        16.5743  -24.5780  -42.7380 H         1 UNK         0.3096 
     66 H66        15.5170  -25.6228  -45.1440 H         1 UNK         0.1121 
     67 H67        16.2334  -27.7694  -43.7454 H         1 UNK         0.0849 
     68 H68        17.8693  -27.2774  -44.0752 H         1 UNK         0.0849 
     69 H69        16.0521  -30.0650  -45.0014 H         1 UNK         0.0865 
     70 H70        16.8480  -30.3656  -46.5264 H         1 UNK         0.0865 
     71 H71        17.3070  -30.4952  -43.0226 H         1 UNK         0.1346 
     72 H72        21.5941  -30.5284  -43.0815 H         1 UNK         0.1412 
     73 H73        19.4116  -29.5820  -46.6473 H         1 UNK         0.1426 
     74 H74        22.0171  -30.5743  -46.4979 H         1 UNK         0.0716 
     75 H75        22.8117  -30.0169  -45.0441 H         1 UNK         0.0716 
     76 H76        21.4692  -27.4830  -44.1817 H         1 UNK         0.0695 
     77 H77        23.1846  -27.3029  -44.4695 H         1 UNK         0.0695 
     78 H78        22.7184  -25.3500  -45.9873 H         1 UNK         0.0983 
     79 H79        19.9648  -26.0943  -45.6605 H         1 UNK         0.3095 
     80 H80        18.5614  -23.0897  -46.8355 H         1 UNK         0.0454 
     81 H81        19.5251  -23.8542  -49.0073 H         1 UNK         0.0851 
     82 H82        19.1151  -25.5193  -48.6216 H         1 UNK         0.0851 
     83 H83        17.8406  -24.3233  -48.8631 H         1 UNK         0.0851 
     84 H84        17.5368  -25.7704  -46.7346 H         1 UNK         0.2976 
     85 H85        24.1274  -24.3715  -44.6083 H         1 UNK         0.3116 
     86 H86        23.0636  -22.6562  -42.5401 H         1 UNK         0.0646 
     87 H87        25.4082  -21.8196  -42.4544 H         1 UNK         0.0847 
     88 H88        24.8411  -21.9079  -44.1121 H         1 UNK         0.0847 
     89 H89        25.9415  -23.1378  -43.4864 H         1 UNK         0.0847 
     90 H90        24.2595  -25.8833  -42.4485 H         1 UNK         0.3040 
     91 H91        24.2716  -25.9217  -39.5356 H         1 UNK         0.1015 
     92 H92        26.6962  -25.4866  -40.0728 H         1 UNK         0.0786 
     93 H93        26.7049  -26.8570  -41.1819 H         1 UNK         0.0786 
     94 H94        26.4846  -27.1170  -39.4570 H         1 UNK         0.0786 
     95 H95        24.2568  -28.2053  -38.7933 H         1 UNK         0.3172 
     96 H96        22.4102  -29.7762  -40.3312 H         1 UNK         0.0595 
     97 H97        22.6304  -31.3720  -38.3959 H         1 UNK         0.0839 
     98 H98        22.3197  -29.7306  -37.8552 H         1 UNK         0.0839 
     99 H99        23.9461  -30.4069  -37.7504 H         1 UNK         0.0839 
    100 H100       22.6739  -31.7277  -41.3217 H         1 UNK         0.2998 
    101 H101       25.4293  -32.6774  -41.9934 H         1 UNK         0.0822 
    102 H102       24.0960  -31.9630  -43.9594 H         1 UNK         0.0787 
    103 H103       24.3128  -33.6990  -43.9852 H         1 UNK         0.0787 
    104 H104       22.7621  -33.0083  -43.4963 H         1 UNK         0.0787 
    105 H105       23.0535  -34.9337  -42.7018 H         1 UNK         0.3055 
    106 H106       23.7495  -36.7421  -40.5542 H         1 UNK         0.1106 
    107 H107       21.5881  -36.9211  -42.7281 H         1 UNK         0.0828 
    108 H108       23.2398  -37.5270  -42.8673 H         1 UNK         0.0828 
    109 H109       22.1332  -38.2487  -41.7136 H         1 UNK         0.0828 
    110 H110       21.5878  -34.1674  -40.6441 H         1 UNK         0.2931 
    111 H111       19.3472  -35.0871  -39.2314 H         1 UNK         0.0412 
    112 H112       22.0077  -34.5183  -36.1975 H         1 UNK         0.3472 
    113 H113       22.5382  -34.5118  -37.8620 H         1 UNK         0.3472 
    114 H114       20.4091  -32.2256  -39.1775 H         1 UNK         0.0970 
    115 H115       18.7608  -32.7372  -38.9272 H         1 UNK         0.0970 
    116 H116       20.3730  -30.6214  -40.9576 H         1 UNK         0.0612 
    117 H117       18.6318  -30.5018  -40.9063 H         1 UNK         0.0612 
@<TRIPOS>BOND
     1    1    2 1    
     2    1   62 1    
     3    1   63 1    
     4    1   64 1    
     5    2    3 2    
     6    2    4 am   BACKBONE|DICT|INTERRES
     7    4    5 1    
     8    4   65 1    
     9    5    6 1    
    10    5   25 1    
    11    5   66 1    
    12    6    7 1    
    13    6   67 1    
    14    6   68 1    
    15    7    8 1    
    16    8    9 1    
    17    8   69 1    
    18    8   70 1    
    19    9   10 ar   
    20    9   14 ar   
    21   10   11 ar   
    22   10   71 1    
    23   11   12 ar   
    24   11   61 1    
    25   12   13 ar   
    26   12   72 1    
    27   13   14 ar   
    28   13   15 1    
    29   14   73 1    
    30   15   16 1    
    31   15   74 1    
    32   15   75 1    
    33   16   17 1    
    34   17   18 1    
    35   17   76 1    
    36   17   77 1    
    37   18   19 1    
    38   18   27 1    
    39   18   78 1    
    40   19   20 am   BACKBONE|DICT|INTERRES
    41   19   79 1    
    42   20   21 2    
    43   20   22 1    
    44   22   23 1    
    45   22   24 1    
    46   22   80 1    
    47   23   81 1    
    48   23   82 1    
    49   23   83 1    
    50   24   25 am   BACKBONE|DICT|INTERRES
    51   24   84 1    
    52   25   26 2    
    53   27   28 2    
    54   27   29 am   BACKBONE|DICT|INTERRES
    55   29   30 1    
    56   29   85 1    
    57   30   31 1    
    58   30   32 1    
    59   30   86 1    
    60   31   87 1    
    61   31   88 1    
    62   31   89 1    
    63   32   33 2    
    64   32   34 am   BACKBONE|DICT|INTERRES
    65   34   35 1    
    66   34   90 1    
    67   35   36 1    
    68   35   37 1    
    69   35   91 1    
    70   36   92 1    
    71   36   93 1    
    72   36   94 1    
    73   37   38 2    
    74   37   39 am   BACKBONE|DICT|INTERRES
    75   39   40 1    
    76   39   95 1    
    77   40   41 1    
    78   40   42 1    
    79   40   96 1    
    80   41   97 1    
    81   41   98 1    
    82   41   99 1    
    83   42   43 2    
    84   42   44 am   BACKBONE|DICT|INTERRES
    85   44   45 1    
    86   44  100 1    
    87   45   46 1    
    88   45   47 1    
    89   45  101 1    
    90   46  102 1    
    91   46  103 1    
    92   46  104 1    
    93   47   48 2    
    94   47   49 am   BACKBONE|DICT|INTERRES
    95   49   50 1    
    96   49  105 1    
    97   50   51 1    
    98   50   52 1    
    99   50  106 1    
   100   51  107 1    
   101   51  108 1    
   102   51  109 1    
   103   52   53 2    
   104   52   54 am   BACKBONE|DICT|INTERRES
   105   54   55 1    
   106   54  110 1    
   107   55   56 1    
   108   55   59 1    
   109   55  111 1    
   110   56   57 am   BACKBONE|DICT|INTERRES
   111   56   58 2    
   112   57  112 1    
   113   57  113 1    
   114   59   60 1    
   115   59  114 1    
   116   59  115 1    
   117   60   61 1    
   118   61  116 1    
   119   61  117 1    
@<TRIPOS>SUBSTRUCTURE
     1 UNK         1 GROUP             0       ****    0 ROOT    
