@<TRIPOS>MOLECULE
3R8
117   119    1
SMALL
USER_CHARGES


@<TRIPOS>ATOM
      1 CA         15.7906  -25.2832  -40.6786 C.3       0 UNK        -0.2013 
      2 C          16.2414  -25.0042  -42.1047 C.2       0 UNK         0.4866 
      3 O          16.1845  -23.8583  -42.5528 O.2       0 UNK        -0.5176 
      4 N          16.6785  -26.0456  -42.8231 N.am      1 UNK        -0.4884 
      5 CA         17.2000  -25.9682  -44.1938 C.3       1 UNK         0.0853 
      6 C6         17.3177  -27.3674  -44.8547 C.3       10 UNK        -0.0849 
      7 S7         15.8479  -28.4294  -44.6269 S.3       10 UNK        -0.2776 
      8 C8         16.1816  -29.7896  -45.7927 C.3       10 UNK         0.0316 
      9 C9         17.4854  -30.5140  -45.4825 C.ar      10 UNK        -0.0863 
     10 C10        17.5157  -31.5749  -44.5724 C.ar      10 UNK        -0.1009 
     11 C11        18.7102  -32.2583  -44.3220 C.ar      10 UNK        -0.0712 
     12 C12        19.8809  -31.8527  -44.9716 C.ar      10 UNK        -0.0894 
     13 C13        19.8758  -30.7769  -45.8647 C.ar      10 UNK        -0.0745 
     14 C14        18.6621  -30.1307  -46.1307 C.ar      10 UNK        -0.0972 
     15 C15        21.1909  -30.3712  -46.5347 C.3       10 UNK         0.0209 
     16 S16        21.1925  -28.6991  -47.2764 S.3       10 UNK        -0.2568 
     17 C17        22.7201  -27.9608  -46.5989 C.3       10 UNK        -0.0983 
     18 CA         22.4985  -27.0605  -45.3537 C.3       3 UNK         0.0876 
     19 N          21.4267  -26.0857  -45.5733 N.am      3 UNK        -0.4424 
     20 C          21.4842  -24.7849  -45.2654 C.2       2 UNK         0.4918 
     21 O          22.4652  -24.2396  -44.7598 O.2       2 UNK        -0.4875 
     22 CA         20.2171  -23.9518  -45.5486 C.3       2 UNK         0.0481 
     23 CB         20.2675  -23.3738  -46.9718 C.3       2 UNK        -0.1831 
     24 N          18.9500  -24.6754  -45.3587 N.am      2 UNK        -0.4498 
     25 C          18.5755  -25.2659  -44.2143 C.2       1 UNK         0.5027 
     26 O          19.3028  -25.3251  -43.2199 O.2       1 UNK        -0.4969 
     27 C          22.2987  -27.8943  -44.0692 C.2       3 UNK         0.5005 
     28 O          23.1774  -28.6991  -43.7528 O.2       3 UNK        -0.5279 
     29 N          21.1935  -27.7027  -43.3261 N.am      4 UNK        -0.4463 
     30 CA         20.8734  -28.4898  -42.1251 C.3       4 UNK         0.0283 
     31 CB         19.4519  -28.1843  -41.6273 C.3       4 UNK        -0.1875 
     32 C          21.8783  -28.3077  -40.9786 C.2       4 UNK         0.4949 
     33 O          22.0746  -29.2428  -40.2051 O.2       4 UNK        -0.5039 
     34 N          22.5172  -27.1329  -40.9052 N.am      5 UNK        -0.4663 
     35 CA         23.5887  -26.8361  -39.9518 C.3       5 UNK         0.0242 
     36 CB         23.8425  -25.3203  -39.9339 C.3       5 UNK        -0.1982 
     37 C          24.8930  -27.5976  -40.2520 C.2       5 UNK         0.5017 
     38 O          25.6391  -27.8965  -39.3197 O.2       5 UNK        -0.5012 
     39 N          25.1420  -27.8980  -41.5347 N.am      6 UNK        -0.4439 
     40 CA         26.3007  -28.6625  -41.9983 C.3       6 UNK         0.0297 
     41 CB         26.6649  -28.2330  -43.4294 C.3       6 UNK        -0.2006 
     42 C          26.0327  -30.1729  -41.9345 C.2       6 UNK         0.4892 
     43 O          26.9060  -30.9258  -41.5030 O.2       6 UNK        -0.5089 
     44 N          24.8280  -30.5842  -42.3539 N.am      7 UNK        -0.4243 
     45 CA         24.3729  -31.9767  -42.3574 C.3       7 UNK         0.0196 
     46 CB         23.1773  -32.0948  -43.3138 C.3       7 UNK        -0.2007 
     47 C          24.0045  -32.5211  -40.9640 C.2       7 UNK         0.5020 
     48 O          23.8838  -33.7373  -40.8163 O.2       7 UNK        -0.5147 
     49 N          23.8219  -31.6236  -39.9837 N.am      8 UNK        -0.4734 
     50 CA         23.3577  -31.8722  -38.6119 C.3       8 UNK         0.0238 
     51 CB         24.3393  -32.7753  -37.8341 C.3       8 UNK        -0.1912 
     52 C          21.8981  -32.3680  -38.5650 C.2       8 UNK         0.5038 
     53 O          21.5583  -33.2173  -37.7386 O.2       8 UNK        -0.5046 
     54 N          21.0652  -31.8096  -39.4511 N.am      9 UNK        -0.4200 
     55 CA         19.6160  -32.0491  -39.5310 C.3       9 UNK         0.0839 
     56 C          18.7874  -31.0764  -38.6449 C.2       9 UNK         0.5513 
     57 N          19.3719  -30.0251  -38.0808 N.am      9 UNK        -0.7519 
     58 O          17.5918  -31.2860  -38.4587 O.2       9 UNK        -0.4960 
     59 C59        19.1068  -32.0329  -40.9969 C.3       10 UNK        -0.0876 
     60 S60        19.9144  -33.3021  -42.0245 S.3       10 UNK        -0.2414 
     61 C61        18.7262  -33.4686  -43.3949 C.3       10 UNK         0.0169 
     62 H62        15.8902  -26.3369  -40.4181 H         1 UNK         0.0903 
     63 H63        16.3890  -24.7030  -39.9767 H         1 UNK         0.0903 
     64 H64        14.7461  -24.9997  -40.5525 H         1 UNK         0.0903 
     65 H65        16.6864  -26.9674  -42.4118 H         1 UNK         0.3096 
     66 H66        16.5003  -25.3657  -44.7776 H         1 UNK         0.1121 
     67 H67        17.4946  -27.2550  -45.9259 H         1 UNK         0.0849 
     68 H68        18.1798  -27.9091  -44.4642 H         1 UNK         0.0849 
     69 H69        15.3507  -30.4958  -45.7576 H         1 UNK         0.0865 
     70 H70        16.1973  -29.3962  -46.8105 H         1 UNK         0.0865 
     71 H71        16.6038  -31.8809  -44.0779 H         1 UNK         0.1346 
     72 H72        20.8010  -32.3872  -44.7835 H         1 UNK         0.1412 
     73 H73        18.6188  -29.3196  -46.8426 H         1 UNK         0.1426 
     74 H74        21.4262  -31.0962  -47.3147 H         1 UNK         0.0716 
     75 H75        21.9928  -30.4398  -45.7989 H         1 UNK         0.0716 
     76 H76        23.4636  -28.7373  -46.4083 H         1 UNK         0.0695 
     77 H77        23.1504  -27.3509  -47.3945 H         1 UNK         0.0695 
     78 H78        23.4355  -26.5230  -45.1920 H         1 UNK         0.0983 
     79 H79        20.5933  -26.4461  -46.0149 H         1 UNK         0.3095 
     80 H80        20.2176  -23.1161  -44.8457 H         1 UNK         0.0454 
     81 H81        21.1883  -22.8109  -47.1323 H         1 UNK         0.0851 
     82 H82        20.2298  -24.1576  -47.7293 H         1 UNK         0.0851 
     83 H83        19.4386  -22.6895  -47.1535 H         1 UNK         0.0851 
     84 H84        18.3123  -24.6772  -46.1426 H         1 UNK         0.2976 
     85 H85        20.5534  -26.9552  -43.5679 H         1 UNK         0.3116 
     86 H86        20.9068  -29.5424  -42.4129 H         1 UNK         0.0646 
     87 H87        19.2315  -28.7335  -40.7116 H         1 UNK         0.0847 
     88 H88        18.7004  -28.4791  -42.3567 H         1 UNK         0.0847 
     89 H89        19.3184  -27.1278  -41.3967 H         1 UNK         0.0847 
     90 H90        22.2740  -26.4115  -41.5689 H         1 UNK         0.3040 
     91 H91        23.2542  -27.1409  -38.9572 H         1 UNK         0.1015 
     92 H92        22.9456  -24.7713  -39.6464 H         1 UNK         0.0786 
     93 H93        24.1648  -24.9518  -40.9088 H         1 UNK         0.0786 
     94 H94        24.6216  -25.0639  -39.2145 H         1 UNK         0.0786 
     95 H95        24.4394  -27.6742  -42.2270 H         1 UNK         0.3172 
     96 H96        27.1567  -28.4434  -41.3561 H         1 UNK         0.0595 
     97 H97        27.5433  -28.7735  -43.7848 H         1 UNK         0.0839 
     98 H98        26.8997  -27.1695  -43.4761 H         1 UNK         0.0839 
     99 H99        25.8566  -28.4288  -44.1350 H         1 UNK         0.0839 
    100 H100       24.1899  -29.8978  -42.7519 H         1 UNK         0.2998 
    101 H101       25.1816  -32.6006  -42.7442 H         1 UNK         0.0822 
    102 H102       23.4496  -31.7940  -44.3253 H         1 UNK         0.0787 
    103 H103       22.8172  -33.1232  -43.3661 H         1 UNK         0.0787 
    104 H104       22.3433  -31.4712  -42.9901 H         1 UNK         0.0787 
    105 H105       23.8907  -30.6468  -40.2394 H         1 UNK         0.3055 
    106 H106       23.3530  -30.8990  -38.1179 H         1 UNK         0.1106 
    107 H107       24.3408  -33.7976  -38.2127 H         1 UNK         0.0828 
    108 H108       25.3588  -32.3940  -37.8906 H         1 UNK         0.0828 
    109 H109       24.0701  -32.8235  -36.7784 H         1 UNK         0.0828 
    110 H110       21.4308  -31.0612  -40.0301 H         1 UNK         0.2931 
    111 H111       19.4145  -33.0472  -39.1372 H         1 UNK         0.0412 
    112 H112       20.3491  -29.8359  -38.2407 H         1 UNK         0.3472 
    113 H113       18.8251  -29.4080  -37.5013 H         1 UNK         0.3472 
    114 H114       18.0292  -32.2058  -41.0247 H         1 UNK         0.0970 
    115 H115       19.2706  -31.0600  -41.4591 H         1 UNK         0.0970 
    116 H116       18.9961  -34.3486  -43.9800 H         1 UNK         0.0612 
    117 H117       17.7337  -33.6661  -42.9871 H         1 UNK         0.0612 
@<TRIPOS>BOND
     1    1    2 1    
     2    1   62 1    
     3    1   63 1    
     4    1   64 1    
     5    2    3 2    
     6    2    4 am   BACKBONE|DICT|INTERRES
     7    4    5 1    
     8    4   65 1    
     9    5    6 1    
    10    5   25 1    
    11    5   66 1    
    12    6    7 1    
    13    6   67 1    
    14    6   68 1    
    15    7    8 1    
    16    8    9 1    
    17    8   69 1    
    18    8   70 1    
    19    9   10 ar   
    20    9   14 ar   
    21   10   11 ar   
    22   10   71 1    
    23   11   12 ar   
    24   11   61 1    
    25   12   13 ar   
    26   12   72 1    
    27   13   14 ar   
    28   13   15 1    
    29   14   73 1    
    30   15   16 1    
    31   15   74 1    
    32   15   75 1    
    33   16   17 1    
    34   17   18 1    
    35   17   76 1    
    36   17   77 1    
    37   18   19 1    
    38   18   27 1    
    39   18   78 1    
    40   19   20 am   BACKBONE|DICT|INTERRES
    41   19   79 1    
    42   20   21 2    
    43   20   22 1    
    44   22   23 1    
    45   22   24 1    
    46   22   80 1    
    47   23   81 1    
    48   23   82 1    
    49   23   83 1    
    50   24   25 am   BACKBONE|DICT|INTERRES
    51   24   84 1    
    52   25   26 2    
    53   27   28 2    
    54   27   29 am   BACKBONE|DICT|INTERRES
    55   29   30 1    
    56   29   85 1    
    57   30   31 1    
    58   30   32 1    
    59   30   86 1    
    60   31   87 1    
    61   31   88 1    
    62   31   89 1    
    63   32   33 2    
    64   32   34 am   BACKBONE|DICT|INTERRES
    65   34   35 1    
    66   34   90 1    
    67   35   36 1    
    68   35   37 1    
    69   35   91 1    
    70   36   92 1    
    71   36   93 1    
    72   36   94 1    
    73   37   38 2    
    74   37   39 am   BACKBONE|DICT|INTERRES
    75   39   40 1    
    76   39   95 1    
    77   40   41 1    
    78   40   42 1    
    79   40   96 1    
    80   41   97 1    
    81   41   98 1    
    82   41   99 1    
    83   42   43 2    
    84   42   44 am   BACKBONE|DICT|INTERRES
    85   44   45 1    
    86   44  100 1    
    87   45   46 1    
    88   45   47 1    
    89   45  101 1    
    90   46  102 1    
    91   46  103 1    
    92   46  104 1    
    93   47   48 2    
    94   47   49 am   BACKBONE|DICT|INTERRES
    95   49   50 1    
    96   49  105 1    
    97   50   51 1    
    98   50   52 1    
    99   50  106 1    
   100   51  107 1    
   101   51  108 1    
   102   51  109 1    
   103   52   53 2    
   104   52   54 am   BACKBONE|DICT|INTERRES
   105   54   55 1    
   106   54  110 1    
   107   55   56 1    
   108   55   59 1    
   109   55  111 1    
   110   56   57 am   BACKBONE|DICT|INTERRES
   111   56   58 2    
   112   57  112 1    
   113   57  113 1    
   114   59   60 1    
   115   59  114 1    
   116   59  115 1    
   117   60   61 1    
   118   61  116 1    
   119   61  117 1    
@<TRIPOS>SUBSTRUCTURE
     1 UNK         1 GROUP             0       ****    0 ROOT    
