@<TRIPOS>MOLECULE
3R8
117   119    1
SMALL
USER_CHARGES


@<TRIPOS>ATOM
      1 CA         13.6360  -22.4464  -45.8968 C.3       0 UNK        -0.2013 
      2 C          14.2515  -23.7610  -46.3525 C.2       0 UNK         0.4866 
      3 O          13.7201  -24.4058  -47.2568 O.2       0 UNK        -0.5176 
      4 N          15.3674  -24.1620  -45.7366 N.am      1 UNK        -0.4884 
      5 CA         16.1295  -25.3686  -46.0526 C.3       1 UNK         0.0853 
      6 C6         15.4817  -26.6439  -45.4510 C.3       10 UNK        -0.0849 
      7 S7         15.9329  -28.1466  -46.3801 S.3       10 UNK        -0.2776 
      8 C8         15.5589  -29.4470  -45.1626 C.3       10 UNK         0.0316 
      9 C9         16.6077  -29.5217  -44.0618 C.ar      10 UNK        -0.0863 
     10 C10        17.8615  -30.0773  -44.3297 C.ar      10 UNK        -0.1009 
     11 C11        18.8217  -30.1827  -43.3202 C.ar      10 UNK        -0.0712 
     12 C12        18.5121  -29.7514  -42.0276 C.ar      10 UNK        -0.0894 
     13 C13        17.2756  -29.1562  -41.7541 C.ar      10 UNK        -0.0745 
     14 C14        16.3244  -29.0534  -42.7750 C.ar      10 UNK        -0.0972 
     15 C15        16.9570  -28.6189  -40.3615 C.3       10 UNK         0.0209 
     16 S16        18.2148  -27.4590  -39.7180 S.3       10 UNK        -0.2568 
     17 C17        18.3622  -26.2334  -41.0645 C.3       10 UNK        -0.0983 
     18 CA         19.6630  -26.4502  -41.8809 C.3       3 UNK         0.0876 
     19 N          19.4956  -26.0751  -43.2822 N.am      3 UNK        -0.4424 
     20 C          20.2394  -26.5445  -44.2896 C.2       2 UNK         0.4918 
     21 O          21.1296  -27.3839  -44.1386 O.2       2 UNK        -0.4875 
     22 CA         19.9305  -25.9871  -45.6963 C.3       2 UNK         0.0481 
     23 CB         20.7014  -26.7327  -46.8018 C.3       2 UNK        -0.1831 
     24 N          18.4996  -26.0064  -46.0240 N.am      2 UNK        -0.4498 
     25 C          17.5735  -25.1555  -45.5639 C.2       1 UNK         0.5027 
     26 O          17.8219  -24.2458  -44.7652 O.2       1 UNK        -0.4969 
     27 C          20.8813  -25.7377  -41.2625 C.2       3 UNK         0.5005 
     28 O          21.2581  -24.6524  -41.7123 O.2       3 UNK        -0.5279 
     29 N          21.4765  -26.3822  -40.2484 N.am      4 UNK        -0.4463 
     30 CA         22.6866  -25.9859  -39.5135 C.3       4 UNK         0.0283 
     31 CB         22.5056  -24.6192  -38.8190 C.3       4 UNK        -0.1875 
     32 C          23.9909  -26.0554  -40.3360 C.2       4 UNK         0.4949 
     33 O          25.0322  -25.6247  -39.8391 O.2       4 UNK        -0.5039 
     34 N          23.9388  -26.6236  -41.5508 N.am      5 UNK        -0.4663 
     35 CA         25.1079  -26.8926  -42.3948 C.3       5 UNK         0.0242 
     36 CB         24.6404  -27.2320  -43.8201 C.3       5 UNK        -0.1982 
     37 C          25.9830  -28.0223  -41.8238 C.2       5 UNK         0.5017 
     38 O          27.2097  -27.9219  -41.8559 O.2       5 UNK        -0.5012 
     39 N          25.3235  -29.0537  -41.2865 N.am      6 UNK        -0.4439 
     40 CA         25.8808  -30.1956  -40.5723 C.3       6 UNK         0.0297 
     41 CB         26.6443  -31.1292  -41.5303 C.3       6 UNK        -0.2006 
     42 C          24.7027  -30.9287  -39.9239 C.2       6 UNK         0.4892 
     43 O          23.5882  -30.8613  -40.4503 O.2       6 UNK        -0.5089 
     44 N          24.9643  -31.6372  -38.8181 N.am      7 UNK        -0.4243 
     45 CA         23.9571  -32.3879  -38.0553 C.3       7 UNK         0.0196 
     46 CB         24.5848  -32.8960  -36.7471 C.3       7 UNK        -0.2007 
     47 C          23.3226  -33.5548  -38.8350 C.2       7 UNK         0.5020 
     48 O          22.1629  -33.8866  -38.5903 O.2       7 UNK        -0.5147 
     49 N          24.0877  -34.1400  -39.7644 N.am      8 UNK        -0.4734 
     50 CA         23.6525  -35.2078  -40.6693 C.3       8 UNK         0.0238 
     51 CB         24.7553  -36.2816  -40.7188 C.3       8 UNK        -0.1912 
     52 C          23.3244  -34.6854  -42.0827 C.2       8 UNK         0.5038 
     53 O          23.1349  -35.5036  -42.9843 O.2       8 UNK        -0.5046 
     54 N          23.2817  -33.3554  -42.2596 N.am      9 UNK        -0.4200 
     55 CA         23.1458  -32.6382  -43.5396 C.3       9 UNK         0.0839 
     56 C          24.3831  -32.7952  -44.4757 C.2       9 UNK         0.5513 
     57 N          24.3836  -32.1324  -45.6250 N.am      9 UNK        -0.7519 
     58 O          25.3612  -33.4734  -44.1680 O.2       9 UNK        -0.4960 
     59 C59        21.8023  -32.9280  -44.2735 C.3       10 UNK        -0.0876 
     60 S60        20.3306  -32.5014  -43.2835 S.3       10 UNK        -0.2414 
     61 C61        20.2045  -30.7238  -43.6415 C.3       10 UNK         0.0169 
     62 H62        12.6195  -22.6117  -45.5406 H         1 UNK         0.0903 
     63 H63        14.2070  -21.9867  -45.0902 H         1 UNK         0.0903 
     64 H64        13.5959  -21.7426  -46.7278 H         1 UNK         0.0903 
     65 H65        15.8109  -23.5820  -45.0328 H         1 UNK         0.3096 
     66 H66        16.1662  -25.4544  -47.1415 H         1 UNK         0.1121 
     67 H67        15.7358  -26.7535  -44.3952 H         1 UNK         0.0849 
     68 H68        14.3936  -26.5715  -45.4870 H         1 UNK         0.0849 
     69 H69        14.5639  -29.2827  -44.7458 H         1 UNK         0.0865 
     70 H70        15.5145  -30.4076  -45.6780 H         1 UNK         0.0865 
     71 H71        18.0916  -30.4214  -45.3290 H         1 UNK         0.1346 
     72 H72        19.2506  -29.8420  -41.2427 H         1 UNK         0.1412 
     73 H73        15.3597  -28.6106  -42.5677 H         1 UNK         0.1426 
     74 H74        16.8682  -29.4591  -39.6718 H         1 UNK         0.0716 
     75 H75        15.9902  -28.1132  -40.3550 H         1 UNK         0.0716 
     76 H76        18.3116  -25.2264  -40.6454 H         1 UNK         0.0695 
     77 H77        17.4848  -26.3260  -41.7069 H         1 UNK         0.0695 
     78 H78        19.8977  -27.5145  -41.8842 H         1 UNK         0.0983 
     79 H79        18.8302  -25.3383  -43.4901 H         1 UNK         0.3095 
     80 H80        20.2688  -24.9490  -45.7035 H         1 UNK         0.0454 
     81 H81        20.4265  -27.7875  -46.8424 H         1 UNK         0.0851 
     82 H82        21.7777  -26.6830  -46.6311 H         1 UNK         0.0851 
     83 H83        20.5126  -26.2969  -47.7828 H         1 UNK         0.0851 
     84 H84        18.1888  -26.7671  -46.6134 H         1 UNK         0.2976 
     85 H85        21.0632  -27.2544  -39.9446 H         1 UNK         0.3116 
     86 H86        22.8023  -26.7318  -38.7257 H         1 UNK         0.0646 
     87 H87        22.4738  -23.7983  -39.5357 H         1 UNK         0.0847 
     88 H88        23.3311  -24.4158  -38.1358 H         1 UNK         0.0847 
     89 H89        21.5879  -24.5894  -38.2319 H         1 UNK         0.0847 
     90 H90        23.0410  -26.9219  -41.9038 H         1 UNK         0.3040 
     91 H91        25.7179  -25.9873  -42.4377 H         1 UNK         0.1015 
     92 H92        25.4919  -27.4190  -44.4759 H         1 UNK         0.0786 
     93 H93        24.0699  -26.4114  -44.2560 H         1 UNK         0.0786 
     94 H94        24.0101  -28.1223  -43.8411 H         1 UNK         0.0786 
     95 H95        24.3104  -29.0518  -41.3017 H         1 UNK         0.3172 
     96 H96        26.5507  -29.8313  -39.7908 H         1 UNK         0.0595 
     97 H97        27.0101  -32.0158  -41.0112 H         1 UNK         0.0839 
     98 H98        27.5121  -30.6348  -41.9664 H         1 UNK         0.0839 
     99 H99        26.0098  -31.4677  -42.3487 H         1 UNK         0.0839 
    100 H100       25.9072  -31.6453  -38.4548 H         1 UNK         0.2998 
    101 H101       23.1518  -31.6952  -37.8007 H         1 UNK         0.0822 
    102 H102       23.8516  -33.4367  -36.1467 H         1 UNK         0.0787 
    103 H103       25.4167  -33.5761  -36.9350 H         1 UNK         0.0787 
    104 H104       24.9545  -32.0717  -36.1369 H         1 UNK         0.0787 
    105 H105       25.0302  -33.7986  -39.8894 H         1 UNK         0.3055 
    106 H106       22.7417  -35.6755  -40.2885 H         1 UNK         0.1106 
    107 H107       24.4477  -37.1347  -41.3252 H         1 UNK         0.0828 
    108 H108       25.6786  -35.8921  -41.1495 H         1 UNK         0.0828 
    109 H109       24.9828  -36.6630  -39.7233 H         1 UNK         0.0828 
    110 H110       23.4191  -32.7597  -41.4531 H         1 UNK         0.2931 
    111 H111       23.1463  -31.5842  -43.2586 H         1 UNK         0.0412 
    112 H112       23.6148  -31.5392  -45.8937 H         1 UNK         0.3472 
    113 H113       25.1841  -32.2160  -46.2323 H         1 UNK         0.3472 
    114 H114       21.7417  -32.3861  -45.2178 H         1 UNK         0.0970 
    115 H115       21.7345  -33.9815  -44.5474 H         1 UNK         0.0970 
    116 H116       20.4323  -30.5357  -44.6917 H         1 UNK         0.0612 
    117 H117       20.9600  -30.1865  -43.0657 H         1 UNK         0.0612 
@<TRIPOS>BOND
     1    1    2 1    
     2    1   62 1    
     3    1   63 1    
     4    1   64 1    
     5    2    3 2    
     6    2    4 am   BACKBONE|DICT|INTERRES
     7    4    5 1    
     8    4   65 1    
     9    5    6 1    
    10    5   25 1    
    11    5   66 1    
    12    6    7 1    
    13    6   67 1    
    14    6   68 1    
    15    7    8 1    
    16    8    9 1    
    17    8   69 1    
    18    8   70 1    
    19    9   10 ar   
    20    9   14 ar   
    21   10   11 ar   
    22   10   71 1    
    23   11   12 ar   
    24   11   61 1    
    25   12   13 ar   
    26   12   72 1    
    27   13   14 ar   
    28   13   15 1    
    29   14   73 1    
    30   15   16 1    
    31   15   74 1    
    32   15   75 1    
    33   16   17 1    
    34   17   18 1    
    35   17   76 1    
    36   17   77 1    
    37   18   19 1    
    38   18   27 1    
    39   18   78 1    
    40   19   20 am   BACKBONE|DICT|INTERRES
    41   19   79 1    
    42   20   21 2    
    43   20   22 1    
    44   22   23 1    
    45   22   24 1    
    46   22   80 1    
    47   23   81 1    
    48   23   82 1    
    49   23   83 1    
    50   24   25 am   BACKBONE|DICT|INTERRES
    51   24   84 1    
    52   25   26 2    
    53   27   28 2    
    54   27   29 am   BACKBONE|DICT|INTERRES
    55   29   30 1    
    56   29   85 1    
    57   30   31 1    
    58   30   32 1    
    59   30   86 1    
    60   31   87 1    
    61   31   88 1    
    62   31   89 1    
    63   32   33 2    
    64   32   34 am   BACKBONE|DICT|INTERRES
    65   34   35 1    
    66   34   90 1    
    67   35   36 1    
    68   35   37 1    
    69   35   91 1    
    70   36   92 1    
    71   36   93 1    
    72   36   94 1    
    73   37   38 2    
    74   37   39 am   BACKBONE|DICT|INTERRES
    75   39   40 1    
    76   39   95 1    
    77   40   41 1    
    78   40   42 1    
    79   40   96 1    
    80   41   97 1    
    81   41   98 1    
    82   41   99 1    
    83   42   43 2    
    84   42   44 am   BACKBONE|DICT|INTERRES
    85   44   45 1    
    86   44  100 1    
    87   45   46 1    
    88   45   47 1    
    89   45  101 1    
    90   46  102 1    
    91   46  103 1    
    92   46  104 1    
    93   47   48 2    
    94   47   49 am   BACKBONE|DICT|INTERRES
    95   49   50 1    
    96   49  105 1    
    97   50   51 1    
    98   50   52 1    
    99   50  106 1    
   100   51  107 1    
   101   51  108 1    
   102   51  109 1    
   103   52   53 2    
   104   52   54 am   BACKBONE|DICT|INTERRES
   105   54   55 1    
   106   54  110 1    
   107   55   56 1    
   108   55   59 1    
   109   55  111 1    
   110   56   57 am   BACKBONE|DICT|INTERRES
   111   56   58 2    
   112   57  112 1    
   113   57  113 1    
   114   59   60 1    
   115   59  114 1    
   116   59  115 1    
   117   60   61 1    
   118   61  116 1    
   119   61  117 1    
@<TRIPOS>SUBSTRUCTURE
     1 UNK         1 GROUP             0       ****    0 ROOT    
