@<TRIPOS>MOLECULE
3R8
117   119    1
SMALL
USER_CHARGES


@<TRIPOS>ATOM
      1 CA         17.7822  -21.1708  -45.5774 C.3       0 UNK        -0.2013 
      2 C          18.5454  -22.2276  -44.7933 C.2       0 UNK         0.4866 
      3 O          19.0675  -21.9347  -43.7176 O.2       0 UNK        -0.5176 
      4 N          18.6155  -23.4556  -45.3231 N.am      1 UNK        -0.4884 
      5 CA         19.2921  -24.6016  -44.7005 C.3       1 UNK         0.0853 
      6 C6         19.6059  -25.7108  -45.7393 C.3       10 UNK        -0.0849 
      7 S7         18.1265  -26.3547  -46.6052 S.3       10 UNK        -0.2776 
      8 C8         18.7373  -27.9212  -47.3073 C.3       10 UNK         0.0316 
      9 C9         19.0067  -28.9755  -46.2412 C.ar      10 UNK        -0.0863 
     10 C10        20.3188  -29.2585  -45.8521 C.ar      10 UNK        -0.1009 
     11 C11        20.5784  -30.2305  -44.8834 C.ar      10 UNK        -0.0712 
     12 C12        19.5132  -30.9290  -44.3090 C.ar      10 UNK        -0.0894 
     13 C13        18.1936  -30.6711  -44.6985 C.ar      10 UNK        -0.0745 
     14 C14        17.9493  -29.6871  -45.6635 C.ar      10 UNK        -0.0972 
     15 C15        17.0308  -31.4664  -44.1053 C.3       10 UNK         0.0209 
     16 S16        17.1607  -31.7363  -42.3019 S.3       10 UNK        -0.2568 
     17 C17        16.5098  -30.1731  -41.6255 C.3       10 UNK        -0.0983 
     18 CA         17.5312  -29.0066  -41.6874 C.3       3 UNK         0.0876 
     19 N          16.9046  -27.6938  -41.6027 N.am      3 UNK        -0.4424 
     20 C          16.3080  -27.0737  -42.6219 C.2       2 UNK         0.4918 
     21 O          15.9222  -27.6359  -43.6471 O.2       2 UNK        -0.4875 
     22 CA         16.2229  -25.5393  -42.5299 C.3       2 UNK         0.0481 
     23 CB         16.3903  -24.9688  -41.1025 C.3       2 UNK        -0.1831 
     24 N          17.2048  -24.9438  -43.4427 N.am      2 UNK        -0.4498 
     25 C          18.5296  -25.1787  -43.4878 C.2       1 UNK         0.5027 
     26 O          19.1478  -25.8452  -42.6508 O.2       1 UNK        -0.4969 
     27 C          18.6622  -29.0424  -40.6431 C.2       3 UNK         0.5005 
     28 O          18.7167  -29.9499  -39.8121 O.2       3 UNK        -0.5279 
     29 N          19.5048  -27.9968  -40.6568 N.am      4 UNK        -0.4463 
     30 CA         20.5438  -27.7574  -39.6507 C.3       4 UNK         0.0283 
     31 CB         19.9967  -26.7844  -38.5894 C.3       4 UNK        -0.1875 
     32 C          21.8646  -27.2463  -40.2500 C.2       4 UNK         0.4949 
     33 O          22.7854  -26.9549  -39.4863 O.2       4 UNK        -0.5039 
     34 N          21.9544  -27.1330  -41.5831 N.am      5 UNK        -0.4663 
     35 CA         23.1676  -26.7130  -42.2895 C.3       5 UNK         0.0242 
     36 CB         22.8238  -26.4217  -43.7582 C.3       5 UNK        -0.1982 
     37 C          24.2787  -27.7716  -42.1934 C.2       5 UNK         0.5017 
     38 O          23.9829  -28.9669  -42.2590 O.2       5 UNK        -0.5012 
     39 N          25.5324  -27.3139  -42.0628 N.am      6 UNK        -0.4439 
     40 CA         26.7484  -28.1244  -41.9205 C.3       6 UNK         0.0297 
     41 CB         27.0857  -28.8288  -43.2563 C.3       6 UNK        -0.2006 
     42 C          26.6554  -29.0713  -40.7051 C.2       6 UNK         0.4892 
     43 O          26.5184  -28.5882  -39.5806 O.2       6 UNK        -0.5089 
     44 N          26.7053  -30.3869  -40.9487 N.am      7 UNK        -0.4243 
     45 CA         26.5449  -31.4454  -39.9469 C.3       7 UNK         0.0196 
     46 CB         27.4596  -32.6227  -40.3337 C.3       7 UNK        -0.2007 
     47 C          25.0787  -31.9026  -39.7874 C.2       7 UNK         0.5020 
     48 O          24.8456  -32.9756  -39.2306 O.2       7 UNK        -0.5147 
     49 N          24.1209  -31.1217  -40.3126 N.am      8 UNK        -0.4734 
     50 CA         22.6772  -31.3937  -40.3924 C.3       8 UNK         0.0238 
     51 CB         22.0474  -31.5804  -38.9960 C.3       8 UNK        -0.1912 
     52 C          22.3186  -32.5296  -41.3719 C.2       8 UNK         0.5038 
     53 O          21.1950  -33.0312  -41.3325 O.2       8 UNK        -0.5046 
     54 N          23.2618  -32.8760  -42.2619 N.am      9 UNK        -0.4200 
     55 CA         23.1319  -33.8574  -43.3526 C.3       9 UNK         0.0839 
     56 C          22.8489  -35.3187  -42.8840 C.2       9 UNK         0.5513 
     57 N          23.1618  -35.6826  -41.6457 N.am      9 UNK        -0.7519 
     58 O          22.3748  -36.1467  -43.6580 O.2       9 UNK        -0.4960 
     59 C59        22.1710  -33.3676  -44.4761 C.3       10 UNK        -0.0876 
     60 S60        22.7912  -31.8748  -45.3334 S.3       10 UNK        -0.2414 
     61 C61        22.0076  -30.4952  -44.4371 C.3       10 UNK         0.0169 
     62 H62        18.4401  -20.3372  -45.8216 H         1 UNK         0.0903 
     63 H63        17.3769  -21.5664  -46.5086 H         1 UNK         0.0903 
     64 H64        16.9535  -20.7878  -44.9825 H         1 UNK         0.0903 
     65 H65        18.1726  -23.6478  -46.2118 H         1 UNK         0.3096 
     66 H66        20.2444  -24.2392  -44.3081 H         1 UNK         0.1121 
     67 H67        20.1284  -26.5359  -45.2542 H         1 UNK         0.0849 
     68 H68        20.2978  -25.3255  -46.4898 H         1 UNK         0.0849 
     69 H69        19.6346  -27.7267  -47.8970 H         1 UNK         0.0865 
     70 H70        17.9942  -28.3034  -48.0087 H         1 UNK         0.0865 
     71 H71        21.1412  -28.7168  -46.2993 H         1 UNK         0.1346 
     72 H72        19.7081  -31.6714  -43.5484 H         1 UNK         0.1412 
     73 H73        16.9339  -29.4709  -45.9678 H         1 UNK         0.1426 
     74 H74        17.0037  -32.4400  -44.5959 H         1 UNK         0.0716 
     75 H75        16.0771  -30.9848  -44.3273 H         1 UNK         0.0716 
     76 H76        16.1740  -30.3412  -40.6009 H         1 UNK         0.0695 
     77 H77        15.6100  -29.9241  -42.1892 H         1 UNK         0.0695 
     78 H78        18.0370  -29.0402  -42.6522 H         1 UNK         0.0983 
     79 H79        17.1675  -27.1451  -40.7963 H         1 UNK         0.3095 
     80 H80        15.2338  -25.2554  -42.8921 H         1 UNK         0.0454 
     81 H81        17.3862  -25.1403  -40.6927 H         1 UNK         0.0851 
     82 H82        15.6646  -25.4062  -40.4155 H         1 UNK         0.0851 
     83 H83        16.2218  -23.8920  -41.0966 H         1 UNK         0.0851 
     84 H84        16.8176  -24.4097  -44.2076 H         1 UNK         0.2976 
     85 H85        19.3834  -27.2699  -41.3606 H         1 UNK         0.3116 
     86 H86        20.7970  -28.6957  -39.1530 H         1 UNK         0.0646 
     87 H87        19.1040  -27.1834  -38.1078 H         1 UNK         0.0847 
     88 H88        19.7407  -25.8182  -39.0256 H         1 UNK         0.0847 
     89 H89        20.7303  -26.6038  -37.8026 H         1 UNK         0.0847 
     90 H90        21.1702  -27.4084  -42.1541 H         1 UNK         0.3040 
     91 H91        23.5239  -25.7893  -41.8278 H         1 UNK         0.1015 
     92 H92        23.7145  -26.1445  -44.3238 H         1 UNK         0.0786 
     93 H93        22.1229  -25.5925  -43.8371 H         1 UNK         0.0786 
     94 H94        22.3801  -27.2866  -44.2507 H         1 UNK         0.0786 
     95 H95        25.6697  -26.3151  -41.9902 H         1 UNK         0.3172 
     96 H96        27.5610  -27.4300  -41.7016 H         1 UNK         0.0595 
     97 H97        26.3079  -29.5266  -43.5691 H         1 UNK         0.0839 
     98 H98        28.0247  -29.3798  -43.1883 H         1 UNK         0.0839 
     99 H99        27.2072  -28.1002  -44.0580 H         1 UNK         0.0839 
    100 H100       26.8017  -30.6862  -41.9085 H         1 UNK         0.2998 
    101 H101       26.8686  -31.0748  -38.9720 H         1 UNK         0.0822 
    102 H102       28.4969  -32.3025  -40.4337 H         1 UNK         0.0787 
    103 H103       27.4395  -33.4044  -39.5730 H         1 UNK         0.0787 
    104 H104       27.1558  -33.0779  -41.2771 H         1 UNK         0.0787 
    105 H105       24.4074  -30.2757  -40.7977 H         1 UNK         0.3055 
    106 H106       22.2327  -30.4947  -40.8223 H         1 UNK         0.1106 
    107 H107       22.3529  -32.5180  -38.5316 H         1 UNK         0.0828 
    108 H108       20.9584  -31.5935  -39.0610 H         1 UNK         0.0828 
    109 H109       22.3195  -30.7657  -38.3253 H         1 UNK         0.0828 
    110 H110       24.1491  -32.3998  -42.2077 H         1 UNK         0.2931 
    111 H111       24.1270  -33.9184  -43.7948 H         1 UNK         0.0412 
    112 H112       23.5558  -35.0143  -41.0011 H         1 UNK         0.3472 
    113 H113       22.9885  -36.6303  -41.3495 H         1 UNK         0.3472 
    114 H114       22.0656  -34.1342  -45.2454 H         1 UNK         0.0970 
    115 H115       21.1675  -33.2088  -44.0877 H         1 UNK         0.0970 
    116 H116       22.0357  -30.6619  -43.3639 H         1 UNK         0.0612 
    117 H117       22.6152  -29.6064  -44.6079 H         1 UNK         0.0612 
@<TRIPOS>BOND
     1    1    2 1    
     2    1   62 1    
     3    1   63 1    
     4    1   64 1    
     5    2    3 2    
     6    2    4 am   BACKBONE|DICT|INTERRES
     7    4    5 1    
     8    4   65 1    
     9    5    6 1    
    10    5   25 1    
    11    5   66 1    
    12    6    7 1    
    13    6   67 1    
    14    6   68 1    
    15    7    8 1    
    16    8    9 1    
    17    8   69 1    
    18    8   70 1    
    19    9   10 ar   
    20    9   14 ar   
    21   10   11 ar   
    22   10   71 1    
    23   11   12 ar   
    24   11   61 1    
    25   12   13 ar   
    26   12   72 1    
    27   13   14 ar   
    28   13   15 1    
    29   14   73 1    
    30   15   16 1    
    31   15   74 1    
    32   15   75 1    
    33   16   17 1    
    34   17   18 1    
    35   17   76 1    
    36   17   77 1    
    37   18   19 1    
    38   18   27 1    
    39   18   78 1    
    40   19   20 am   BACKBONE|DICT|INTERRES
    41   19   79 1    
    42   20   21 2    
    43   20   22 1    
    44   22   23 1    
    45   22   24 1    
    46   22   80 1    
    47   23   81 1    
    48   23   82 1    
    49   23   83 1    
    50   24   25 am   BACKBONE|DICT|INTERRES
    51   24   84 1    
    52   25   26 2    
    53   27   28 2    
    54   27   29 am   BACKBONE|DICT|INTERRES
    55   29   30 1    
    56   29   85 1    
    57   30   31 1    
    58   30   32 1    
    59   30   86 1    
    60   31   87 1    
    61   31   88 1    
    62   31   89 1    
    63   32   33 2    
    64   32   34 am   BACKBONE|DICT|INTERRES
    65   34   35 1    
    66   34   90 1    
    67   35   36 1    
    68   35   37 1    
    69   35   91 1    
    70   36   92 1    
    71   36   93 1    
    72   36   94 1    
    73   37   38 2    
    74   37   39 am   BACKBONE|DICT|INTERRES
    75   39   40 1    
    76   39   95 1    
    77   40   41 1    
    78   40   42 1    
    79   40   96 1    
    80   41   97 1    
    81   41   98 1    
    82   41   99 1    
    83   42   43 2    
    84   42   44 am   BACKBONE|DICT|INTERRES
    85   44   45 1    
    86   44  100 1    
    87   45   46 1    
    88   45   47 1    
    89   45  101 1    
    90   46  102 1    
    91   46  103 1    
    92   46  104 1    
    93   47   48 2    
    94   47   49 am   BACKBONE|DICT|INTERRES
    95   49   50 1    
    96   49  105 1    
    97   50   51 1    
    98   50   52 1    
    99   50  106 1    
   100   51  107 1    
   101   51  108 1    
   102   51  109 1    
   103   52   53 2    
   104   52   54 am   BACKBONE|DICT|INTERRES
   105   54   55 1    
   106   54  110 1    
   107   55   56 1    
   108   55   59 1    
   109   55  111 1    
   110   56   57 am   BACKBONE|DICT|INTERRES
   111   56   58 2    
   112   57  112 1    
   113   57  113 1    
   114   59   60 1    
   115   59  114 1    
   116   59  115 1    
   117   60   61 1    
   118   61  116 1    
   119   61  117 1    
@<TRIPOS>SUBSTRUCTURE
     1 UNK         1 GROUP             0       ****    0 ROOT    
