@<TRIPOS>MOLECULE
3R8
117   119    1
SMALL
USER_CHARGES


@<TRIPOS>ATOM
      1 CA         15.2799  -25.2455  -46.2008 C.3       0 UNK        -0.2013 
      2 C          16.6742  -25.1454  -46.8011 C.2       0 UNK         0.4866 
      3 O          17.1068  -24.0449  -47.1436 O.2       0 UNK        -0.5176 
      4 N          17.3734  -26.2802  -46.9513 N.am      1 UNK        -0.4884 
      5 CA         18.7152  -26.3562  -47.5419 C.3       1 UNK         0.0853 
      6 C6         19.0838  -27.8014  -47.9828 C.3       10 UNK        -0.0849 
      7 S7         19.3309  -29.0118  -46.6295 S.3       10 UNK        -0.2776 
      8 C8         17.7294  -29.8714  -46.5201 C.3       10 UNK         0.0316 
      9 C9         17.2564  -29.9148  -45.0745 C.ar      10 UNK        -0.0863 
     10 C10        17.7599  -30.8776  -44.1953 C.ar      10 UNK        -0.1009 
     11 C11        17.3611  -30.8941  -42.8546 C.ar      10 UNK        -0.0712 
     12 C12        16.4477  -29.9415  -42.3929 C.ar      10 UNK        -0.0894 
     13 C13        15.9438  -28.9697  -43.2630 C.ar      10 UNK        -0.0745 
     14 C14        16.3379  -28.9742  -44.6037 C.ar      10 UNK        -0.0972 
     15 C15        14.9953  -27.8921  -42.7615 C.3       10 UNK         0.0209 
     16 S16        15.8142  -26.2649  -42.7139 S.3       10 UNK        -0.2568 
     17 C17        16.8615  -26.4040  -41.2274 C.3       10 UNK        -0.0983 
     18 CA         18.2946  -26.9224  -41.5127 C.3       3 UNK         0.0876 
     19 N          18.9873  -26.1507  -42.5496 N.am      3 UNK        -0.4424 
     20 C          20.2069  -26.4310  -43.0292 C.2       2 UNK         0.4918 
     21 O          20.9256  -27.3302  -42.5902 O.2       2 UNK        -0.4875 
     22 CA         20.6424  -25.6319  -44.2657 C.3       2 UNK         0.0481 
     23 CB         22.1290  -25.8797  -44.6130 C.3       2 UNK        -0.1831 
     24 N          19.7511  -26.0446  -45.3493 N.am      2 UNK        -0.4498 
     25 C          19.7876  -25.7004  -46.6430 C.2       1 UNK         0.5027 
     26 O          20.5854  -24.8989  -47.1316 O.2       1 UNK        -0.4969 
     27 C          19.1054  -26.9992  -40.2037 C.2       3 UNK         0.5005 
     28 O          19.3659  -25.9614  -39.5901 O.2       3 UNK        -0.5279 
     29 N          19.4817  -28.2264  -39.8152 N.am      4 UNK        -0.4463 
     30 CA         20.2478  -28.5858  -38.6163 C.3       4 UNK         0.0283 
     31 CB         19.4519  -28.2571  -37.3346 C.3       4 UNK        -0.1875 
     32 C          21.6870  -28.0292  -38.5801 C.2       4 UNK         0.4949 
     33 O          22.2723  -27.9508  -37.4981 O.2       4 UNK        -0.5039 
     34 N          22.2545  -27.6780  -39.7439 N.am      5 UNK        -0.4663 
     35 CA         23.6687  -27.3187  -39.8833 C.3       5 UNK         0.0242 
     36 CB         23.8869  -26.6356  -41.2417 C.3       5 UNK        -0.1982 
     37 C          24.5640  -28.5625  -39.7596 C.2       5 UNK         0.5017 
     38 O          24.1338  -29.6588  -40.1189 O.2       5 UNK        -0.5012 
     39 N          25.8073  -28.3713  -39.2976 N.am      6 UNK        -0.4439 
     40 CA         26.7868  -29.4429  -39.0638 C.3       6 UNK         0.0297 
     41 CB         28.0300  -28.8516  -38.3792 C.3       6 UNK        -0.2006 
     42 C          27.1943  -30.2322  -40.3242 C.2       6 UNK         0.4892 
     43 O          27.5883  -31.3928  -40.2059 O.2       6 UNK        -0.5089 
     44 N          27.0898  -29.5947  -41.4968 N.am      7 UNK        -0.4243 
     45 CA         27.3650  -30.1892  -42.8063 C.3       7 UNK         0.0196 
     46 CB         27.9651  -29.1008  -43.7145 C.3       7 UNK        -0.2007 
     47 C          26.1188  -30.8159  -43.4640 C.2       7 UNK         0.5020 
     48 O          26.2424  -31.3520  -44.5661 O.2       7 UNK        -0.5147 
     49 N          24.9478  -30.7212  -42.8214 N.am      8 UNK        -0.4734 
     50 CA         23.6587  -31.1758  -43.3433 C.3       8 UNK         0.0238 
     51 CB         22.7388  -29.9469  -43.4741 C.3       8 UNK        -0.1912 
     52 C          23.0315  -32.2246  -42.4116 C.2       8 UNK         0.5038 
     53 O          23.5696  -32.5119  -41.3392 O.2       8 UNK        -0.5046 
     54 N          21.8802  -32.7545  -42.8431 N.am      9 UNK        -0.4200 
     55 CA         21.0023  -33.6638  -42.0885 C.3       9 UNK         0.0839 
     56 C          21.6606  -35.0422  -41.7716 C.2       9 UNK         0.5513 
     57 N          21.1724  -35.7789  -40.7815 N.am      9 UNK        -0.7519 
     58 O          22.5791  -35.4857  -42.4588 O.2       9 UNK        -0.4960 
     59 C59        20.3358  -32.9704  -40.8577 C.3       10 UNK        -0.0876 
     60 S60        19.5515  -31.3724  -41.2711 S.3       10 UNK        -0.2414 
     61 C61        17.9425  -31.9289  -41.9072 C.3       10 UNK         0.0169 
     62 H62        15.2329  -24.6835  -45.2687 H         1 UNK         0.0903 
     63 H63        14.5472  -24.8220  -46.8872 H         1 UNK         0.0903 
     64 H64        14.9887  -26.2736  -45.9940 H         1 UNK         0.0903 
     65 H65        16.9752  -27.1581  -46.6581 H         1 UNK         0.3096 
     66 H66        18.6854  -25.7554  -48.4545 H         1 UNK         0.1121 
     67 H67        20.0093  -27.7732  -48.5609 H         1 UNK         0.0849 
     68 H68        18.3322  -28.1815  -48.6764 H         1 UNK         0.0849 
     69 H69        16.9826  -29.3869  -47.1502 H         1 UNK         0.0865 
     70 H70        17.8402  -30.8855  -46.9074 H         1 UNK         0.0865 
     71 H71        18.4814  -31.6015  -44.5491 H         1 UNK         0.1346 
     72 H72        16.1491  -29.9429  -41.3534 H         1 UNK         0.1412 
     73 H73        15.9408  -28.2262  -45.2715 H         1 UNK         0.1426 
     74 H74        14.5989  -28.1388  -41.7754 H         1 UNK         0.0716 
     75 H75        14.1356  -27.8334  -43.4305 H         1 UNK         0.0716 
     76 H76        16.3597  -27.0479  -40.5025 H         1 UNK         0.0695 
     77 H77        16.9031  -25.4139  -40.7692 H         1 UNK         0.0695 
     78 H78        18.2104  -27.9342  -41.9102 H         1 UNK         0.0983 
     79 H79        18.4584  -25.3953  -42.9599 H         1 UNK         0.3095 
     80 H80        20.4908  -24.5701  -44.0651 H         1 UNK         0.0454 
     81 H81        22.3070  -26.9155  -44.9040 H         1 UNK         0.0851 
     82 H82        22.7690  -25.6643  -43.7583 H         1 UNK         0.0851 
     83 H83        22.4732  -25.2393  -45.4237 H         1 UNK         0.0851 
     84 H84        19.0569  -26.7305  -45.0824 H         1 UNK         0.2976 
     85 H85        19.2625  -29.0066  -40.4225 H         1 UNK         0.3116 
     86 H86        20.3597  -29.6703  -38.6566 H         1 UNK         0.0646 
     87 H87        19.3601  -27.1819  -37.1792 H         1 UNK         0.0847 
     88 H88        19.9414  -28.6702  -36.4519 H         1 UNK         0.0847 
     89 H89        18.4477  -28.6790  -37.3708 H         1 UNK         0.0847 
     90 H90        21.7216  -27.7736  -40.6010 H         1 UNK         0.3040 
     91 H91        23.9276  -26.6147  -39.0891 H         1 UNK         0.1015 
     92 H92        23.2495  -25.7576  -41.3463 H         1 UNK         0.0786 
     93 H93        23.6692  -27.3099  -42.0710 H         1 UNK         0.0786 
     94 H94        24.9189  -26.3016  -41.3547 H         1 UNK         0.0786 
     95 H95        26.0920  -27.4365  -39.0402 H         1 UNK         0.3172 
     96 H96        26.3285  -30.1560  -38.3751 H         1 UNK         0.0595 
     97 H97        28.5202  -28.1049  -39.0055 H         1 UNK         0.0839 
     98 H98        28.7651  -29.6292  -38.1658 H         1 UNK         0.0839 
     99 H99        27.7766  -28.3815  -37.4288 H         1 UNK         0.0839 
    100 H100       26.7522  -28.6434  -41.4928 H         1 UNK         0.2998 
    101 H101       28.1054  -30.9847  -42.6976 H         1 UNK         0.0822 
    102 H102       28.8696  -28.6753  -43.2793 H         1 UNK         0.0787 
    103 H103       28.2395  -29.5087  -44.6884 H         1 UNK         0.0787 
    104 H104       27.2603  -28.2869  -43.8892 H         1 UNK         0.0787 
    105 H105       24.9212  -30.3714  -41.8679 H         1 UNK         0.3055 
    106 H106       23.7793  -31.6358  -44.3266 H         1 UNK         0.1106 
    107 H107       21.7865  -30.1995  -43.9419 H         1 UNK         0.0828 
    108 H108       22.5125  -29.5155  -42.4980 H         1 UNK         0.0828 
    109 H109       23.1966  -29.1685  -44.0840 H         1 UNK         0.0828 
    110 H110       21.5345  -32.4812  -43.7505 H         1 UNK         0.2931 
    111 H111       20.2027  -33.9089  -42.7878 H         1 UNK         0.0412 
    112 H112       20.4022  -35.4591  -40.2164 H         1 UNK         0.3472 
    113 H113       21.5868  -36.6793  -40.5956 H         1 UNK         0.3472 
    114 H114       19.5776  -33.6124  -40.4075 H         1 UNK         0.0970 
    115 H115       21.0804  -32.7883  -40.0808 H         1 UNK         0.0970 
    116 H116       17.2668  -32.1150  -41.0710 H         1 UNK         0.0612 
    117 H117       18.0536  -32.8778  -42.4333 H         1 UNK         0.0612 
@<TRIPOS>BOND
     1    1    2 1    
     2    1   62 1    
     3    1   63 1    
     4    1   64 1    
     5    2    3 2    
     6    2    4 am   BACKBONE|DICT|INTERRES
     7    4    5 1    
     8    4   65 1    
     9    5    6 1    
    10    5   25 1    
    11    5   66 1    
    12    6    7 1    
    13    6   67 1    
    14    6   68 1    
    15    7    8 1    
    16    8    9 1    
    17    8   69 1    
    18    8   70 1    
    19    9   10 ar   
    20    9   14 ar   
    21   10   11 ar   
    22   10   71 1    
    23   11   12 ar   
    24   11   61 1    
    25   12   13 ar   
    26   12   72 1    
    27   13   14 ar   
    28   13   15 1    
    29   14   73 1    
    30   15   16 1    
    31   15   74 1    
    32   15   75 1    
    33   16   17 1    
    34   17   18 1    
    35   17   76 1    
    36   17   77 1    
    37   18   19 1    
    38   18   27 1    
    39   18   78 1    
    40   19   20 am   BACKBONE|DICT|INTERRES
    41   19   79 1    
    42   20   21 2    
    43   20   22 1    
    44   22   23 1    
    45   22   24 1    
    46   22   80 1    
    47   23   81 1    
    48   23   82 1    
    49   23   83 1    
    50   24   25 am   BACKBONE|DICT|INTERRES
    51   24   84 1    
    52   25   26 2    
    53   27   28 2    
    54   27   29 am   BACKBONE|DICT|INTERRES
    55   29   30 1    
    56   29   85 1    
    57   30   31 1    
    58   30   32 1    
    59   30   86 1    
    60   31   87 1    
    61   31   88 1    
    62   31   89 1    
    63   32   33 2    
    64   32   34 am   BACKBONE|DICT|INTERRES
    65   34   35 1    
    66   34   90 1    
    67   35   36 1    
    68   35   37 1    
    69   35   91 1    
    70   36   92 1    
    71   36   93 1    
    72   36   94 1    
    73   37   38 2    
    74   37   39 am   BACKBONE|DICT|INTERRES
    75   39   40 1    
    76   39   95 1    
    77   40   41 1    
    78   40   42 1    
    79   40   96 1    
    80   41   97 1    
    81   41   98 1    
    82   41   99 1    
    83   42   43 2    
    84   42   44 am   BACKBONE|DICT|INTERRES
    85   44   45 1    
    86   44  100 1    
    87   45   46 1    
    88   45   47 1    
    89   45  101 1    
    90   46  102 1    
    91   46  103 1    
    92   46  104 1    
    93   47   48 2    
    94   47   49 am   BACKBONE|DICT|INTERRES
    95   49   50 1    
    96   49  105 1    
    97   50   51 1    
    98   50   52 1    
    99   50  106 1    
   100   51  107 1    
   101   51  108 1    
   102   51  109 1    
   103   52   53 2    
   104   52   54 am   BACKBONE|DICT|INTERRES
   105   54   55 1    
   106   54  110 1    
   107   55   56 1    
   108   55   59 1    
   109   55  111 1    
   110   56   57 am   BACKBONE|DICT|INTERRES
   111   56   58 2    
   112   57  112 1    
   113   57  113 1    
   114   59   60 1    
   115   59  114 1    
   116   59  115 1    
   117   60   61 1    
   118   61  116 1    
   119   61  117 1    
@<TRIPOS>SUBSTRUCTURE
     1 UNK         1 GROUP             0       ****    0 ROOT    
