@<TRIPOS>MOLECULE
3R8
117   119    1
SMALL
USER_CHARGES


@<TRIPOS>ATOM
      1 CA         16.4326  -23.4189  -49.1324 C.3       0 UNK        -0.2013 
      2 C          17.5253  -24.2590  -48.4879 C.2       0 UNK         0.4866 
      3 O          18.7086  -23.9823  -48.6882 O.2       0 UNK        -0.5176 
      4 N          17.1397  -25.2879  -47.7226 N.am      1 UNK        -0.4884 
      5 CA         18.0535  -26.1544  -46.9709 C.3       1 UNK         0.0853 
      6 C6         17.3597  -27.4796  -46.5734 C.3       10 UNK        -0.0849 
      7 S7         18.5584  -28.8108  -46.2273 S.3       10 UNK        -0.2776 
      8 C8         17.4554  -30.2299  -45.9482 C.3       10 UNK         0.0316 
      9 C9         17.2143  -30.4828  -44.4664 C.ar      10 UNK        -0.0863 
     10 C10        17.7915  -31.5931  -43.8417 C.ar      10 UNK        -0.1009 
     11 C11        17.5213  -31.8743  -42.4988 C.ar      10 UNK        -0.0712 
     12 C12        16.6887  -31.0183  -41.7721 C.ar      10 UNK        -0.0894 
     13 C13        16.1318  -29.8874  -42.3766 C.ar      10 UNK        -0.0745 
     14 C14        16.3851  -29.6341  -43.7271 C.ar      10 UNK        -0.0972 
     15 C15        15.2493  -28.9454  -41.5718 C.3       10 UNK         0.0209 
     16 S16        16.2053  -28.0198  -40.3287 S.3       10 UNK        -0.2568 
     17 C17        17.2685  -26.9470  -41.3588 C.3       10 UNK        -0.0983 
     18 CA         18.7025  -27.5129  -41.5680 C.3       3 UNK         0.0876 
     19 N          19.3640  -26.9092  -42.7346 N.am      3 UNK        -0.4424 
     20 C          19.8386  -25.6545  -42.8199 C.2       2 UNK         0.4918 
     21 O          19.7676  -24.8189  -41.9189 O.2       2 UNK        -0.4875 
     22 CA         20.5169  -25.2620  -44.1440 C.3       2 UNK         0.0481 
     23 CB         21.9837  -25.7212  -44.1488 C.3       2 UNK        -0.1831 
     24 N          19.8339  -25.7950  -45.3246 N.am      2 UNK        -0.4498 
     25 C          18.6121  -25.4230  -45.7316 C.2       1 UNK         0.5027 
     26 O          17.9257  -24.5721  -45.1587 O.2       1 UNK        -0.4969 
     27 C          19.6025  -27.4595  -40.3059 C.2       3 UNK         0.5005 
     28 O          19.1674  -27.0186  -39.2396 O.2       3 UNK        -0.5279 
     29 N          20.8657  -27.8774  -40.4635 N.am      4 UNK        -0.4463 
     30 CA         21.8780  -27.8990  -39.4117 C.3       4 UNK         0.0283 
     31 CB         22.7529  -26.6378  -39.5071 C.3       4 UNK        -0.1875 
     32 C          22.7250  -29.1610  -39.5729 C.2       4 UNK         0.4949 
     33 O          23.0323  -29.5445  -40.7052 O.2       4 UNK        -0.5039 
     34 N          23.0988  -29.7707  -38.4404 N.am      5 UNK        -0.4663 
     35 CA         23.8798  -31.0124  -38.3642 C.3       5 UNK         0.0242 
     36 CB         23.8504  -31.5387  -36.9205 C.3       5 UNK        -0.1982 
     37 C          25.3309  -30.8701  -38.8558 C.2       5 UNK         0.5017 
     38 O          25.9337  -31.8620  -39.2645 O.2       5 UNK        -0.5012 
     39 N          25.8558  -29.6388  -38.8196 N.am      6 UNK        -0.4439 
     40 CA         27.1585  -29.2620  -39.3712 C.3       6 UNK         0.0297 
     41 CB         27.6519  -27.9982  -38.6456 C.3       6 UNK        -0.2006 
     42 C          27.1267  -29.0321  -40.8961 C.2       6 UNK         0.4892 
     43 O          28.1881  -28.8153  -41.4829 O.2       6 UNK        -0.5089 
     44 N          25.9330  -29.0522  -41.5040 N.am      7 UNK        -0.4243 
     45 CA         25.6970  -28.8043  -42.9216 C.3       7 UNK         0.0196 
     46 CB         25.0388  -27.4170  -43.0797 C.3       7 UNK        -0.2007 
     47 C          24.8758  -29.9661  -43.5046 C.2       7 UNK         0.5020 
     48 O          25.2087  -31.1272  -43.2632 O.2       7 UNK        -0.5147 
     49 N          23.8288  -29.6425  -44.2742 N.am      8 UNK        -0.4734 
     50 CA         23.0014  -30.5715  -45.0525 C.3       8 UNK         0.0238 
     51 CB         21.9997  -29.7538  -45.8818 C.3       8 UNK        -0.1912 
     52 C          22.2628  -31.6575  -44.2474 C.2       8 UNK         0.5038 
     53 O          21.9163  -32.6856  -44.8308 O.2       8 UNK        -0.5046 
     54 N          22.0350  -31.4236  -42.9488 N.am      9 UNK        -0.4200 
     55 CA         21.4493  -32.4005  -42.0182 C.3       9 UNK         0.0839 
     56 C          22.5198  -33.2573  -41.2768 C.2       9 UNK         0.5513 
     57 N          23.8126  -33.0747  -41.5207 N.am      9 UNK        -0.7519 
     58 O          22.1782  -34.1194  -40.4727 O.2       9 UNK        -0.4960 
     59 C59        20.4406  -31.7023  -41.0641 C.3       10 UNK        -0.0876 
     60 S60        19.1356  -32.7876  -40.3946 S.3       10 UNK        -0.2414 
     61 C61        18.0933  -33.1286  -41.8510 C.3       10 UNK         0.0169 
     62 H62        16.5401  -23.4310  -50.2167 H         1 UNK         0.0903 
     63 H63        15.4364  -23.7862  -48.8866 H         1 UNK         0.0903 
     64 H64        16.5059  -22.3856  -48.7941 H         1 UNK         0.0903 
     65 H65        16.1543  -25.4443  -47.5641 H         1 UNK         0.3096 
     66 H66        18.8901  -26.3868  -47.6348 H         1 UNK         0.1121 
     67 H67        16.6951  -27.3349  -45.7209 H         1 UNK         0.0849 
     68 H68        16.7281  -27.8248  -47.3940 H         1 UNK         0.0849 
     69 H69        16.5025  -30.0802  -46.4578 H         1 UNK         0.0865 
     70 H70        17.9059  -31.1085  -46.4126 H         1 UNK         0.0865 
     71 H71        18.4311  -32.2557  -44.4093 H         1 UNK         0.1346 
     72 H72        16.4803  -31.2281  -40.7317 H         1 UNK         0.1412 
     73 H73        15.9307  -28.7773  -44.2020 H         1 UNK         0.1426 
     74 H74        14.4785  -29.5257  -41.0627 H         1 UNK         0.0716 
     75 H75        14.7243  -28.2436  -42.2217 H         1 UNK         0.0716 
     76 H76        16.7786  -26.8109  -42.3242 H         1 UNK         0.0695 
     77 H77        17.3069  -25.9535  -40.9086 H         1 UNK         0.0695 
     78 H78        18.6031  -28.5718  -41.8112 H         1 UNK         0.0983 
     79 H79        19.4521  -27.5044  -43.5456 H         1 UNK         0.3095 
     80 H80        20.5042  -24.1721  -44.2142 H         1 UNK         0.0454 
     81 H81        22.0674  -26.8074  -44.1159 H         1 UNK         0.0851 
     82 H82        22.5074  -25.3699  -45.0380 H         1 UNK         0.0851 
     83 H83        22.5184  -25.3253  -43.2840 H         1 UNK         0.0851 
     84 H84        20.3194  -26.5088  -45.8491 H         1 UNK         0.2976 
     85 H85        21.1652  -28.2557  -41.3515 H         1 UNK         0.3116 
     86 H86        21.3978  -27.9282  -38.4310 H         1 UNK         0.0646 
     87 H87        23.5114  -26.6244  -38.7236 H         1 UNK         0.0847 
     88 H88        22.1540  -25.7340  -39.3928 H         1 UNK         0.0847 
     89 H89        23.2700  -26.5738  -40.4647 H         1 UNK         0.0847 
     90 H90        22.7987  -29.3781  -37.5587 H         1 UNK         0.3040 
     91 H91        23.3953  -31.7514  -39.0028 H         1 UNK         0.1015 
     92 H92        22.8299  -31.7326  -36.5893 H         1 UNK         0.0786 
     93 H93        24.3039  -30.8336  -36.2228 H         1 UNK         0.0786 
     94 H94        24.3986  -32.4784  -36.8369 H         1 UNK         0.0786 
     95 H95        25.2843  -28.8939  -38.4484 H         1 UNK         0.3172 
     96 H96        27.8711  -30.0663  -39.1770 H         1 UNK         0.0595 
     97 H97        27.7239  -28.1594  -37.5699 H         1 UNK         0.0839 
     98 H98        26.9892  -27.1487  -38.8160 H         1 UNK         0.0839 
     99 H99        28.6450  -27.7098  -38.9933 H         1 UNK         0.0839 
    100 H100       25.1114  -29.3119  -40.9703 H         1 UNK         0.2998 
    101 H101       26.6419  -28.7983  -43.4685 H         1 UNK         0.0822 
    102 H102       25.6534  -26.6406  -42.6235 H         1 UNK         0.0787 
    103 H103       24.9199  -27.1449  -44.1292 H         1 UNK         0.0787 
    104 H104       24.0589  -27.3796  -42.6031 H         1 UNK         0.0787 
    105 H105       23.6410  -28.6606  -44.4090 H         1 UNK         0.3055 
    106 H106       23.6671  -31.0966  -45.7411 H         1 UNK         0.1106 
    107 H107       21.3450  -29.1618  -45.2424 H         1 UNK         0.0828 
    108 H108       22.5066  -29.0755  -46.5681 H         1 UNK         0.0828 
    109 H109       21.3639  -30.4039  -46.4852 H         1 UNK         0.0828 
    110 H110       22.4213  -30.5893  -42.5244 H         1 UNK         0.2931 
    111 H111       20.8820  -33.1185  -42.6102 H         1 UNK         0.0412 
    112 H112       24.1360  -32.3734  -42.1789 H         1 UNK         0.3472 
    113 H113       24.4889  -33.6312  -41.0228 H         1 UNK         0.3472 
    114 H114       19.9454  -30.8754  -41.5744 H         1 UNK         0.0970 
    115 H115       20.9606  -31.2547  -40.2186 H         1 UNK         0.0970 
    116 H116       18.6638  -33.7151  -42.5718 H         1 UNK         0.0612 
    117 H117       17.2647  -33.7650  -41.5377 H         1 UNK         0.0612 
@<TRIPOS>BOND
     1    1    2 1    
     2    1   62 1    
     3    1   63 1    
     4    1   64 1    
     5    2    3 2    
     6    2    4 am   BACKBONE|DICT|INTERRES
     7    4    5 1    
     8    4   65 1    
     9    5    6 1    
    10    5   25 1    
    11    5   66 1    
    12    6    7 1    
    13    6   67 1    
    14    6   68 1    
    15    7    8 1    
    16    8    9 1    
    17    8   69 1    
    18    8   70 1    
    19    9   10 ar   
    20    9   14 ar   
    21   10   11 ar   
    22   10   71 1    
    23   11   12 ar   
    24   11   61 1    
    25   12   13 ar   
    26   12   72 1    
    27   13   14 ar   
    28   13   15 1    
    29   14   73 1    
    30   15   16 1    
    31   15   74 1    
    32   15   75 1    
    33   16   17 1    
    34   17   18 1    
    35   17   76 1    
    36   17   77 1    
    37   18   19 1    
    38   18   27 1    
    39   18   78 1    
    40   19   20 am   BACKBONE|DICT|INTERRES
    41   19   79 1    
    42   20   21 2    
    43   20   22 1    
    44   22   23 1    
    45   22   24 1    
    46   22   80 1    
    47   23   81 1    
    48   23   82 1    
    49   23   83 1    
    50   24   25 am   BACKBONE|DICT|INTERRES
    51   24   84 1    
    52   25   26 2    
    53   27   28 2    
    54   27   29 am   BACKBONE|DICT|INTERRES
    55   29   30 1    
    56   29   85 1    
    57   30   31 1    
    58   30   32 1    
    59   30   86 1    
    60   31   87 1    
    61   31   88 1    
    62   31   89 1    
    63   32   33 2    
    64   32   34 am   BACKBONE|DICT|INTERRES
    65   34   35 1    
    66   34   90 1    
    67   35   36 1    
    68   35   37 1    
    69   35   91 1    
    70   36   92 1    
    71   36   93 1    
    72   36   94 1    
    73   37   38 2    
    74   37   39 am   BACKBONE|DICT|INTERRES
    75   39   40 1    
    76   39   95 1    
    77   40   41 1    
    78   40   42 1    
    79   40   96 1    
    80   41   97 1    
    81   41   98 1    
    82   41   99 1    
    83   42   43 2    
    84   42   44 am   BACKBONE|DICT|INTERRES
    85   44   45 1    
    86   44  100 1    
    87   45   46 1    
    88   45   47 1    
    89   45  101 1    
    90   46  102 1    
    91   46  103 1    
    92   46  104 1    
    93   47   48 2    
    94   47   49 am   BACKBONE|DICT|INTERRES
    95   49   50 1    
    96   49  105 1    
    97   50   51 1    
    98   50   52 1    
    99   50  106 1    
   100   51  107 1    
   101   51  108 1    
   102   51  109 1    
   103   52   53 2    
   104   52   54 am   BACKBONE|DICT|INTERRES
   105   54   55 1    
   106   54  110 1    
   107   55   56 1    
   108   55   59 1    
   109   55  111 1    
   110   56   57 am   BACKBONE|DICT|INTERRES
   111   56   58 2    
   112   57  112 1    
   113   57  113 1    
   114   59   60 1    
   115   59  114 1    
   116   59  115 1    
   117   60   61 1    
   118   61  116 1    
   119   61  117 1    
@<TRIPOS>SUBSTRUCTURE
     1 UNK         1 GROUP             0       ****    0 ROOT    
