@<TRIPOS>MOLECULE
3R8
117   119    1
SMALL
USER_CHARGES


@<TRIPOS>ATOM
      1 CA         21.2090  -24.8165  -49.2496 C.3       0 UNK        -0.2013 
      2 C          21.7420  -25.6735  -48.1113 C.2       0 UNK         0.4866 
      3 O          22.8805  -25.4830  -47.6839 O.2       0 UNK        -0.5176 
      4 N          20.9281  -26.6172  -47.6178 N.am      1 UNK        -0.4884 
      5 CA         21.2734  -27.5213  -46.5113 C.3       1 UNK         0.0853 
      6 C6         20.3274  -28.7460  -46.4778 C.3       10 UNK        -0.0849 
      7 S7         21.1023  -30.2076  -45.7137 S.3       10 UNK        -0.2776 
      8 C8         19.6595  -31.3039  -45.5672 C.3       10 UNK         0.0316 
      9 C9         18.8261  -30.9815  -44.3358 C.ar      10 UNK        -0.0863 
     10 C10        19.2346  -31.4451  -43.0841 C.ar      10 UNK        -0.1009 
     11 C11        18.4520  -31.2299  -41.9462 C.ar      10 UNK        -0.0712 
     12 C12        17.2662  -30.4992  -42.0670 C.ar      10 UNK        -0.0894 
     13 C13        16.8677  -29.9882  -43.3064 C.ar      10 UNK        -0.0745 
     14 C14        17.6422  -30.2469  -44.4415 C.ar      10 UNK        -0.0972 
     15 C15        15.6048  -29.1493  -43.4204 C.3       10 UNK         0.0209 
     16 S16        15.9904  -27.3695  -43.4519 S.3       10 UNK        -0.2568 
     17 C17        16.5353  -27.0636  -41.7348 C.3       10 UNK        -0.0983 
     18 CA         18.0767  -26.9851  -41.5840 C.3       3 UNK         0.0876 
     19 N          18.6669  -26.0172  -42.5230 N.am      3 UNK        -0.4424 
     20 C          19.9564  -25.6681  -42.6052 C.2       2 UNK         0.4918 
     21 O          20.8097  -25.9953  -41.7834 O.2       2 UNK        -0.4875 
     22 CA         20.3672  -24.8540  -43.8419 C.3       2 UNK         0.0481 
     23 CB         21.6499  -24.0316  -43.6013 C.3       2 UNK        -0.1831 
     24 N          20.5277  -25.7157  -45.0182 N.am      2 UNK        -0.4498 
     25 C          21.3088  -26.8048  -45.1432 C.2       1 UNK         0.5027 
     26 O          22.0352  -27.2491  -44.2518 O.2       1 UNK        -0.4969 
     27 C          18.4526  -26.7825  -40.0972 C.2       3 UNK         0.5005 
     28 O          18.5848  -27.7687  -39.3713 O.2       3 UNK        -0.5279 
     29 N          18.6289  -25.5218  -39.6739 N.am      4 UNK        -0.4463 
     30 CA         19.0565  -25.1501  -38.3214 C.3       4 UNK         0.0283 
     31 CB         18.6966  -23.6775  -38.0661 C.3       4 UNK        -0.1875 
     32 C          20.5574  -25.3843  -38.0591 C.2       4 UNK         0.4949 
     33 O          20.9336  -25.6079  -36.9083 O.2       4 UNK        -0.5039 
     34 N          21.3857  -25.3134  -39.1097 N.am      5 UNK        -0.4663 
     35 CA         22.8314  -25.5493  -39.0565 C.3       5 UNK         0.0242 
     36 CB         23.5364  -24.6305  -40.0678 C.3       5 UNK        -0.1982 
     37 C          23.1775  -27.0204  -39.3365 C.2       5 UNK         0.5017 
     38 O          24.1210  -27.5314  -38.7331 O.2       5 UNK        -0.5012 
     39 N          22.3966  -27.6623  -40.2206 N.am      6 UNK        -0.4439 
     40 CA         22.4548  -29.0659  -40.6366 C.3       6 UNK         0.0297 
     41 CB         22.1822  -29.9966  -39.4345 C.3       6 UNK        -0.2006 
     42 C          23.7710  -29.4027  -41.3592 C.2       6 UNK         0.4892 
     43 O          24.6447  -30.0464  -40.7749 O.2       6 UNK        -0.5089 
     44 N          23.8961  -28.9587  -42.6200 N.am      7 UNK        -0.4243 
     45 CA         25.0746  -29.2103  -43.4623 C.3       7 UNK         0.0196 
     46 CB         24.9955  -28.3511  -44.7336 C.3       7 UNK        -0.2007 
     47 C          25.2783  -30.6920  -43.8366 C.2       7 UNK         0.5020 
     48 O          26.4172  -31.0966  -44.0741 O.2       7 UNK        -0.5147 
     49 N          24.1885  -31.4674  -43.8821 N.am      8 UNK        -0.4734 
     50 CA         24.1897  -32.9098  -44.1202 C.3       8 UNK         0.0238 
     51 CB         23.6841  -33.2031  -45.5480 C.3       8 UNK        -0.1912 
     52 C          23.3673  -33.5773  -43.0101 C.2       8 UNK         0.5038 
     53 O          23.9021  -33.7989  -41.9231 O.2       8 UNK        -0.5046 
     54 N          22.0845  -33.8480  -43.2848 N.am      9 UNK        -0.4200 
     55 CA         21.1164  -34.4895  -42.3789 C.3       9 UNK         0.0839 
     56 C          21.3780  -36.0108  -42.1679 C.2       9 UNK         0.5513 
     57 N          20.6658  -36.6458  -41.2471 N.am      9 UNK        -0.7519 
     58 O          22.1870  -36.6331  -42.8539 O.2       9 UNK        -0.4960 
     59 C59        20.9218  -33.6926  -41.0489 C.3       10 UNK        -0.0876 
     60 S60        19.1705  -33.5547  -40.5434 S.3       10 UNK        -0.2414 
     61 C61        18.8906  -31.7494  -40.5809 C.3       10 UNK         0.0169 
     62 H62        21.8446  -24.9230  -50.1283 H         1 UNK         0.0903 
     63 H63        20.1935  -25.0948  -49.5307 H         1 UNK         0.0903 
     64 H64        21.2045  -23.7665  -48.9581 H         1 UNK         0.0903 
     65 H65        20.0080  -26.7365  -48.0188 H         1 UNK         0.3096 
     66 H66        22.2875  -27.8782  -46.7051 H         1 UNK         0.1121 
     67 H67        19.3905  -28.5087  -45.9703 H         1 UNK         0.0849 
     68 H68        20.0533  -29.0366  -47.4935 H         1 UNK         0.0849 
     69 H69        19.0541  -31.2452  -46.4732 H         1 UNK         0.0865 
     70 H70        20.0064  -32.3362  -45.5071 H         1 UNK         0.0865 
     71 H71        20.1636  -31.9829  -43.0061 H         1 UNK         0.1346 
     72 H72        16.6622  -30.3078  -41.1906 H         1 UNK         0.1412 
     73 H73        17.3247  -29.8685  -45.4037 H         1 UNK         0.1426 
     74 H74        14.9171  -29.3640  -42.6009 H         1 UNK         0.0716 
     75 H75        15.0752  -29.4112  -44.3376 H         1 UNK         0.0716 
     76 H76        16.1228  -27.8387  -41.0863 H         1 UNK         0.0695 
     77 H77        16.0775  -26.1277  -41.4086 H         1 UNK         0.0695 
     78 H78        18.4926  -27.9541  -41.8666 H         1 UNK         0.0983 
     79 H79        18.0434  -25.7118  -43.2567 H         1 UNK         0.3095 
     80 H80        19.5589  -24.1548  -44.0608 H         1 UNK         0.0454 
     81 H81        22.5165  -24.6696  -43.4254 H         1 UNK         0.0851 
     82 H82        21.5416  -23.3824  -42.7317 H         1 UNK         0.0851 
     83 H83        21.8763  -23.3950  -44.4564 H         1 UNK         0.0851 
     84 H84        19.9767  -25.4581  -45.8246 H         1 UNK         0.2976 
     85 H85        18.4962  -24.7717  -40.3370 H         1 UNK         0.3116 
     86 H86        18.5004  -25.7610  -37.6067 H         1 UNK         0.0646 
     87 H87        19.2132  -23.0085  -38.7555 H         1 UNK         0.0847 
     88 H88        18.9745  -23.3784  -37.0543 H         1 UNK         0.0847 
     89 H89        17.6250  -23.5059  -38.1687 H         1 UNK         0.0847 
     90 H90        20.9861  -25.2136  -40.0369 H         1 UNK         0.3040 
     91 H91        23.2044  -25.3029  -38.0596 H         1 UNK         0.1015 
     92 H92        23.2346  -24.8490  -41.0922 H         1 UNK         0.0786 
     93 H93        24.6190  -24.7534  -40.0152 H         1 UNK         0.0786 
     94 H94        23.3188  -23.5809  -39.8697 H         1 UNK         0.0786 
     95 H95        21.7152  -27.0937  -40.7223 H         1 UNK         0.3172 
     96 H96        21.6458  -29.2103  -41.3552 H         1 UNK         0.0595 
     97 H97        22.9425  -29.9005  -38.6591 H         1 UNK         0.0839 
     98 H98        22.1785  -31.0416  -39.7416 H         1 UNK         0.0839 
     99 H99        21.2160  -29.7801  -38.9785 H         1 UNK         0.0839 
    100 H100       23.1510  -28.4060  -43.0378 H         1 UNK         0.2998 
    101 H101       25.9542  -28.8951  -42.8968 H         1 UNK         0.0822 
    102 H102       24.8848  -27.2930  -44.4953 H         1 UNK         0.0787 
    103 H103       25.9006  -28.4565  -45.3332 H         1 UNK         0.0787 
    104 H104       24.1542  -28.6456  -45.3612 H         1 UNK         0.0787 
    105 H105       23.2968  -31.0469  -43.6607 H         1 UNK         0.3055 
    106 H106       25.2022  -33.3110  -44.0321 H         1 UNK         0.1106 
    107 H107       23.6096  -34.2769  -45.7264 H         1 UNK         0.0828 
    108 H108       22.7074  -32.7620  -45.7450 H         1 UNK         0.0828 
    109 H109       24.3747  -32.8039  -46.2910 H         1 UNK         0.0828 
    110 H110       21.7563  -33.6792  -44.2236 H         1 UNK         0.2931 
    111 H111       20.1832  -34.4495  -42.9422 H         1 UNK         0.0412 
    112 H112       19.9823  -36.1482  -40.6960 H         1 UNK         0.3472 
    113 H113       20.8078  -37.6339  -41.1052 H         1 UNK         0.3472 
    114 H114       21.3269  -32.6866  -41.1494 H         1 UNK         0.0970 
    115 H115       21.4955  -34.1352  -40.2322 H         1 UNK         0.0970 
    116 H116       18.1307  -31.5202  -39.8323 H         1 UNK         0.0612 
    117 H117       19.7860  -31.2190  -40.2637 H         1 UNK         0.0612 
@<TRIPOS>BOND
     1    1    2 1    
     2    1   62 1    
     3    1   63 1    
     4    1   64 1    
     5    2    3 2    
     6    2    4 am   BACKBONE|DICT|INTERRES
     7    4    5 1    
     8    4   65 1    
     9    5    6 1    
    10    5   25 1    
    11    5   66 1    
    12    6    7 1    
    13    6   67 1    
    14    6   68 1    
    15    7    8 1    
    16    8    9 1    
    17    8   69 1    
    18    8   70 1    
    19    9   10 ar   
    20    9   14 ar   
    21   10   11 ar   
    22   10   71 1    
    23   11   12 ar   
    24   11   61 1    
    25   12   13 ar   
    26   12   72 1    
    27   13   14 ar   
    28   13   15 1    
    29   14   73 1    
    30   15   16 1    
    31   15   74 1    
    32   15   75 1    
    33   16   17 1    
    34   17   18 1    
    35   17   76 1    
    36   17   77 1    
    37   18   19 1    
    38   18   27 1    
    39   18   78 1    
    40   19   20 am   BACKBONE|DICT|INTERRES
    41   19   79 1    
    42   20   21 2    
    43   20   22 1    
    44   22   23 1    
    45   22   24 1    
    46   22   80 1    
    47   23   81 1    
    48   23   82 1    
    49   23   83 1    
    50   24   25 am   BACKBONE|DICT|INTERRES
    51   24   84 1    
    52   25   26 2    
    53   27   28 2    
    54   27   29 am   BACKBONE|DICT|INTERRES
    55   29   30 1    
    56   29   85 1    
    57   30   31 1    
    58   30   32 1    
    59   30   86 1    
    60   31   87 1    
    61   31   88 1    
    62   31   89 1    
    63   32   33 2    
    64   32   34 am   BACKBONE|DICT|INTERRES
    65   34   35 1    
    66   34   90 1    
    67   35   36 1    
    68   35   37 1    
    69   35   91 1    
    70   36   92 1    
    71   36   93 1    
    72   36   94 1    
    73   37   38 2    
    74   37   39 am   BACKBONE|DICT|INTERRES
    75   39   40 1    
    76   39   95 1    
    77   40   41 1    
    78   40   42 1    
    79   40   96 1    
    80   41   97 1    
    81   41   98 1    
    82   41   99 1    
    83   42   43 2    
    84   42   44 am   BACKBONE|DICT|INTERRES
    85   44   45 1    
    86   44  100 1    
    87   45   46 1    
    88   45   47 1    
    89   45  101 1    
    90   46  102 1    
    91   46  103 1    
    92   46  104 1    
    93   47   48 2    
    94   47   49 am   BACKBONE|DICT|INTERRES
    95   49   50 1    
    96   49  105 1    
    97   50   51 1    
    98   50   52 1    
    99   50  106 1    
   100   51  107 1    
   101   51  108 1    
   102   51  109 1    
   103   52   53 2    
   104   52   54 am   BACKBONE|DICT|INTERRES
   105   54   55 1    
   106   54  110 1    
   107   55   56 1    
   108   55   59 1    
   109   55  111 1    
   110   56   57 am   BACKBONE|DICT|INTERRES
   111   56   58 2    
   112   57  112 1    
   113   57  113 1    
   114   59   60 1    
   115   59  114 1    
   116   59  115 1    
   117   60   61 1    
   118   61  116 1    
   119   61  117 1    
@<TRIPOS>SUBSTRUCTURE
     1 UNK         1 GROUP             0       ****    0 ROOT    
