@<TRIPOS>MOLECULE
3R8
117   119    1
SMALL
USER_CHARGES


@<TRIPOS>ATOM
      1 CA         16.3150  -22.3109  -42.2457 C.3       0 UNK        -0.2013 
      2 C          16.9381  -23.6018  -42.7555 C.2       0 UNK         0.4866 
      3 O          17.3922  -23.6528  -43.8989 O.2       0 UNK        -0.5176 
      4 N          16.9572  -24.6484  -41.9203 N.am      1 UNK        -0.4884 
      5 CA         17.5792  -25.9403  -42.2193 C.3       1 UNK         0.0853 
      6 C6         17.0650  -27.0380  -41.2551 C.3       10 UNK        -0.0849 
      7 S7         17.5141  -28.7069  -41.8257 S.3       10 UNK        -0.2776 
      8 C8         15.9638  -29.2734  -42.5835 C.3       10 UNK         0.0316 
      9 C9         16.2748  -30.3925  -43.5574 C.ar      10 UNK        -0.0863 
     10 C10        16.1498  -31.7311  -43.1796 C.ar      10 UNK        -0.1009 
     11 C11        16.5246  -32.7502  -44.0612 C.ar      10 UNK        -0.0712 
     12 C12        17.0250  -32.4201  -45.3264 C.ar      10 UNK        -0.0894 
     13 C13        17.1658  -31.0811  -45.7069 C.ar      10 UNK        -0.0745 
     14 C14        16.7586  -30.0757  -44.8265 C.ar      10 UNK        -0.0972 
     15 C15        17.7755  -30.7194  -47.0567 C.3       10 UNK         0.0209 
     16 S16        19.0193  -29.3850  -46.9415 S.3       10 UNK        -0.2568 
     17 C17        20.3415  -30.1919  -45.9808 C.3       10 UNK        -0.0983 
     18 CA         21.4955  -29.2053  -45.6743 C.3       3 UNK         0.0876 
     19 N          21.1170  -28.1869  -44.6795 N.am      3 UNK        -0.4424 
     20 C          21.7895  -27.0416  -44.4852 C.2       2 UNK         0.4918 
     21 O          22.8116  -26.7544  -45.1108 O.2       2 UNK        -0.4875 
     22 CA         21.2460  -26.0623  -43.4290 C.3       2 UNK         0.0481 
     23 CB         21.6488  -24.6013  -43.7219 C.3       2 UNK        -0.1831 
     24 N          19.7912  -26.1621  -43.2790 N.am      2 UNK        -0.4498 
     25 C          19.1170  -25.8052  -42.1767 C.2       1 UNK         0.5027 
     26 O          19.6512  -25.3791  -41.1495 O.2       1 UNK        -0.4969 
     27 C          22.8076  -29.9490  -45.3326 C.2       3 UNK         0.5005 
     28 O          23.4037  -30.5376  -46.2360 O.2       3 UNK        -0.5279 
     29 N          23.2640  -29.8781  -44.0743 N.am      4 UNK        -0.4463 
     30 CA         24.5876  -30.3248  -43.6375 C.3       4 UNK         0.0283 
     31 CB         24.4467  -31.5402  -42.7047 C.3       4 UNK        -0.1875 
     32 C          25.3534  -29.1453  -43.0129 C.2       4 UNK         0.4949 
     33 O          26.0103  -29.3066  -41.9827 O.2       4 UNK        -0.5039 
     34 N          25.2502  -27.9726  -43.6590 N.am      5 UNK        -0.4663 
     35 CA         25.8665  -26.6910  -43.3035 C.3       5 UNK         0.0242 
     36 CB         27.4013  -26.7502  -43.4798 C.3       5 UNK        -0.1982 
     37 C          25.4147  -26.2110  -41.9143 C.2       5 UNK         0.5017 
     38 O          24.3185  -25.6654  -41.7950 O.2       5 UNK        -0.5012 
     39 N          26.2553  -26.4254  -40.8949 N.am      6 UNK        -0.4439 
     40 CA         25.9600  -26.1157  -39.4957 C.3       6 UNK         0.0297 
     41 CB         27.2719  -26.1162  -38.6939 C.3       6 UNK        -0.2006 
     42 C          24.9411  -27.0793  -38.8584 C.2       6 UNK         0.4892 
     43 O          24.3141  -26.7040  -37.8666 O.2       6 UNK        -0.5089 
     44 N          24.8048  -28.2925  -39.4108 N.am      7 UNK        -0.4243 
     45 CA         23.8825  -29.3207  -38.9358 C.3       7 UNK         0.0196 
     46 CB         24.6057  -30.6776  -38.9437 C.3       7 UNK        -0.2007 
     47 C          22.6193  -29.3695  -39.8070 C.2       7 UNK         0.5020 
     48 O          22.6558  -29.0286  -40.9930 O.2       7 UNK        -0.5147 
     49 N          21.5227  -29.8318  -39.1981 N.am      8 UNK        -0.4734 
     50 CA         20.2549  -30.0937  -39.8740 C.3       8 UNK         0.0238 
     51 CB         19.1119  -30.0101  -38.8478 C.3       8 UNK        -0.1912 
     52 C          20.2841  -31.4790  -40.5375 C.2       8 UNK         0.5038 
     53 O          20.7289  -32.4355  -39.8995 O.2       8 UNK        -0.5046 
     54 N          19.7672  -31.5535  -41.7703 N.am      9 UNK        -0.4200 
     55 CA         19.6796  -32.7400  -42.6344 C.3       9 UNK         0.0839 
     56 C          21.0632  -33.2827  -43.0903 C.2       9 UNK         0.5513 
     57 N          21.3533  -33.2268  -44.3833 N.am      9 UNK        -0.7519 
     58 O          21.8527  -33.7964  -42.3032 O.2       9 UNK        -0.4960 
     59 C59        18.7677  -33.8494  -42.0387 C.3       10 UNK        -0.0876 
     60 S60        18.0773  -34.9391  -43.3336 S.3       10 UNK        -0.2414 
     61 C61        16.4334  -34.2061  -43.6258 C.3       10 UNK         0.0169 
     62 H62        15.9447  -22.4110  -41.2255 H         1 UNK         0.0903 
     63 H63        17.0513  -21.5076  -42.2618 H         1 UNK         0.0903 
     64 H64        15.4797  -22.0204  -42.8825 H         1 UNK         0.0903 
     65 H65        16.6016  -24.5390  -40.9809 H         1 UNK         0.3096 
     66 H66        17.2787  -26.2169  -43.2329 H         1 UNK         0.1121 
     67 H67        15.9794  -26.9806  -41.1593 H         1 UNK         0.0849 
     68 H68        17.4597  -26.8932  -40.2473 H         1 UNK         0.0849 
     69 H69        15.4774  -28.4509  -43.1107 H         1 UNK         0.0865 
     70 H70        15.2715  -29.6054  -41.8081 H         1 UNK         0.0865 
     71 H71        15.7900  -31.9778  -42.1900 H         1 UNK         0.1346 
     72 H72        17.3346  -33.2090  -45.9985 H         1 UNK         0.1412 
     73 H73        16.8648  -29.0376  -45.1102 H         1 UNK         0.1426 
     74 H74        16.9761  -30.3977  -47.7252 H         1 UNK         0.0716 
     75 H75        18.2377  -31.5918  -47.5212 H         1 UNK         0.0716 
     76 H76        20.6935  -31.0406  -46.5708 H         1 UNK         0.0695 
     77 H77        19.9285  -30.6005  -45.0579 H         1 UNK         0.0695 
     78 H78        21.7175  -28.6719  -46.6021 H         1 UNK         0.0983 
     79 H79        20.2969  -28.3795  -44.1249 H         1 UNK         0.3095 
     80 H80        21.7109  -26.3627  -42.4876 H         1 UNK         0.0454 
     81 H81        21.2175  -24.2472  -44.6586 H         1 UNK         0.0851 
     82 H82        22.7318  -24.4976  -43.7982 H         1 UNK         0.0851 
     83 H83        21.3243  -23.9295  -42.9276 H         1 UNK         0.0851 
     84 H84        19.2778  -26.4590  -44.0980 H         1 UNK         0.2976 
     85 H85        22.7295  -29.3695  -43.3800 H         1 UNK         0.3116 
     86 H86        25.1902  -30.6384  -44.4921 H         1 UNK         0.0646 
     87 H87        23.7663  -31.3414  -41.8776 H         1 UNK         0.0847 
     88 H88        25.4082  -31.8370  -42.2844 H         1 UNK         0.0847 
     89 H89        24.0599  -32.4009  -43.2486 H         1 UNK         0.0847 
     90 H90        24.6223  -27.9300  -44.4528 H         1 UNK         0.3040 
     91 H91        25.4832  -25.9569  -44.0147 H         1 UNK         0.1015 
     92 H92        27.8662  -27.5261  -42.8712 H         1 UNK         0.0786 
     93 H93        27.8638  -25.7985  -43.2138 H         1 UNK         0.0786 
     94 H94        27.6638  -26.9518  -44.5184 H         1 UNK         0.0786 
     95 H95        27.1167  -26.9172  -41.0863 H         1 UNK         0.3172 
     96 H96        25.5345  -25.1109  -39.4503 H         1 UNK         0.0595 
     97 H97        27.7532  -27.0950  -38.7060 H         1 UNK         0.0839 
     98 H98        27.0906  -25.8562  -37.6499 H         1 UNK         0.0839 
     99 H99        27.9800  -25.3871  -39.0884 H         1 UNK         0.0839 
    100 H100       25.2988  -28.5039  -40.2729 H         1 UNK         0.2998 
    101 H101       23.5799  -29.1071  -37.9083 H         1 UNK         0.0822 
    102 H102       25.4274  -30.6871  -38.2274 H         1 UNK         0.0787 
    103 H103       23.9301  -31.4902  -38.6727 H         1 UNK         0.0787 
    104 H104       25.0217  -30.9098  -39.9232 H         1 UNK         0.0787 
    105 H105       21.5913  -30.1460  -38.2406 H         1 UNK         0.3055 
    106 H106       20.0986  -29.3269  -40.6358 H         1 UNK         0.1106 
    107 H107       19.2461  -30.7215  -38.0320 H         1 UNK         0.0828 
    108 H108       18.1501  -30.2310  -39.3124 H         1 UNK         0.0828 
    109 H109       19.0398  -29.0115  -38.4166 H         1 UNK         0.0828 
    110 H110       19.3898  -30.7097  -42.1764 H         1 UNK         0.2931 
    111 H111       19.1823  -32.3525  -43.5222 H         1 UNK         0.0412 
    112 H112       22.2360  -33.5946  -44.7011 H         1 UNK         0.3472 
    113 H113       20.6866  -32.8780  -45.0516 H         1 UNK         0.3472 
    114 H114       17.9401  -33.4047  -41.4847 H         1 UNK         0.0970 
    115 H115       19.3130  -34.4557  -41.3129 H         1 UNK         0.0970 
    116 H116       15.9220  -34.7820  -44.3984 H         1 UNK         0.0612 
    117 H117       15.8322  -34.3052  -42.7206 H         1 UNK         0.0612 
@<TRIPOS>BOND
     1    1    2 1    
     2    1   62 1    
     3    1   63 1    
     4    1   64 1    
     5    2    3 2    
     6    2    4 am   BACKBONE|DICT|INTERRES
     7    4    5 1    
     8    4   65 1    
     9    5    6 1    
    10    5   25 1    
    11    5   66 1    
    12    6    7 1    
    13    6   67 1    
    14    6   68 1    
    15    7    8 1    
    16    8    9 1    
    17    8   69 1    
    18    8   70 1    
    19    9   10 ar   
    20    9   14 ar   
    21   10   11 ar   
    22   10   71 1    
    23   11   12 ar   
    24   11   61 1    
    25   12   13 ar   
    26   12   72 1    
    27   13   14 ar   
    28   13   15 1    
    29   14   73 1    
    30   15   16 1    
    31   15   74 1    
    32   15   75 1    
    33   16   17 1    
    34   17   18 1    
    35   17   76 1    
    36   17   77 1    
    37   18   19 1    
    38   18   27 1    
    39   18   78 1    
    40   19   20 am   BACKBONE|DICT|INTERRES
    41   19   79 1    
    42   20   21 2    
    43   20   22 1    
    44   22   23 1    
    45   22   24 1    
    46   22   80 1    
    47   23   81 1    
    48   23   82 1    
    49   23   83 1    
    50   24   25 am   BACKBONE|DICT|INTERRES
    51   24   84 1    
    52   25   26 2    
    53   27   28 2    
    54   27   29 am   BACKBONE|DICT|INTERRES
    55   29   30 1    
    56   29   85 1    
    57   30   31 1    
    58   30   32 1    
    59   30   86 1    
    60   31   87 1    
    61   31   88 1    
    62   31   89 1    
    63   32   33 2    
    64   32   34 am   BACKBONE|DICT|INTERRES
    65   34   35 1    
    66   34   90 1    
    67   35   36 1    
    68   35   37 1    
    69   35   91 1    
    70   36   92 1    
    71   36   93 1    
    72   36   94 1    
    73   37   38 2    
    74   37   39 am   BACKBONE|DICT|INTERRES
    75   39   40 1    
    76   39   95 1    
    77   40   41 1    
    78   40   42 1    
    79   40   96 1    
    80   41   97 1    
    81   41   98 1    
    82   41   99 1    
    83   42   43 2    
    84   42   44 am   BACKBONE|DICT|INTERRES
    85   44   45 1    
    86   44  100 1    
    87   45   46 1    
    88   45   47 1    
    89   45  101 1    
    90   46  102 1    
    91   46  103 1    
    92   46  104 1    
    93   47   48 2    
    94   47   49 am   BACKBONE|DICT|INTERRES
    95   49   50 1    
    96   49  105 1    
    97   50   51 1    
    98   50   52 1    
    99   50  106 1    
   100   51  107 1    
   101   51  108 1    
   102   51  109 1    
   103   52   53 2    
   104   52   54 am   BACKBONE|DICT|INTERRES
   105   54   55 1    
   106   54  110 1    
   107   55   56 1    
   108   55   59 1    
   109   55  111 1    
   110   56   57 am   BACKBONE|DICT|INTERRES
   111   56   58 2    
   112   57  112 1    
   113   57  113 1    
   114   59   60 1    
   115   59  114 1    
   116   59  115 1    
   117   60   61 1    
   118   61  116 1    
   119   61  117 1    
@<TRIPOS>SUBSTRUCTURE
     1 UNK         1 GROUP             0       ****    0 ROOT    
