@<TRIPOS>MOLECULE
3R8
117   119    1
SMALL
USER_CHARGES


@<TRIPOS>ATOM
      1 CA         14.9771  -26.4066  -39.1633 C.3       0 UNK        -0.2013 
      2 C          15.3785  -26.1896  -40.6147 C.2       0 UNK         0.4866 
      3 O          14.8479  -25.2911  -41.2691 O.2       0 UNK        -0.5176 
      4 N          16.3038  -27.0111  -41.1256 N.am      1 UNK        -0.4884 
      5 CA         16.8432  -26.9239  -42.4873 C.3       1 UNK         0.0853 
      6 C6         17.6309  -28.1983  -42.8774 C.3       10 UNK        -0.0849 
      7 S7         16.5931  -29.7004  -42.8348 S.3       10 UNK        -0.2776 
      8 C8         16.4294  -30.1134  -44.6051 C.3       10 UNK         0.0316 
      9 C9         17.7708  -30.4543  -45.2409 C.ar      10 UNK        -0.0863 
     10 C10        18.5104  -31.5444  -44.7764 C.ar      10 UNK        -0.1009 
     11 C11        19.7685  -31.8318  -45.3124 C.ar      10 UNK        -0.0712 
     12 C12        20.2762  -31.0349  -46.3427 C.ar      10 UNK        -0.0894 
     13 C13        19.5347  -29.9553  -46.8353 C.ar      10 UNK        -0.0745 
     14 C14        18.2798  -29.6747  -46.2836 C.ar      10 UNK        -0.0972 
     15 C15        20.0910  -29.0948  -47.9642 C.3       10 UNK         0.0209 
     16 S16        20.1660  -27.3241  -47.5352 S.3       10 UNK        -0.2568 
     17 C17        21.3017  -27.3545  -46.1106 C.3       10 UNK        -0.0983 
     18 CA         21.4407  -25.9692  -45.4329 C.3       3 UNK         0.0876 
     19 N          20.1484  -25.4547  -44.9748 N.am      3 UNK        -0.4424 
     20 C          19.9131  -24.2004  -44.5689 C.2       2 UNK         0.4918 
     21 O          20.7726  -23.3188  -44.5370 O.2       2 UNK        -0.4875 
     22 CA         18.4687  -23.8531  -44.1599 C.3       2 UNK         0.0481 
     23 CB         17.7687  -23.0805  -45.2900 C.3       2 UNK        -0.1831 
     24 N          17.6609  -25.0273  -43.8121 N.am      2 UNK        -0.4498 
     25 C          17.7398  -25.6784  -42.6433 C.2       1 UNK         0.5027 
     26 O          18.4983  -25.3525  -41.7264 O.2       1 UNK        -0.4969 
     27 C          22.4521  -26.0602  -44.2741 C.2       3 UNK         0.5005 
     28 O          22.0777  -26.4281  -43.1585 O.2       3 UNK        -0.5279 
     29 N          23.7274  -25.7978  -44.5851 N.am      4 UNK        -0.4463 
     30 CA         24.8691  -25.9496  -43.6758 C.3       4 UNK         0.0283 
     31 CB         25.8185  -24.7523  -43.8682 C.3       4 UNK        -0.1875 
     32 C          25.5971  -27.2936  -43.8875 C.2       4 UNK         0.4949 
     33 O          26.7669  -27.4140  -43.5223 O.2       4 UNK        -0.5039 
     34 N          24.9093  -28.2726  -44.4948 N.am      5 UNK        -0.4663 
     35 CA         25.4329  -29.5961  -44.8487 C.3       5 UNK         0.0242 
     36 CB         24.3963  -30.3270  -45.7184 C.3       5 UNK        -0.1982 
     37 C          25.8335  -30.4555  -43.6360 C.2       5 UNK         0.5017 
     38 O          26.7886  -31.2268  -43.7348 O.2       5 UNK        -0.5012 
     39 N          25.1187  -30.2892  -42.5186 N.am      6 UNK        -0.4439 
     40 CA         25.3856  -30.9031  -41.2229 C.3       6 UNK         0.0297 
     41 CB         24.9952  -32.3941  -41.2310 C.3       6 UNK        -0.2006 
     42 C          24.5787  -30.1436  -40.1669 C.2       6 UNK         0.4892 
     43 O          23.5609  -29.5301  -40.5016 O.2       6 UNK        -0.5089 
     44 N          25.0229  -30.2254  -38.9073 N.am      7 UNK        -0.4243 
     45 CA         24.2712  -29.7472  -37.7475 C.3       7 UNK         0.0196 
     46 CB         25.2024  -29.6649  -36.5261 C.3       7 UNK        -0.2007 
     47 C          23.0906  -30.6955  -37.4890 C.2       7 UNK         0.5020 
     48 O          23.3213  -31.8793  -37.2344 O.2       7 UNK        -0.5147 
     49 N          21.8638  -30.1651  -37.5964 N.am      8 UNK        -0.4734 
     50 CA         20.5864  -30.8910  -37.5386 C.3       8 UNK         0.0238 
     51 CB         20.3284  -31.4430  -36.1192 C.3       8 UNK        -0.1912 
     52 C          20.4810  -31.9686  -38.6387 C.2       8 UNK         0.5038 
     53 O          20.2043  -33.1320  -38.3394 O.2       8 UNK        -0.5046 
     54 N          20.7332  -31.5500  -39.8886 N.am      9 UNK        -0.4200 
     55 CA         20.7016  -32.3843  -41.1033 C.3       9 UNK         0.0839 
     56 C          19.3624  -33.1447  -41.3281 C.2       9 UNK         0.5513 
     57 N          18.2177  -32.5255  -41.0656 N.am      9 UNK        -0.7519 
     58 O          19.3633  -34.3068  -41.7245 O.2       9 UNK        -0.4960 
     59 C59        21.0904  -31.5488  -42.3549 C.3       10 UNK        -0.0876 
     60 S60        21.9260  -32.5094  -43.6659 S.3       10 UNK        -0.2414 
     61 C61        20.5698  -33.0101  -44.7785 C.3       10 UNK         0.0169 
     62 H62        13.9097  -26.6156  -39.0963 H         1 UNK         0.0903 
     63 H63        15.5146  -27.2402  -38.7114 H         1 UNK         0.0903 
     64 H64        15.1867  -25.5113  -38.5786 H         1 UNK         0.0903 
     65 H65        16.7094  -27.7298  -40.5438 H         1 UNK         0.3096 
     66 H66        15.9963  -26.8221  -43.1703 H         1 UNK         0.1121 
     67 H67        18.0674  -28.0885  -43.8711 H         1 UNK         0.0849 
     68 H68        18.4741  -28.3510  -42.2005 H         1 UNK         0.0849 
     69 H69        15.7600  -30.9685  -44.7085 H         1 UNK         0.0865 
     70 H70        15.9479  -29.2825  -45.1231 H         1 UNK         0.0865 
     71 H71        18.1145  -32.1529  -43.9747 H         1 UNK         0.1346 
     72 H72        21.2499  -31.2582  -46.7570 H         1 UNK         0.1412 
     73 H73        17.7102  -28.8351  -46.6582 H         1 UNK         0.1426 
     74 H74        19.4589  -29.2172  -48.8445 H         1 UNK         0.0716 
     75 H75        21.0893  -29.4277  -48.2527 H         1 UNK         0.0716 
     76 H76        20.9454  -28.0935  -45.3897 H         1 UNK         0.0695 
     77 H77        22.2699  -27.7114  -46.4673 H         1 UNK         0.0695 
     78 H78        21.8271  -25.2620  -46.1705 H         1 UNK         0.0983 
     79 H79        19.3868  -26.1139  -44.9715 H         1 UNK         0.3095 
     80 H80        18.5232  -23.1970  -43.2884 H         1 UNK         0.0454 
     81 H81        18.3260  -22.1794  -45.5500 H         1 UNK         0.0851 
     82 H82        17.6799  -23.6801  -46.1968 H         1 UNK         0.0851 
     83 H83        16.7679  -22.7645  -44.9952 H         1 UNK         0.0851 
     84 H84        17.0058  -25.3466  -44.5122 H         1 UNK         0.2976 
     85 H85        23.9526  -25.5281  -45.5334 H         1 UNK         0.3116 
     86 H86        24.5240  -25.9369  -42.6397 H         1 UNK         0.0646 
     87 H87        26.6420  -24.7838  -43.1536 H         1 UNK         0.0847 
     88 H88        25.2994  -23.8061  -43.7148 H         1 UNK         0.0847 
     89 H89        26.2548  -24.7384  -44.8677 H         1 UNK         0.0847 
     90 H90        23.9506  -28.0848  -44.7439 H         1 UNK         0.3040 
     91 H91        26.3356  -29.4463  -45.4454 H         1 UNK         0.1015 
     92 H92        23.4397  -30.4295  -45.2054 H         1 UNK         0.0786 
     93 H93        24.7372  -31.3309  -45.9758 H         1 UNK         0.0786 
     94 H94        24.2185  -29.7971  -46.6544 H         1 UNK         0.0786 
     95 H95        24.3590  -29.6190  -42.5067 H         1 UNK         0.3172 
     96 H96        26.4488  -30.7989  -40.9966 H         1 UNK         0.0595 
     97 H97        25.1987  -32.8582  -40.2652 H         1 UNK         0.0839 
     98 H98        23.9334  -32.5286  -41.4361 H         1 UNK         0.0839 
     99 H99        25.5535  -32.9547  -41.9804 H         1 UNK         0.0839 
    100 H100       25.8451  -30.7792  -38.7141 H         1 UNK         0.2998 
    101 H101       23.8963  -28.7432  -37.9596 H         1 UNK         0.0822 
    102 H102       24.6620  -29.3045  -35.6498 H         1 UNK         0.0787 
    103 H103       25.6251  -30.6376  -36.2706 H         1 UNK         0.0787 
    104 H104       26.0288  -28.9762  -36.7031 H         1 UNK         0.0787 
    105 H105       21.7949  -29.1824  -37.8263 H         1 UNK         0.3055 
    106 H106       19.8008  -30.1636  -37.7510 H         1 UNK         0.1106 
    107 H107       21.0494  -32.2127  -35.8423 H         1 UNK         0.0828 
    108 H108       20.3785  -30.6524  -35.3706 H         1 UNK         0.0828 
    109 H109       19.3362  -31.8907  -36.0504 H         1 UNK         0.0828 
    110 H110       20.9924  -30.5835  -40.0223 H         1 UNK         0.2931 
    111 H111       21.4737  -33.1407  -40.9497 H         1 UNK         0.0412 
    112 H112       17.3494  -33.0190  -41.1981 H         1 UNK         0.3472 
    113 H113       18.2077  -31.5704  -40.7465 H         1 UNK         0.3472 
    114 H114       21.8092  -30.7793  -42.0723 H         1 UNK         0.0970 
    115 H115       20.2385  -30.9948  -42.7499 H         1 UNK         0.0970 
    116 H116       19.9177  -33.7144  -44.2619 H         1 UNK         0.0612 
    117 H117       20.9974  -33.5615  -45.6169 H         1 UNK         0.0612 
@<TRIPOS>BOND
     1    1    2 1    
     2    1   62 1    
     3    1   63 1    
     4    1   64 1    
     5    2    3 2    
     6    2    4 am   BACKBONE|DICT|INTERRES
     7    4    5 1    
     8    4   65 1    
     9    5    6 1    
    10    5   25 1    
    11    5   66 1    
    12    6    7 1    
    13    6   67 1    
    14    6   68 1    
    15    7    8 1    
    16    8    9 1    
    17    8   69 1    
    18    8   70 1    
    19    9   10 ar   
    20    9   14 ar   
    21   10   11 ar   
    22   10   71 1    
    23   11   12 ar   
    24   11   61 1    
    25   12   13 ar   
    26   12   72 1    
    27   13   14 ar   
    28   13   15 1    
    29   14   73 1    
    30   15   16 1    
    31   15   74 1    
    32   15   75 1    
    33   16   17 1    
    34   17   18 1    
    35   17   76 1    
    36   17   77 1    
    37   18   19 1    
    38   18   27 1    
    39   18   78 1    
    40   19   20 am   BACKBONE|DICT|INTERRES
    41   19   79 1    
    42   20   21 2    
    43   20   22 1    
    44   22   23 1    
    45   22   24 1    
    46   22   80 1    
    47   23   81 1    
    48   23   82 1    
    49   23   83 1    
    50   24   25 am   BACKBONE|DICT|INTERRES
    51   24   84 1    
    52   25   26 2    
    53   27   28 2    
    54   27   29 am   BACKBONE|DICT|INTERRES
    55   29   30 1    
    56   29   85 1    
    57   30   31 1    
    58   30   32 1    
    59   30   86 1    
    60   31   87 1    
    61   31   88 1    
    62   31   89 1    
    63   32   33 2    
    64   32   34 am   BACKBONE|DICT|INTERRES
    65   34   35 1    
    66   34   90 1    
    67   35   36 1    
    68   35   37 1    
    69   35   91 1    
    70   36   92 1    
    71   36   93 1    
    72   36   94 1    
    73   37   38 2    
    74   37   39 am   BACKBONE|DICT|INTERRES
    75   39   40 1    
    76   39   95 1    
    77   40   41 1    
    78   40   42 1    
    79   40   96 1    
    80   41   97 1    
    81   41   98 1    
    82   41   99 1    
    83   42   43 2    
    84   42   44 am   BACKBONE|DICT|INTERRES
    85   44   45 1    
    86   44  100 1    
    87   45   46 1    
    88   45   47 1    
    89   45  101 1    
    90   46  102 1    
    91   46  103 1    
    92   46  104 1    
    93   47   48 2    
    94   47   49 am   BACKBONE|DICT|INTERRES
    95   49   50 1    
    96   49  105 1    
    97   50   51 1    
    98   50   52 1    
    99   50  106 1    
   100   51  107 1    
   101   51  108 1    
   102   51  109 1    
   103   52   53 2    
   104   52   54 am   BACKBONE|DICT|INTERRES
   105   54   55 1    
   106   54  110 1    
   107   55   56 1    
   108   55   59 1    
   109   55  111 1    
   110   56   57 am   BACKBONE|DICT|INTERRES
   111   56   58 2    
   112   57  112 1    
   113   57  113 1    
   114   59   60 1    
   115   59  114 1    
   116   59  115 1    
   117   60   61 1    
   118   61  116 1    
   119   61  117 1    
@<TRIPOS>SUBSTRUCTURE
     1 UNK         1 GROUP             0       ****    0 ROOT    
