@<TRIPOS>MOLECULE
3R8
117   119    1
SMALL
USER_CHARGES


@<TRIPOS>ATOM
      1 CA         19.5935  -28.9575  -38.7392 C.3       0 UNK        -0.2013 
      2 C          19.3987  -28.9035  -40.2464 C.2       0 UNK         0.4866 
      3 O          18.2619  -28.8645  -40.7190 O.2       0 UNK        -0.5176 
      4 N          20.4990  -28.8785  -41.0077 N.am      1 UNK        -0.4884 
      5 CA         20.5246  -28.7254  -42.4638 C.3       1 UNK         0.0853 
      6 C6         21.8880  -29.1572  -43.0657 C.3       10 UNK        -0.0849 
      7 S7         22.2515  -30.9253  -42.8466 S.3       10 UNK        -0.2776 
      8 C8         21.9077  -31.5814  -44.5117 C.3       10 UNK         0.0316 
      9 C9         20.4491  -31.3670  -44.8793 C.ar      10 UNK        -0.0863 
     10 C10        19.4715  -32.2237  -44.3764 C.ar      10 UNK        -0.1009 
     11 C11        18.1199  -31.9666  -44.6101 C.ar      10 UNK        -0.0712 
     12 C12        17.7505  -30.8566  -45.3787 C.ar      10 UNK        -0.0894 
     13 C13        18.7202  -29.9999  -45.9147 C.ar      10 UNK        -0.0745 
     14 C14        20.0720  -30.2761  -45.6655 C.ar      10 UNK        -0.0972 
     15 C15        18.2618  -28.7677  -46.7030 C.3       10 UNK         0.0209 
     16 S16        19.5905  -27.8786  -47.5934 S.3       10 UNK        -0.2568 
     17 C17        18.9361  -26.1751  -47.6995 C.3       10 UNK        -0.0983 
     18 CA         19.4954  -25.2071  -46.6205 C.3       3 UNK         0.0876 
     19 N          19.0821  -25.6274  -45.2825 N.am      3 UNK        -0.4424 
     20 C          18.8528  -24.8096  -44.2493 C.2       2 UNK         0.4918 
     21 O          18.9410  -23.5834  -44.3124 O.2       2 UNK        -0.4875 
     22 CA         18.4708  -25.4721  -42.9094 C.3       2 UNK         0.0481 
     23 CB         16.9466  -25.4392  -42.7174 C.3       2 UNK        -0.1831 
     24 N          18.9451  -26.8521  -42.7257 N.am      2 UNK        -0.4498 
     25 C          20.2162  -27.2610  -42.8278 C.2       1 UNK         0.5027 
     26 O          21.1338  -26.5185  -43.1777 O.2       1 UNK        -0.4969 
     27 C          21.0258  -25.0031  -46.7553 C.2       3 UNK         0.5005 
     28 O          21.4461  -24.4010  -47.7457 O.2       3 UNK        -0.5279 
     29 N          21.8319  -25.5167  -45.8089 N.am      4 UNK        -0.4463 
     30 CA         23.2963  -25.5962  -45.9251 C.3       4 UNK         0.0283 
     31 CB         23.6913  -27.0466  -46.2547 C.3       4 UNK        -0.1875 
     32 C          24.0679  -25.1049  -44.6867 C.2       4 UNK         0.4949 
     33 O          25.2555  -24.8115  -44.8240 O.2       4 UNK        -0.5039 
     34 N          23.4091  -25.0258  -43.5206 N.am      5 UNK        -0.4663 
     35 CA         23.9523  -24.6767  -42.2008 C.3       5 UNK         0.0242 
     36 CB         24.5063  -23.2352  -42.1795 C.3       5 UNK        -0.1982 
     37 C          24.9649  -25.7278  -41.7047 C.2       5 UNK         0.5017 
     38 O          26.1604  -25.4450  -41.6028 O.2       5 UNK        -0.5012 
     39 N          24.4558  -26.9304  -41.4145 N.am      6 UNK        -0.4439 
     40 CA         25.1984  -28.0757  -40.8868 C.3       6 UNK         0.0297 
     41 CB         25.7248  -28.9386  -42.0487 C.3       6 UNK        -0.2006 
     42 C          24.2886  -28.8799  -39.9452 C.2       6 UNK         0.4892 
     43 O          23.0727  -28.6688  -39.9394 O.2       6 UNK        -0.5089 
     44 N          24.8916  -29.7727  -39.1531 N.am      7 UNK        -0.4243 
     45 CA         24.2136  -30.5629  -38.1263 C.3       7 UNK         0.0196 
     46 CB         25.1218  -30.6405  -36.8842 C.3       7 UNK        -0.2007 
     47 C          23.8429  -31.9590  -38.6545 C.2       7 UNK         0.5020 
     48 O          24.6028  -32.9097  -38.4609 O.2       7 UNK        -0.5147 
     49 N          22.6714  -32.0624  -39.2880 N.am      8 UNK        -0.4734 
     50 CA         21.9906  -33.3140  -39.6298 C.3       8 UNK         0.0238 
     51 CB         22.6206  -34.0032  -40.8611 C.3       8 UNK        -0.1912 
     52 C          20.4857  -33.0194  -39.7589 C.2       8 UNK         0.5038 
     53 O          19.9985  -32.1271  -39.0628 O.2       8 UNK        -0.5046 
     54 N          19.7710  -33.7629  -40.6162 N.am      9 UNK        -0.4200 
     55 CA         18.3110  -33.6669  -40.8189 C.3       9 UNK         0.0839 
     56 C          17.4622  -34.1912  -39.6167 C.2       9 UNK         0.5513 
     57 N          18.0205  -35.0008  -38.7239 N.am      9 UNK        -0.7519 
     58 O          16.2780  -33.8894  -39.4959 O.2       9 UNK        -0.4960 
     59 C59        17.8727  -32.2593  -41.3304 C.3       10 UNK        -0.0876 
     60 S60        16.4097  -32.2744  -42.4303 S.3       10 UNK        -0.2414 
     61 C61        17.0668  -32.8891  -44.0160 C.3       10 UNK         0.0169 
     62 H62        18.9658  -29.7365  -38.3074 H         1 UNK         0.0903 
     63 H63        20.6284  -29.1719  -38.4727 H         1 UNK         0.0903 
     64 H64        19.3134  -28.0054  -38.2901 H         1 UNK         0.0903 
     65 H65        21.4160  -28.8735  -40.5613 H         1 UNK         0.3096 
     66 H66        19.7409  -29.3510  -42.8970 H         1 UNK         0.1121 
     67 H67        21.9370  -28.9189  -44.1273 H         1 UNK         0.0849 
     68 H68        22.6991  -28.5935  -42.6118 H         1 UNK         0.0849 
     69 H69        22.1430  -32.6465  -44.5325 H         1 UNK         0.0865 
     70 H70        22.5687  -31.1070  -45.2387 H         1 UNK         0.0865 
     71 H71        19.7625  -33.0660  -43.7636 H         1 UNK         0.1346 
     72 H72        16.7016  -30.6527  -45.5471 H         1 UNK         0.1412 
     73 H73        20.8461  -29.6264  -46.0455 H         1 UNK         0.1426 
     74 H74        17.7717  -28.0863  -46.0071 H         1 UNK         0.0716 
     75 H75        17.5041  -29.0634  -47.4303 H         1 UNK         0.0716 
     76 H76        17.8466  -26.2049  -47.6448 H         1 UNK         0.0695 
     77 H77        19.1631  -25.7922  -48.6963 H         1 UNK         0.0695 
     78 H78        19.0499  -24.2287  -46.8156 H         1 UNK         0.0983 
     79 H79        18.9941  -26.6210  -45.1364 H         1 UNK         0.3095 
     80 H80        18.9251  -24.8731  -42.1178 H         1 UNK         0.0454 
     81 H81        16.4337  -26.0548  -43.4575 H         1 UNK         0.0851 
     82 H82        16.5607  -24.4233  -42.8142 H         1 UNK         0.0851 
     83 H83        16.6627  -25.7974  -41.7277 H         1 UNK         0.0851 
     84 H84        18.2810  -27.5155  -42.3397 H         1 UNK         0.2976 
     85 H85        21.4149  -25.9501  -44.9914 H         1 UNK         0.3116 
     86 H86        23.6361  -24.9666  -46.7499 H         1 UNK         0.0646 
     87 H87        24.7659  -27.1301  -46.4226 H         1 UNK         0.0847 
     88 H88        23.1946  -27.3992  -47.1588 H         1 UNK         0.0847 
     89 H89        23.4376  -27.7275  -45.4433 H         1 UNK         0.0847 
     90 H90        22.4554  -25.3796  -43.4946 H         1 UNK         0.3040 
     91 H91        23.1101  -24.7042  -41.5069 H         1 UNK         0.1015 
     92 H92        25.3782  -23.1175  -42.8233 H         1 UNK         0.0786 
     93 H93        24.8120  -22.9540  -41.1711 H         1 UNK         0.0786 
     94 H94        23.7526  -22.5170  -42.5022 H         1 UNK         0.0786 
     95 H95        23.4534  -27.0644  -41.4473 H         1 UNK         0.3172 
     96 H96        26.0434  -27.7152  -40.2962 H         1 UNK         0.0595 
     97 H97        24.9166  -29.3514  -42.6518 H         1 UNK         0.0839 
     98 H98        26.3692  -28.3590  -42.7100 H         1 UNK         0.0839 
     99 H99        26.3150  -29.7787  -41.6813 H         1 UNK         0.0839 
    100 H100       25.8855  -29.9240  -39.2513 H         1 UNK         0.2998 
    101 H101       23.2910  -30.0650  -37.8182 H         1 UNK         0.0822 
    102 H102       24.6570  -31.2375  -36.0983 H         1 UNK         0.0787 
    103 H103       26.0871  -31.0950  -37.1115 H         1 UNK         0.0787 
    104 H104       25.3087  -29.6499  -36.4692 H         1 UNK         0.0787 
    105 H105       22.0986  -31.2351  -39.4002 H         1 UNK         0.3055 
    106 H106       22.0939  -33.9885  -38.7768 H         1 UNK         0.1106 
    107 H107       22.2599  -35.0270  -40.9632 H         1 UNK         0.0828 
    108 H108       22.3900  -33.4848  -41.7889 H         1 UNK         0.0828 
    109 H109       23.7056  -34.0626  -40.7785 H         1 UNK         0.0828 
    110 H110       20.2410  -34.4864  -41.1402 H         1 UNK         0.2931 
    111 H111       18.1143  -34.3802  -41.6190 H         1 UNK         0.0412 
    112 H112       18.9857  -35.2748  -38.8101 H         1 UNK         0.3472 
    113 H113       17.4655  -35.3429  -37.9548 H         1 UNK         0.3472 
    114 H114       17.6552  -31.6032  -40.4857 H         1 UNK         0.0970 
    115 H115       18.6893  -31.7634  -41.8540 H         1 UNK         0.0970 
    116 H116       16.2385  -32.9943  -44.7181 H         1 UNK         0.0612 
    117 H117       17.4721  -33.8923  -43.8778 H         1 UNK         0.0612 
@<TRIPOS>BOND
     1    1    2 1    
     2    1   62 1    
     3    1   63 1    
     4    1   64 1    
     5    2    3 2    
     6    2    4 am   BACKBONE|DICT|INTERRES
     7    4    5 1    
     8    4   65 1    
     9    5    6 1    
    10    5   25 1    
    11    5   66 1    
    12    6    7 1    
    13    6   67 1    
    14    6   68 1    
    15    7    8 1    
    16    8    9 1    
    17    8   69 1    
    18    8   70 1    
    19    9   10 ar   
    20    9   14 ar   
    21   10   11 ar   
    22   10   71 1    
    23   11   12 ar   
    24   11   61 1    
    25   12   13 ar   
    26   12   72 1    
    27   13   14 ar   
    28   13   15 1    
    29   14   73 1    
    30   15   16 1    
    31   15   74 1    
    32   15   75 1    
    33   16   17 1    
    34   17   18 1    
    35   17   76 1    
    36   17   77 1    
    37   18   19 1    
    38   18   27 1    
    39   18   78 1    
    40   19   20 am   BACKBONE|DICT|INTERRES
    41   19   79 1    
    42   20   21 2    
    43   20   22 1    
    44   22   23 1    
    45   22   24 1    
    46   22   80 1    
    47   23   81 1    
    48   23   82 1    
    49   23   83 1    
    50   24   25 am   BACKBONE|DICT|INTERRES
    51   24   84 1    
    52   25   26 2    
    53   27   28 2    
    54   27   29 am   BACKBONE|DICT|INTERRES
    55   29   30 1    
    56   29   85 1    
    57   30   31 1    
    58   30   32 1    
    59   30   86 1    
    60   31   87 1    
    61   31   88 1    
    62   31   89 1    
    63   32   33 2    
    64   32   34 am   BACKBONE|DICT|INTERRES
    65   34   35 1    
    66   34   90 1    
    67   35   36 1    
    68   35   37 1    
    69   35   91 1    
    70   36   92 1    
    71   36   93 1    
    72   36   94 1    
    73   37   38 2    
    74   37   39 am   BACKBONE|DICT|INTERRES
    75   39   40 1    
    76   39   95 1    
    77   40   41 1    
    78   40   42 1    
    79   40   96 1    
    80   41   97 1    
    81   41   98 1    
    82   41   99 1    
    83   42   43 2    
    84   42   44 am   BACKBONE|DICT|INTERRES
    85   44   45 1    
    86   44  100 1    
    87   45   46 1    
    88   45   47 1    
    89   45  101 1    
    90   46  102 1    
    91   46  103 1    
    92   46  104 1    
    93   47   48 2    
    94   47   49 am   BACKBONE|DICT|INTERRES
    95   49   50 1    
    96   49  105 1    
    97   50   51 1    
    98   50   52 1    
    99   50  106 1    
   100   51  107 1    
   101   51  108 1    
   102   51  109 1    
   103   52   53 2    
   104   52   54 am   BACKBONE|DICT|INTERRES
   105   54   55 1    
   106   54  110 1    
   107   55   56 1    
   108   55   59 1    
   109   55  111 1    
   110   56   57 am   BACKBONE|DICT|INTERRES
   111   56   58 2    
   112   57  112 1    
   113   57  113 1    
   114   59   60 1    
   115   59  114 1    
   116   59  115 1    
   117   60   61 1    
   118   61  116 1    
   119   61  117 1    
@<TRIPOS>SUBSTRUCTURE
     1 UNK         1 GROUP             0       ****    0 ROOT    
