@<TRIPOS>MOLECULE
3R8
117   119    1
SMALL
USER_CHARGES


@<TRIPOS>ATOM
      1 CA         13.8815  -26.3869  -46.0226 C.3       0 UNK        -0.2013 
      2 C          15.3828  -26.3315  -45.7854 C.2       0 UNK         0.4866 
      3 O          16.1517  -26.8582  -46.5903 O.2       0 UNK        -0.5176 
      4 N          15.8130  -25.6829  -44.6960 N.am      1 UNK        -0.4884 
      5 CA         17.2111  -25.5495  -44.2614 C.3       1 UNK         0.0853 
      6 C6         17.3065  -25.2488  -42.7413 C.3       10 UNK        -0.0849 
      7 S7         16.5809  -26.5641  -41.7018 S.3       10 UNK        -0.2776 
      8 C8         18.0310  -27.1642  -40.7733 C.3       10 UNK         0.0316 
      9 C9         18.8023  -28.2297  -41.5398 C.ar      10 UNK        -0.0863 
     10 C10        18.5897  -29.5842  -41.2639 C.ar      10 UNK        -0.1009 
     11 C11        19.3128  -30.5696  -41.9431 C.ar      10 UNK        -0.0712 
     12 C12        20.2484  -30.1948  -42.9110 C.ar      10 UNK        -0.0894 
     13 C13        20.4753  -28.8449  -43.1885 C.ar      10 UNK        -0.0745 
     14 C14        19.7485  -27.8677  -42.5025 C.ar      10 UNK        -0.0972 
     15 C15        21.5176  -28.4362  -44.2135 C.3       10 UNK         0.0209 
     16 S16        20.7434  -28.0176  -45.7975 S.3       10 UNK        -0.2568 
     17 C17        22.1027  -27.0987  -46.6078 C.3       10 UNK        -0.0983 
     18 CA         21.9607  -25.5548  -46.5030 C.3       3 UNK         0.0876 
     19 N          20.5992  -25.1474  -46.8526 N.am      3 UNK        -0.4424 
     20 C          20.1886  -23.9572  -47.3010 C.2       2 UNK         0.4918 
     21 O          20.9430  -23.0282  -47.5862 O.2       2 UNK        -0.4875 
     22 CA         18.6607  -23.7717  -47.3946 C.3       2 UNK         0.0481 
     23 CB         18.1679  -24.0694  -48.8189 C.3       2 UNK        -0.1831 
     24 N          17.9187  -24.6085  -46.4384 N.am      2 UNK        -0.4498 
     25 C          17.9927  -24.5098  -45.1029 C.2       1 UNK         0.5027 
     26 O          18.6741  -23.6505  -44.5417 O.2       1 UNK        -0.4969 
     27 C          22.4328  -25.0161  -45.1271 C.2       3 UNK         0.5005 
     28 O          23.5644  -25.3030  -44.7344 O.2       3 UNK        -0.5279 
     29 N          21.5792  -24.2635  -44.4141 N.am      4 UNK        -0.4463 
     30 CA         21.7657  -23.6545  -43.0920 C.3       4 UNK         0.0283 
     31 CB         23.0122  -22.7485  -43.0205 C.3       4 UNK        -0.1875 
     32 C          21.7181  -24.6703  -41.9414 C.2       4 UNK         0.4949 
     33 O          20.8076  -24.5916  -41.1170 O.2       4 UNK        -0.5039 
     34 N          22.6709  -25.6070  -41.9011 N.am      5 UNK        -0.4663 
     35 CA         22.7873  -26.6382  -40.8690 C.3       5 UNK         0.0242 
     36 CB         23.3567  -26.0284  -39.5725 C.3       5 UNK        -0.1982 
     37 C          23.6829  -27.7790  -41.3649 C.2       5 UNK         0.5017 
     38 O          24.4999  -27.5692  -42.2644 O.2       5 UNK        -0.5012 
     39 N          23.5355  -28.9528  -40.7445 N.am      6 UNK        -0.4439 
     40 CA         24.3656  -30.1352  -40.9477 C.3       6 UNK         0.0297 
     41 CB         23.8328  -30.9675  -42.1273 C.3       6 UNK        -0.2006 
     42 C          24.3552  -30.9523  -39.6519 C.2       6 UNK         0.4892 
     43 O          23.3861  -30.8770  -38.8922 O.2       6 UNK        -0.5089 
     44 N          25.4279  -31.7203  -39.4297 N.am      7 UNK        -0.4243 
     45 CA         25.5832  -32.6017  -38.2680 C.3       7 UNK         0.0196 
     46 CB         27.0793  -32.7180  -37.9297 C.3       7 UNK        -0.2007 
     47 C          24.9763  -33.9998  -38.4868 C.2       7 UNK         0.5020 
     48 O          24.7581  -34.7135  -37.5077 O.2       7 UNK        -0.5147 
     49 N          24.7522  -34.3814  -39.7520 N.am      8 UNK        -0.4734 
     50 CA         24.2261  -35.6847  -40.1572 C.3       8 UNK         0.0238 
     51 CB         24.7351  -36.0197  -41.5742 C.3       8 UNK        -0.1912 
     52 C          22.6931  -35.7279  -40.0363 C.2       8 UNK         0.5038 
     53 O          22.1826  -36.1373  -38.9931 O.2       8 UNK        -0.5046 
     54 N          21.9951  -35.3268  -41.1089 N.am      9 UNK        -0.4200 
     55 CA         20.5262  -35.3469  -41.2529 C.3       9 UNK         0.0839 
     56 C          19.8943  -36.7738  -41.2759 C.2       9 UNK         0.5513 
     57 N          20.6551  -37.8289  -41.5426 N.am      9 UNK        -0.7519 
     58 O          18.6909  -36.9299  -41.0836 O.2       9 UNK        -0.4960 
     59 C59        19.7971  -34.3824  -40.2723 C.3       10 UNK        -0.0876 
     60 S60        20.3386  -32.6507  -40.4556 S.3       10 UNK        -0.2414 
     61 C61        19.0903  -32.0390  -41.6279 C.3       10 UNK         0.0169 
     62 H62        13.5468  -27.4232  -46.0610 H         1 UNK         0.0903 
     63 H63        13.3248  -25.8801  -45.2345 H         1 UNK         0.0903 
     64 H64        13.6339  -25.9132  -46.9721 H         1 UNK         0.0903 
     65 H65        15.1334  -25.2604  -44.0789 H         1 UNK         0.3096 
     66 H66        17.7088  -26.5072  -44.4338 H         1 UNK         0.1121 
     67 H67        16.7958  -24.3126  -42.5083 H         1 UNK         0.0849 
     68 H68        18.3444  -25.0964  -42.4415 H         1 UNK         0.0849 
     69 H69        18.6885  -26.3338  -40.5111 H         1 UNK         0.0865 
     70 H70        17.6838  -27.5731  -39.8232 H         1 UNK         0.0865 
     71 H71        17.8664  -29.8731  -40.5135 H         1 UNK         0.1346 
     72 H72        20.8087  -30.9553  -43.4374 H         1 UNK         0.1412 
     73 H73        19.9254  -26.8241  -42.7172 H         1 UNK         0.1426 
     74 H74        22.2454  -29.2327  -44.3705 H         1 UNK         0.0716 
     75 H75        22.0749  -27.5794  -43.8391 H         1 UNK         0.0716 
     76 H76        22.0900  -27.3812  -47.6616 H         1 UNK         0.0695 
     77 H77        23.0683  -27.4440  -46.2328 H         1 UNK         0.0695 
     78 H78        22.6378  -25.1113  -47.2364 H         1 UNK         0.0983 
     79 H79        19.8961  -25.8502  -46.6726 H         1 UNK         0.3095 
     80 H80        18.4402  -22.7270  -47.1665 H         1 UNK         0.0454 
     81 H81        18.3393  -25.1101  -49.0972 H         1 UNK         0.0851 
     82 H82        18.6858  -23.4465  -49.5496 H         1 UNK         0.0851 
     83 H83        17.1018  -23.8664  -48.9204 H         1 UNK         0.0851 
     84 H84        17.3355  -25.3519  -46.8152 H         1 UNK         0.2976 
     85 H85        20.6571  -24.1024  -44.8046 H         1 UNK         0.3116 
     86 H86        20.9007  -23.0021  -42.9601 H         1 UNK         0.0646 
     87 H87        22.9984  -21.9942  -43.8070 H         1 UNK         0.0847 
     88 H88        23.9422  -23.3097  -43.1110 H         1 UNK         0.0847 
     89 H89        23.0498  -22.2210  -42.0667 H         1 UNK         0.0847 
     90 H90        23.3503  -25.6599  -42.6569 H         1 UNK         0.3040 
     91 H91        21.7954  -27.0492  -40.6690 H         1 UNK         0.1015 
     92 H92        24.3359  -25.5779  -39.7391 H         1 UNK         0.0786 
     93 H93        23.4732  -26.7864  -38.7968 H         1 UNK         0.0786 
     94 H94        22.6992  -25.2584  -39.1688 H         1 UNK         0.0786 
     95 H95        22.8730  -29.0501  -39.9835 H         1 UNK         0.3172 
     96 H96        25.3923  -29.8239  -41.1533 H         1 UNK         0.0595 
     97 H97        22.8089  -31.2990  -41.9519 H         1 UNK         0.0839 
     98 H98        24.4412  -31.8577  -42.2889 H         1 UNK         0.0839 
     99 H99        23.8501  -30.3959  -43.0544 H         1 UNK         0.0839 
    100 H100       26.1873  -31.7082  -40.0963 H         1 UNK         0.2998 
    101 H101       25.0768  -32.1579  -37.4076 H         1 UNK         0.0822 
    102 H102       27.5140  -31.7421  -37.7123 H         1 UNK         0.0787 
    103 H103       27.2330  -33.3421  -37.0480 H         1 UNK         0.0787 
    104 H104       27.6463  -33.1648  -38.7474 H         1 UNK         0.0787 
    105 H105       24.9416  -33.7172  -40.4871 H         1 UNK         0.3055 
    106 H106       24.6170  -36.4495  -39.4815 H         1 UNK         0.1106 
    107 H107       24.4877  -35.2469  -42.3026 H         1 UNK         0.0828 
    108 H108       24.3139  -36.9605  -41.9316 H         1 UNK         0.0828 
    109 H109       25.8191  -36.1366  -41.5792 H         1 UNK         0.0828 
    110 H110       22.5043  -35.0132  -41.9213 H         1 UNK         0.2931 
    111 H111       20.3414  -34.9665  -42.2581 H         1 UNK         0.0412 
    112 H112       21.6402  -37.7201  -41.7209 H         1 UNK         0.3472 
    113 H113       20.2357  -38.7455  -41.5666 H         1 UNK         0.3472 
    114 H114       19.9636  -34.6889  -39.2388 H         1 UNK         0.0970 
    115 H115       18.7162  -34.4218  -40.4182 H         1 UNK         0.0970 
    116 H116       18.0935  -32.1885  -41.2100 H         1 UNK         0.0612 
    117 H117       19.1351  -32.6268  -42.5460 H         1 UNK         0.0612 
@<TRIPOS>BOND
     1    1    2 1    
     2    1   62 1    
     3    1   63 1    
     4    1   64 1    
     5    2    3 2    
     6    2    4 am   BACKBONE|DICT|INTERRES
     7    4    5 1    
     8    4   65 1    
     9    5    6 1    
    10    5   25 1    
    11    5   66 1    
    12    6    7 1    
    13    6   67 1    
    14    6   68 1    
    15    7    8 1    
    16    8    9 1    
    17    8   69 1    
    18    8   70 1    
    19    9   10 ar   
    20    9   14 ar   
    21   10   11 ar   
    22   10   71 1    
    23   11   12 ar   
    24   11   61 1    
    25   12   13 ar   
    26   12   72 1    
    27   13   14 ar   
    28   13   15 1    
    29   14   73 1    
    30   15   16 1    
    31   15   74 1    
    32   15   75 1    
    33   16   17 1    
    34   17   18 1    
    35   17   76 1    
    36   17   77 1    
    37   18   19 1    
    38   18   27 1    
    39   18   78 1    
    40   19   20 am   BACKBONE|DICT|INTERRES
    41   19   79 1    
    42   20   21 2    
    43   20   22 1    
    44   22   23 1    
    45   22   24 1    
    46   22   80 1    
    47   23   81 1    
    48   23   82 1    
    49   23   83 1    
    50   24   25 am   BACKBONE|DICT|INTERRES
    51   24   84 1    
    52   25   26 2    
    53   27   28 2    
    54   27   29 am   BACKBONE|DICT|INTERRES
    55   29   30 1    
    56   29   85 1    
    57   30   31 1    
    58   30   32 1    
    59   30   86 1    
    60   31   87 1    
    61   31   88 1    
    62   31   89 1    
    63   32   33 2    
    64   32   34 am   BACKBONE|DICT|INTERRES
    65   34   35 1    
    66   34   90 1    
    67   35   36 1    
    68   35   37 1    
    69   35   91 1    
    70   36   92 1    
    71   36   93 1    
    72   36   94 1    
    73   37   38 2    
    74   37   39 am   BACKBONE|DICT|INTERRES
    75   39   40 1    
    76   39   95 1    
    77   40   41 1    
    78   40   42 1    
    79   40   96 1    
    80   41   97 1    
    81   41   98 1    
    82   41   99 1    
    83   42   43 2    
    84   42   44 am   BACKBONE|DICT|INTERRES
    85   44   45 1    
    86   44  100 1    
    87   45   46 1    
    88   45   47 1    
    89   45  101 1    
    90   46  102 1    
    91   46  103 1    
    92   46  104 1    
    93   47   48 2    
    94   47   49 am   BACKBONE|DICT|INTERRES
    95   49   50 1    
    96   49  105 1    
    97   50   51 1    
    98   50   52 1    
    99   50  106 1    
   100   51  107 1    
   101   51  108 1    
   102   51  109 1    
   103   52   53 2    
   104   52   54 am   BACKBONE|DICT|INTERRES
   105   54   55 1    
   106   54  110 1    
   107   55   56 1    
   108   55   59 1    
   109   55  111 1    
   110   56   57 am   BACKBONE|DICT|INTERRES
   111   56   58 2    
   112   57  112 1    
   113   57  113 1    
   114   59   60 1    
   115   59  114 1    
   116   59  115 1    
   117   60   61 1    
   118   61  116 1    
   119   61  117 1    
@<TRIPOS>SUBSTRUCTURE
     1 UNK         1 GROUP             0       ****    0 ROOT    
