@<TRIPOS>MOLECULE
3R8
117   119    1
SMALL
USER_CHARGES


@<TRIPOS>ATOM
      1 CA         15.6641  -27.9378  -41.6626 C.3       0 UNK        -0.2013 
      2 C          15.9447  -26.7864  -42.6169 C.2       0 UNK         0.4866 
      3 O          15.5879  -25.6453  -42.3206 O.2       0 UNK        -0.5176 
      4 N          16.5675  -27.0818  -43.7643 N.am      1 UNK        -0.4884 
      5 CA         16.9289  -26.1080  -44.8027 C.3       1 UNK         0.0853 
      6 C6         16.9185  -26.7334  -46.2278 C.3       10 UNK        -0.0849 
      7 S7         15.4458  -27.7865  -46.5374 S.3       10 UNK        -0.2776 
      8 C8         16.1149  -29.4379  -46.9604 C.3       10 UNK         0.0316 
      9 C9         17.3194  -29.8422  -46.1201 C.ar      10 UNK        -0.0863 
     10 C10        17.1722  -30.2435  -44.7888 C.ar      10 UNK        -0.1009 
     11 C11        18.2934  -30.5446  -44.0051 C.ar      10 UNK        -0.0712 
     12 C12        19.5693  -30.4282  -44.5753 C.ar      10 UNK        -0.0894 
     13 C13        19.7284  -30.0471  -45.9096 C.ar      10 UNK        -0.0745 
     14 C14        18.5961  -29.7835  -46.6818 C.ar      10 UNK        -0.0972 
     15 C15        21.1170  -29.9118  -46.5216 C.3       10 UNK         0.0209 
     16 S16        21.3641  -28.2595  -47.2530 S.3       10 UNK        -0.2568 
     17 C17        22.8069  -27.6148  -46.3383 C.3       10 UNK        -0.0983 
     18 CA         22.4631  -26.7914  -45.0661 C.3       3 UNK         0.0876 
     19 N          21.3668  -25.8477  -45.3008 N.am      3 UNK        -0.4424 
     20 C          21.2908  -24.6021  -44.8191 C.2       2 UNK         0.4918 
     21 O          22.1563  -24.0890  -44.1097 O.2       2 UNK        -0.4875 
     22 CA         20.0240  -23.7924  -45.1709 C.3       2 UNK         0.0481 
     23 CB         20.2748  -22.9376  -46.4233 C.3       2 UNK        -0.1831 
     24 N          18.7965  -24.5835  -45.3620 N.am      2 UNK        -0.4498 
     25 C          18.2796  -25.4323  -44.4602 C.2       1 UNK         0.5027 
     26 O          18.8497  -25.6915  -43.3982 O.2       1 UNK        -0.4969 
     27 C          22.2548  -27.6847  -43.8220 C.2       3 UNK         0.5005 
     28 O          23.0907  -28.5590  -43.5860 O.2       3 UNK        -0.5279 
     29 N          21.1977  -27.4641  -43.0208 N.am      4 UNK        -0.4463 
     30 CA         20.8796  -28.2543  -41.8201 C.3       4 UNK         0.0283 
     31 CB         19.5852  -27.7386  -41.1767 C.3       4 UNK        -0.1875 
     32 C          21.9954  -28.3126  -40.7654 C.2       4 UNK         0.4949 
     33 O          22.1551  -29.3469  -40.1171 O.2       4 UNK        -0.5039 
     34 N          22.7566  -27.2190  -40.6304 N.am      5 UNK        -0.4663 
     35 CA         23.9121  -27.1234  -39.7357 C.3       5 UNK         0.0242 
     36 CB         24.2495  -25.6415  -39.5063 C.3       5 UNK        -0.1982 
     37 C          25.1468  -27.8802  -40.2574 C.2       5 UNK         0.5017 
     38 O          25.9605  -28.3241  -39.4476 O.2       5 UNK        -0.5012 
     39 N          25.2682  -28.0120  -41.5860 N.am      6 UNK        -0.4439 
     40 CA         26.3532  -28.7345  -42.2534 C.3       6 UNK         0.0297 
     41 CB         26.5616  -28.1695  -43.6686 C.3       6 UNK        -0.2006 
     42 C          26.0678  -30.2421  -42.3022 C.2       6 UNK         0.4892 
     43 O          26.9693  -31.0397  -42.0431 O.2       6 UNK        -0.5089 
     44 N          24.8138  -30.5997  -42.6110 N.am      7 UNK        -0.4243 
     45 CA         24.3110  -31.9751  -42.6145 C.3       7 UNK         0.0196 
     46 CB         22.9726  -32.0047  -43.3641 C.3       7 UNK        -0.2007 
     47 C          24.1358  -32.5635  -41.2033 C.2       7 UNK         0.5020 
     48 O          24.1314  -33.7868  -41.0656 O.2       7 UNK        -0.5147 
     49 N          23.9864  -31.6874  -40.1983 N.am      8 UNK        -0.4734 
     50 CA         23.7148  -31.9746  -38.7866 C.3       8 UNK         0.0238 
     51 CB         24.8824  -32.7473  -38.1357 C.3       8 UNK        -0.1912 
     52 C          22.3466  -32.6555  -38.6021 C.2       8 UNK         0.5038 
     53 O          22.2646  -33.7327  -38.0077 O.2       8 UNK        -0.5046 
     54 N          21.2979  -32.0092  -39.1308 N.am      9 UNK        -0.4200 
     55 CA         19.8998  -32.4679  -39.0379 C.3       9 UNK         0.0839 
     56 C          19.2999  -32.4371  -37.6007 C.2       9 UNK         0.5513 
     57 N          19.8760  -31.7073  -36.6524 N.am      9 UNK        -0.7519 
     58 O          18.2908  -33.0891  -37.3447 O.2       9 UNK        -0.4960 
     59 C59        18.9658  -31.7102  -40.0168 C.3       10 UNK        -0.0876 
     60 S60        19.4419  -31.8786  -41.7678 S.3       10 UNK        -0.2414 
     61 C61        18.0835  -30.9313  -42.5395 C.3       10 UNK         0.0169 
     62 H62        14.6531  -27.8576  -41.2639 H         1 UNK         0.0903 
     63 H63        15.7497  -28.9041  -42.1578 H         1 UNK         0.0903 
     64 H64        16.3622  -27.9132  -40.8264 H         1 UNK         0.0903 
     65 H65        16.8532  -28.0313  -43.9562 H         1 UNK         0.3096 
     66 H66        16.1789  -25.3137  -44.7942 H         1 UNK         0.1121 
     67 H67        16.9080  -25.9435  -46.9804 H         1 UNK         0.0849 
     68 H68        17.8366  -27.2874  -46.4121 H         1 UNK         0.0849 
     69 H69        15.3243  -30.1801  -46.8411 H         1 UNK         0.0865 
     70 H70        16.3723  -29.4454  -48.0208 H         1 UNK         0.0865 
     71 H71        16.1811  -30.3021  -44.3591 H         1 UNK         0.1346 
     72 H72        20.4487  -30.6272  -43.9850 H         1 UNK         0.1412 
     73 H73        18.7159  -29.4817  -47.7137 H         1 UNK         0.1426 
     74 H74        21.2376  -30.6658  -47.3003 H         1 UNK         0.0716 
     75 H75        21.8884  -30.1108  -45.7774 H         1 UNK         0.0716 
     76 H76        23.5101  -28.4235  -46.1302 H         1 UNK         0.0695 
     77 H77        23.3368  -26.9615  -47.0330 H         1 UNK         0.0695 
     78 H78        23.3600  -26.2142  -44.8307 H         1 UNK         0.0983 
     79 H79        20.6155  -26.1927  -45.8808 H         1 UNK         0.3095 
     80 H80        19.8377  -23.1159  -44.3344 H         1 UNK         0.0454 
     81 H81        21.1651  -22.3185  -46.3025 H         1 UNK         0.0851 
     82 H82        20.4260  -23.5545  -47.3100 H         1 UNK         0.0851 
     83 H83        19.4411  -22.2633  -46.6196 H         1 UNK         0.0851 
     84 H84        18.2862  -24.4118  -46.2165 H         1 UNK         0.2976 
     85 H85        20.5348  -26.7330  -43.2636 H         1 UNK         0.3116 
     86 H86        20.7099  -29.2783  -42.1476 H         1 UNK         0.0646 
     87 H87        19.3332  -28.3064  -40.2807 H         1 UNK         0.0847 
     88 H88        18.7459  -27.8283  -41.8633 H         1 UNK         0.0847 
     89 H89        19.6680  -26.6906  -40.8866 H         1 UNK         0.0847 
     90 H90        22.5395  -26.4103  -41.1954 H         1 UNK         0.3040 
     91 H91        23.6410  -27.5655  -38.7738 H         1 UNK         0.1015 
     92 H92        23.4081  -25.1067  -39.0652 H         1 UNK         0.0786 
     93 H93        24.5183  -25.1383  -40.4361 H         1 UNK         0.0786 
     94 H94        25.0930  -25.5348  -38.8224 H         1 UNK         0.0786 
     95 H95        24.5088  -27.6919  -42.1727 H         1 UNK         0.3172 
     96 H96        27.2786  -28.5831  -41.6933 H         1 UNK         0.0595 
     97 H97        27.3896  -28.6737  -44.1687 H         1 UNK         0.0839 
     98 H98        26.8014  -27.1065  -43.6396 H         1 UNK         0.0839 
     99 H99        25.6790  -28.2970  -44.2961 H         1 UNK         0.0839 
    100 H100       24.1508  -29.8709  -42.8707 H         1 UNK         0.2998 
    101 H101       25.0251  -32.6033  -43.1510 H         1 UNK         0.0822 
    102 H102       22.2407  -31.3653  -42.8716 H         1 UNK         0.0787 
    103 H103       23.0861  -31.6638  -44.3927 H         1 UNK         0.0787 
    104 H104       22.5584  -33.0134  -43.3970 H         1 UNK         0.0787 
    105 H105       23.9322  -30.7085  -40.4494 H         1 UNK         0.3055 
    106 H106       23.6448  -31.0078  -38.2847 H         1 UNK         0.1106 
    107 H107       24.9927  -33.7496  -38.5502 H         1 UNK         0.0828 
    108 H108       25.8281  -32.2223  -38.2711 H         1 UNK         0.0828 
    109 H109       24.7235  -32.8580  -37.0625 H         1 UNK         0.0828 
    110 H110       21.4602  -31.1227  -39.5987 H         1 UNK         0.2931 
    111 H111       19.8967  -33.5175  -39.3390 H         1 UNK         0.0412 
    112 H112       20.6994  -31.1633  -36.8539 H         1 UNK         0.3472 
    113 H113       19.4787  -31.6986  -35.7259 H         1 UNK         0.3472 
    114 H114       17.9404  -32.0739  -39.9209 H         1 UNK         0.0970 
    115 H115       18.9380  -30.6498  -39.7615 H         1 UNK         0.0970 
    116 H116       17.9263  -30.0179  -41.9683 H         1 UNK         0.0612 
    117 H117       17.1687  -31.5181  -42.4431 H         1 UNK         0.0612 
@<TRIPOS>BOND
     1    1    2 1    
     2    1   62 1    
     3    1   63 1    
     4    1   64 1    
     5    2    3 2    
     6    2    4 am   BACKBONE|DICT|INTERRES
     7    4    5 1    
     8    4   65 1    
     9    5    6 1    
    10    5   25 1    
    11    5   66 1    
    12    6    7 1    
    13    6   67 1    
    14    6   68 1    
    15    7    8 1    
    16    8    9 1    
    17    8   69 1    
    18    8   70 1    
    19    9   10 ar   
    20    9   14 ar   
    21   10   11 ar   
    22   10   71 1    
    23   11   12 ar   
    24   11   61 1    
    25   12   13 ar   
    26   12   72 1    
    27   13   14 ar   
    28   13   15 1    
    29   14   73 1    
    30   15   16 1    
    31   15   74 1    
    32   15   75 1    
    33   16   17 1    
    34   17   18 1    
    35   17   76 1    
    36   17   77 1    
    37   18   19 1    
    38   18   27 1    
    39   18   78 1    
    40   19   20 am   BACKBONE|DICT|INTERRES
    41   19   79 1    
    42   20   21 2    
    43   20   22 1    
    44   22   23 1    
    45   22   24 1    
    46   22   80 1    
    47   23   81 1    
    48   23   82 1    
    49   23   83 1    
    50   24   25 am   BACKBONE|DICT|INTERRES
    51   24   84 1    
    52   25   26 2    
    53   27   28 2    
    54   27   29 am   BACKBONE|DICT|INTERRES
    55   29   30 1    
    56   29   85 1    
    57   30   31 1    
    58   30   32 1    
    59   30   86 1    
    60   31   87 1    
    61   31   88 1    
    62   31   89 1    
    63   32   33 2    
    64   32   34 am   BACKBONE|DICT|INTERRES
    65   34   35 1    
    66   34   90 1    
    67   35   36 1    
    68   35   37 1    
    69   35   91 1    
    70   36   92 1    
    71   36   93 1    
    72   36   94 1    
    73   37   38 2    
    74   37   39 am   BACKBONE|DICT|INTERRES
    75   39   40 1    
    76   39   95 1    
    77   40   41 1    
    78   40   42 1    
    79   40   96 1    
    80   41   97 1    
    81   41   98 1    
    82   41   99 1    
    83   42   43 2    
    84   42   44 am   BACKBONE|DICT|INTERRES
    85   44   45 1    
    86   44  100 1    
    87   45   46 1    
    88   45   47 1    
    89   45  101 1    
    90   46  102 1    
    91   46  103 1    
    92   46  104 1    
    93   47   48 2    
    94   47   49 am   BACKBONE|DICT|INTERRES
    95   49   50 1    
    96   49  105 1    
    97   50   51 1    
    98   50   52 1    
    99   50  106 1    
   100   51  107 1    
   101   51  108 1    
   102   51  109 1    
   103   52   53 2    
   104   52   54 am   BACKBONE|DICT|INTERRES
   105   54   55 1    
   106   54  110 1    
   107   55   56 1    
   108   55   59 1    
   109   55  111 1    
   110   56   57 am   BACKBONE|DICT|INTERRES
   111   56   58 2    
   112   57  112 1    
   113   57  113 1    
   114   59   60 1    
   115   59  114 1    
   116   59  115 1    
   117   60   61 1    
   118   61  116 1    
   119   61  117 1    
@<TRIPOS>SUBSTRUCTURE
     1 UNK         1 GROUP             0       ****    0 ROOT    
