@<TRIPOS>MOLECULE
3R8
117   119    1
SMALL
USER_CHARGES


@<TRIPOS>ATOM
      1 CA         15.8552  -23.3412  -44.9831 C.3       0 UNK        -0.2013 
      2 C          15.3933  -24.0588  -43.7168 C.2       0 UNK         0.4866 
      3 O          14.5283  -23.5378  -43.0153 O.2       0 UNK        -0.5176 
      4 N          15.9114  -25.2495  -43.3825 N.am      1 UNK        -0.4884 
      5 CA         16.9989  -25.9819  -44.0418 C.3       1 UNK         0.0853 
      6 C6         17.1218  -27.4232  -43.4895 C.3       10 UNK        -0.0849 
      7 S7         15.6244  -28.4409  -43.7259 S.3       10 UNK        -0.2776 
      8 C8         16.0141  -29.4064  -45.2231 C.3       10 UNK         0.0316 
      9 C9         17.2613  -30.2680  -45.0654 C.ar      10 UNK        -0.0863 
     10 C10        17.2350  -31.4251  -44.2821 C.ar      10 UNK        -0.1009 
     11 C11        18.3777  -32.2214  -44.1560 C.ar      10 UNK        -0.0712 
     12 C12        19.5513  -31.8461  -44.8187 C.ar      10 UNK        -0.0894 
     13 C13        19.6019  -30.6850  -45.5945 C.ar      10 UNK        -0.0745 
     14 C14        18.4413  -29.9094  -45.7221 C.ar      10 UNK        -0.0972 
     15 C15        20.9274  -30.3252  -46.2697 C.3       10 UNK         0.0209 
     16 S16        20.9699  -28.6853  -47.0740 S.3       10 UNK        -0.2568 
     17 C17        22.5956  -28.0437  -46.5522 C.3       10 UNK        -0.0983 
     18 CA         22.5451  -27.1322  -45.2985 C.3       3 UNK         0.0876 
     19 N          21.4819  -26.1231  -45.3790 N.am      3 UNK        -0.4424 
     20 C          21.4403  -24.9880  -44.6692 C.2       2 UNK         0.4918 
     21 O          22.2840  -24.6770  -43.8286 O.2       2 UNK        -0.4875 
     22 CA         20.2362  -24.0673  -44.9254 C.3       2 UNK         0.0481 
     23 CB         20.4138  -23.2913  -46.2405 C.3       2 UNK        -0.1831 
     24 N          18.9665  -24.8028  -44.9512 N.am      2 UNK        -0.4498 
     25 C          18.3378  -25.2388  -43.8499 C.2       1 UNK         0.5027 
     26 O          18.7735  -25.0778  -42.7086 O.2       1 UNK        -0.4969 
     27 C          22.5339  -27.9406  -43.9837 C.2       3 UNK         0.5005 
     28 O          23.5458  -28.5637  -43.6619 O.2       3 UNK        -0.5279 
     29 N          21.4428  -27.8731  -43.2048 N.am      4 UNK        -0.4463 
     30 CA         21.3239  -28.4558  -41.8602 C.3       4 UNK         0.0283 
     31 CB         19.8592  -28.3974  -41.4033 C.3       4 UNK        -0.1875 
     32 C          22.2535  -27.8190  -40.8054 C.2       4 UNK         0.4949 
     33 O          22.3621  -28.3498  -39.7017 O.2       4 UNK        -0.5039 
     34 N          22.9247  -26.7120  -41.1539 N.am      5 UNK        -0.4663 
     35 CA         24.0449  -26.1550  -40.3947 C.3       5 UNK         0.0242 
     36 CB         24.2949  -24.7125  -40.8635 C.3       5 UNK        -0.1982 
     37 C          25.3329  -26.9945  -40.5258 C.2       5 UNK         0.5017 
     38 O          26.1909  -26.9012  -39.6472 O.2       5 UNK        -0.5012 
     39 N          25.4548  -27.7772  -41.6090 N.am      6 UNK        -0.4439 
     40 CA         26.5950  -28.6478  -41.9014 C.3       6 UNK         0.0297 
     41 CB         27.1178  -28.3443  -43.3158 C.3       6 UNK        -0.2006 
     42 C          26.2119  -30.1301  -41.7742 C.2       6 UNK         0.4892 
     43 O          26.9682  -30.8953  -41.1741 O.2       6 UNK        -0.5089 
     44 N          25.0565  -30.5132  -42.3363 N.am      7 UNK        -0.4243 
     45 CA         24.4863  -31.8586  -42.2423 C.3       7 UNK         0.0196 
     46 CB         23.3679  -32.0025  -43.2898 C.3       7 UNK        -0.2007 
     47 C          23.9393  -32.1393  -40.8340 C.2       7 UNK         0.5020 
     48 O          23.5387  -31.2106  -40.1311 O.2       7 UNK        -0.5147 
     49 N          23.8692  -33.4217  -40.4570 N.am      8 UNK        -0.4734 
     50 CA         23.3491  -33.8964  -39.1664 C.3       8 UNK         0.0238 
     51 CB         23.9322  -35.2939  -38.8811 C.3       8 UNK        -0.1912 
     52 C          21.8053  -33.8701  -39.0932 C.2       8 UNK         0.5038 
     53 O          21.1896  -34.8717  -38.7222 O.2       8 UNK        -0.5046 
     54 N          21.2161  -32.7301  -39.4667 N.am      9 UNK        -0.4200 
     55 CA         19.7692  -32.4822  -39.5604 C.3       9 UNK         0.0839 
     56 C          19.2828  -31.3515  -38.6102 C.2       9 UNK         0.5513 
     57 N          20.1434  -30.7287  -37.8135 N.am      9 UNK        -0.7519 
     58 O          18.0945  -31.0433  -38.5808 O.2       9 UNK        -0.4960 
     59 C59        19.3411  -32.2117  -41.0279 C.3       10 UNK        -0.0876 
     60 S60        19.7005  -33.6205  -42.1305 S.3       10 UNK        -0.2414 
     61 C61        18.3325  -33.5010  -43.3280 C.3       10 UNK         0.0169 
     62 H62        15.1250  -22.5863  -45.2745 H         1 UNK         0.0903 
     63 H63        16.8037  -22.8329  -44.8127 H         1 UNK         0.0903 
     64 H64        15.9625  -24.0246  -45.8238 H         1 UNK         0.0903 
     65 H65        15.5654  -25.6920  -42.5431 H         1 UNK         0.3096 
     66 H66        16.7770  -26.0549  -45.1079 H         1 UNK         0.1121 
     67 H67        17.3105  -27.3947  -42.4150 H         1 UNK         0.0849 
     68 H68        17.9827  -27.9284  -43.9259 H         1 UNK         0.0849 
     69 H69        15.1637  -30.0482  -45.4578 H         1 UNK         0.0865 
     70 H70        16.1171  -28.7245  -46.0687 H         1 UNK         0.0865 
     71 H71        16.3207  -31.7058  -43.7770 H         1 UNK         0.1346 
     72 H72        20.4350  -32.4626  -44.7239 H         1 UNK         0.1412 
     73 H73        18.4401  -29.0163  -46.3291 H         1 UNK         0.1426 
     74 H74        21.1600  -31.0820  -47.0200 H         1 UNK         0.0716 
     75 H75        21.7178  -30.3826  -45.5205 H         1 UNK         0.0716 
     76 H76        22.9836  -27.4621  -47.3899 H         1 UNK         0.0695 
     77 H77        23.3042  -28.8651  -46.4265 H         1 UNK         0.0695 
     78 H78        23.4918  -26.5868  -45.2779 H         1 UNK         0.0983 
     79 H79        20.7508  -26.3154  -46.0486 H         1 UNK         0.3095 
     80 H80        20.1982  -23.3365  -44.1144 H         1 UNK         0.0454 
     81 H81        21.3473  -22.7267  -46.2361 H         1 UNK         0.0851 
     82 H82        19.6063  -22.5741  -46.3888 H         1 UNK         0.0851 
     83 H83        20.4382  -23.9524  -47.1076 H         1 UNK         0.0851 
     84 H84        18.5550  -24.9655  -45.8595 H         1 UNK         0.2976 
     85 H85        20.6656  -27.3180  -43.5290 H         1 UNK         0.3116 
     86 H86        21.6103  -29.5065  -41.9277 H         1 UNK         0.0646 
     87 H87        19.2131  -28.9613  -42.0758 H         1 UNK         0.0847 
     88 H88        19.4962  -27.3709  -41.3500 H         1 UNK         0.0847 
     89 H89        19.7408  -28.8319  -40.4097 H         1 UNK         0.0847 
     90 H90        22.7329  -26.2917  -42.0537 H         1 UNK         0.3040 
     91 H91        23.7730  -26.1321  -39.3368 H         1 UNK         0.1015 
     92 H92        25.1066  -24.2527  -40.2979 H         1 UNK         0.0786 
     93 H93        23.4102  -24.0909  -40.7236 H         1 UNK         0.0786 
     94 H94        24.5678  -24.6723  -41.9190 H         1 UNK         0.0786 
     95 H95        24.6768  -27.8322  -42.2587 H         1 UNK         0.3172 
     96 H96        27.4083  -28.4567  -41.1983 H         1 UNK         0.0595 
     97 H97        26.3538  -28.5075  -44.0772 H         1 UNK         0.0839 
     98 H98        27.9670  -28.9829  -43.5631 H         1 UNK         0.0839 
     99 H99        27.4553  -27.3111  -43.3982 H         1 UNK         0.0839 
    100 H100       24.4890  -29.8169  -42.8155 H         1 UNK         0.2998 
    101 H101       25.2737  -32.5824  -42.4636 H         1 UNK         0.0822 
    102 H102       22.5496  -31.3057  -43.1075 H         1 UNK         0.0787 
    103 H103       23.7422  -31.8198  -44.2972 H         1 UNK         0.0787 
    104 H104       22.9440  -33.0076  -43.2784 H         1 UNK         0.0787 
    105 H105       24.1673  -34.1348  -41.1078 H         1 UNK         0.3055 
    106 H106       23.7077  -33.2255  -38.3821 H         1 UNK         0.1106 
    107 H107       23.6027  -36.0270  -39.6183 H         1 UNK         0.0828 
    108 H108       23.6218  -35.6557  -37.8998 H         1 UNK         0.0828 
    109 H109       25.0223  -35.2785  -38.8853 H         1 UNK         0.0828 
    110 H110       21.8230  -31.9617  -39.7388 H         1 UNK         0.2931 
    111 H111       19.2331  -33.3719  -39.2256 H         1 UNK         0.0412 
    112 H112       19.8093  -30.0014  -37.2011 H         1 UNK         0.3472 
    113 H113       21.1228  -30.9643  -37.8256 H         1 UNK         0.3472 
    114 H114       18.2726  -31.9939  -41.0799 H         1 UNK         0.0970 
    115 H115       19.8514  -31.3324  -41.4224 H         1 UNK         0.0970 
    116 H116       17.3859  -33.5882  -42.7924 H         1 UNK         0.0612 
    117 H117       18.3850  -34.3554  -44.0038 H         1 UNK         0.0612 
@<TRIPOS>BOND
     1    1    2 1    
     2    1   62 1    
     3    1   63 1    
     4    1   64 1    
     5    2    3 2    
     6    2    4 am   BACKBONE|DICT|INTERRES
     7    4    5 1    
     8    4   65 1    
     9    5    6 1    
    10    5   25 1    
    11    5   66 1    
    12    6    7 1    
    13    6   67 1    
    14    6   68 1    
    15    7    8 1    
    16    8    9 1    
    17    8   69 1    
    18    8   70 1    
    19    9   10 ar   
    20    9   14 ar   
    21   10   11 ar   
    22   10   71 1    
    23   11   12 ar   
    24   11   61 1    
    25   12   13 ar   
    26   12   72 1    
    27   13   14 ar   
    28   13   15 1    
    29   14   73 1    
    30   15   16 1    
    31   15   74 1    
    32   15   75 1    
    33   16   17 1    
    34   17   18 1    
    35   17   76 1    
    36   17   77 1    
    37   18   19 1    
    38   18   27 1    
    39   18   78 1    
    40   19   20 am   BACKBONE|DICT|INTERRES
    41   19   79 1    
    42   20   21 2    
    43   20   22 1    
    44   22   23 1    
    45   22   24 1    
    46   22   80 1    
    47   23   81 1    
    48   23   82 1    
    49   23   83 1    
    50   24   25 am   BACKBONE|DICT|INTERRES
    51   24   84 1    
    52   25   26 2    
    53   27   28 2    
    54   27   29 am   BACKBONE|DICT|INTERRES
    55   29   30 1    
    56   29   85 1    
    57   30   31 1    
    58   30   32 1    
    59   30   86 1    
    60   31   87 1    
    61   31   88 1    
    62   31   89 1    
    63   32   33 2    
    64   32   34 am   BACKBONE|DICT|INTERRES
    65   34   35 1    
    66   34   90 1    
    67   35   36 1    
    68   35   37 1    
    69   35   91 1    
    70   36   92 1    
    71   36   93 1    
    72   36   94 1    
    73   37   38 2    
    74   37   39 am   BACKBONE|DICT|INTERRES
    75   39   40 1    
    76   39   95 1    
    77   40   41 1    
    78   40   42 1    
    79   40   96 1    
    80   41   97 1    
    81   41   98 1    
    82   41   99 1    
    83   42   43 2    
    84   42   44 am   BACKBONE|DICT|INTERRES
    85   44   45 1    
    86   44  100 1    
    87   45   46 1    
    88   45   47 1    
    89   45  101 1    
    90   46  102 1    
    91   46  103 1    
    92   46  104 1    
    93   47   48 2    
    94   47   49 am   BACKBONE|DICT|INTERRES
    95   49   50 1    
    96   49  105 1    
    97   50   51 1    
    98   50   52 1    
    99   50  106 1    
   100   51  107 1    
   101   51  108 1    
   102   51  109 1    
   103   52   53 2    
   104   52   54 am   BACKBONE|DICT|INTERRES
   105   54   55 1    
   106   54  110 1    
   107   55   56 1    
   108   55   59 1    
   109   55  111 1    
   110   56   57 am   BACKBONE|DICT|INTERRES
   111   56   58 2    
   112   57  112 1    
   113   57  113 1    
   114   59   60 1    
   115   59  114 1    
   116   59  115 1    
   117   60   61 1    
   118   61  116 1    
   119   61  117 1    
@<TRIPOS>SUBSTRUCTURE
     1 UNK         1 GROUP             0       ****    0 ROOT    
