@<TRIPOS>MOLECULE
3R8
117   119    1
SMALL
USER_CHARGES


@<TRIPOS>ATOM
      1 CA         23.4661  -22.2304  -47.4557 C.3       0 UNK        -0.2013 
      2 C          22.6903  -22.9870  -46.3878 C.2       0 UNK         0.4866 
      3 O          22.2561  -22.3857  -45.4048 O.2       0 UNK        -0.5176 
      4 N          22.5189  -24.3031  -46.5673 N.am      1 UNK        -0.4884 
      5 CA         21.7422  -25.1693  -45.6767 C.3       1 UNK         0.0853 
      6 C6         22.0961  -26.6600  -45.9109 C.3       10 UNK        -0.0849 
      7 S7         21.2794  -27.8069  -44.7445 S.3       10 UNK        -0.2776 
      8 C8         20.7494  -29.1228  -45.8864 C.3       10 UNK         0.0316 
      9 C9         19.8117  -30.0917  -45.1882 C.ar      10 UNK        -0.0863 
     10 C10        20.3161  -31.1951  -44.4940 C.ar      10 UNK        -0.1009 
     11 C11        19.4510  -32.0594  -43.8158 C.ar      10 UNK        -0.0712 
     12 C12        18.0761  -31.8020  -43.8208 C.ar      10 UNK        -0.0894 
     13 C13        17.5581  -30.7082  -44.5212 C.ar      10 UNK        -0.0745 
     14 C14        18.4324  -29.8737  -45.2268 C.ar      10 UNK        -0.0972 
     15 C15        16.0553  -30.4421  -44.5125 C.3       10 UNK         0.0209 
     16 S16        15.6286  -28.6863  -44.2507 S.3       10 UNK        -0.2568 
     17 C17        16.2358  -28.3786  -42.5550 C.3       10 UNK        -0.0983 
     18 CA         17.7124  -27.8955  -42.4952 C.3       3 UNK         0.0876 
     19 N          18.0521  -26.8042  -43.4234 N.am      3 UNK        -0.4424 
     20 C          17.5015  -25.5851  -43.5160 C.2       2 UNK         0.4918 
     21 O          16.6210  -25.1734  -42.7588 O.2       2 UNK        -0.4875 
     22 CA         18.0704  -24.6655  -44.6104 C.3       2 UNK         0.0481 
     23 CB         17.7334  -23.1794  -44.3844 C.3       2 UNK        -0.1831 
     24 N          19.5214  -24.8340  -44.7030 N.am      2 UNK        -0.4498 
     25 C          20.2311  -24.8897  -45.8363 C.2       1 UNK         0.5027 
     26 O          19.7473  -24.7638  -46.9642 O.2       1 UNK        -0.4969 
     27 C          18.1595  -27.6121  -41.0494 C.2       3 UNK         0.5005 
     28 O          18.8862  -28.4215  -40.4718 O.2       3 UNK        -0.5279 
     29 N          17.7865  -26.4422  -40.5122 N.am      4 UNK        -0.4463 
     30 CA         18.1756  -25.9348  -39.1900 C.3       4 UNK         0.0283 
     31 CB         17.4172  -24.6270  -38.9127 C.3       4 UNK        -0.1875 
     32 C          19.6931  -25.7222  -39.0224 C.2       4 UNK         0.4949 
     33 O          20.1791  -25.6943  -37.8921 O.2       4 UNK        -0.5039 
     34 N          20.4121  -25.6000  -40.1473 N.am      5 UNK        -0.4663 
     35 CA         21.8733  -25.5593  -40.2208 C.3       5 UNK         0.0242 
     36 CB         22.2889  -25.1489  -41.6432 C.3       5 UNK        -0.1982 
     37 C          22.5455  -26.8922  -39.8380 C.2       5 UNK         0.5017 
     38 O          23.7006  -26.8626  -39.4136 O.2       5 UNK        -0.5012 
     39 N          21.8209  -28.0152  -39.9943 N.am      6 UNK        -0.4439 
     40 CA         22.2297  -29.3943  -39.7014 C.3       6 UNK         0.0297 
     41 CB         22.2834  -29.6214  -38.1765 C.3       6 UNK        -0.2006 
     42 C          23.5394  -29.7902  -40.4093 C.2       6 UNK         0.4892 
     43 O          24.5446  -30.0621  -39.7473 O.2       6 UNK        -0.5089 
     44 N          23.5113  -29.7867  -41.7498 N.am      7 UNK        -0.4243 
     45 CA         24.6388  -30.1280  -42.6239 C.3       7 UNK         0.0196 
     46 CB         24.3462  -29.6174  -44.0457 C.3       7 UNK        -0.2007 
     47 C          24.9588  -31.6357  -42.5946 C.2       7 UNK         0.5020 
     48 O          24.6757  -32.3512  -43.5577 O.2       7 UNK        -0.5147 
     49 N          25.5194  -32.0860  -41.4647 N.am      8 UNK        -0.4734 
     50 CA         25.8696  -33.4574  -41.0743 C.3       8 UNK         0.0238 
     51 CB         26.8814  -34.0988  -42.0458 C.3       8 UNK        -0.1912 
     52 C          24.6381  -34.3495  -40.8523 C.2       8 UNK         0.5038 
     53 O          24.4493  -34.8458  -39.7413 O.2       8 UNK        -0.5046 
     54 N          23.8258  -34.5176  -41.9024 N.am      9 UNK        -0.4200 
     55 CA         22.5635  -35.2749  -41.9277 C.3       9 UNK         0.0839 
     56 C          22.7003  -36.7978  -41.6172 C.2       9 UNK         0.5513 
     57 N          23.8702  -37.4007  -41.7929 N.am      9 UNK        -0.7519 
     58 O          21.7304  -37.4536  -41.2450 O.2       9 UNK        -0.4960 
     59 C59        21.4349  -34.5807  -41.1094 C.3       10 UNK        -0.0876 
     60 S60        21.0620  -32.8921  -41.6999 S.3       10 UNK        -0.2414 
     61 C61        19.9942  -33.2966  -43.1173 C.3       10 UNK         0.0169 
     62 H62        22.8406  -21.4525  -47.8927 H         1 UNK         0.0903 
     63 H63        24.3433  -21.7559  -47.0168 H         1 UNK         0.0903 
     64 H64        23.8018  -22.8864  -48.2587 H         1 UNK         0.0903 
     65 H65        22.8685  -24.7373  -47.4098 H         1 UNK         0.3096 
     66 H66        22.0317  -24.9169  -44.6545 H         1 UNK         0.1121 
     67 H67        21.8586  -26.9430  -46.9382 H         1 UNK         0.0849 
     68 H68        23.1729  -26.8025  -45.8058 H         1 UNK         0.0849 
     69 H69        21.6248  -29.6496  -46.2696 H         1 UNK         0.0865 
     70 H70        20.2490  -28.6840  -46.7514 H         1 UNK         0.0865 
     71 H71        21.3810  -31.3836  -44.4765 H         1 UNK         0.1346 
     72 H72        17.4058  -32.4640  -43.2896 H         1 UNK         0.1412 
     73 H73        18.0399  -29.0278  -45.7745 H         1 UNK         0.1426 
     74 H74        15.5587  -31.0395  -43.7463 H         1 UNK         0.0716 
     75 H75        15.6417  -30.7622  -45.4696 H         1 UNK         0.0716 
     76 H76        16.1107  -29.2896  -41.9666 H         1 UNK         0.0695 
     77 H77        15.5739  -27.6372  -42.1040 H         1 UNK         0.0695 
     78 H78        18.3364  -28.7311  -42.8091 H         1 UNK         0.0983 
     79 H79        18.7836  -27.0312  -44.0830 H         1 UNK         0.3095 
     80 H80        17.6021  -24.9846  -45.5438 H         1 UNK         0.0454 
     81 H81        18.1280  -22.5576  -45.1880 H         1 UNK         0.0851 
     82 H82        18.1448  -22.8120  -43.4437 H         1 UNK         0.0851 
     83 H83        16.6546  -23.0209  -44.3551 H         1 UNK         0.0851 
     84 H84        20.0054  -24.9448  -43.8239 H         1 UNK         0.2976 
     85 H85        17.2111  -25.8348  -41.0918 H         1 UNK         0.3116 
     86 H86        17.8688  -26.6756  -38.4489 H         1 UNK         0.0646 
     87 H87        17.6631  -24.2338  -37.9252 H         1 UNK         0.0847 
     88 H88        16.3382  -24.7801  -38.9383 H         1 UNK         0.0847 
     89 H89        17.6644  -23.8547  -39.6423 H         1 UNK         0.0847 
     90 H90        19.9106  -25.6162  -41.0214 H         1 UNK         0.3040 
     91 H91        22.2271  -24.7992  -39.5205 H         1 UNK         0.1015 
     92 H92        21.8655  -24.1836  -41.9217 H         1 UNK         0.0786 
     93 H93        21.9741  -25.8878  -42.3806 H         1 UNK         0.0786 
     94 H94        23.3735  -25.0581  -41.7201 H         1 UNK         0.0786 
     95 H95        20.8615  -27.9205  -40.3128 H         1 UNK         0.3172 
     96 H96        21.4480  -30.0416  -40.1026 H         1 UNK         0.0595 
     97 H97        23.0426  -29.0002  -37.6999 H         1 UNK         0.0839 
     98 H98        22.5205  -30.6608  -37.9457 H         1 UNK         0.0839 
     99 H99        21.3247  -29.3956  -37.7096 H         1 UNK         0.0839 
    100 H100       22.6412  -29.5604  -42.2101 H         1 UNK         0.2998 
    101 H101       25.5240  -29.5998  -42.2627 H         1 UNK         0.0822 
    102 H102       23.4488  -30.0742  -44.4628 H         1 UNK         0.0787 
    103 H103       24.2107  -28.5359  -44.0573 H         1 UNK         0.0787 
    104 H104       25.1718  -29.8463  -44.7208 H         1 UNK         0.0787 
    105 H105       25.5777  -31.4036  -40.7120 H         1 UNK         0.3055 
    106 H106       26.3653  -33.3694  -40.1057 H         1 UNK         0.1106 
    107 H107       27.1895  -35.0827  -41.6896 H         1 UNK         0.0828 
    108 H108       26.4711  -34.2327  -43.0468 H         1 UNK         0.0828 
    109 H109       27.7821  -33.4915  -42.1341 H         1 UNK         0.0828 
    110 H110       24.0562  -34.0032  -42.7474 H         1 UNK         0.2931 
    111 H111       22.2552  -35.2581  -42.9728 H         1 UNK         0.0412 
    112 H112       24.6707  -36.8787  -42.1115 H         1 UNK         0.3472 
    113 H113       23.9522  -38.3871  -41.6015 H         1 UNK         0.3472 
    114 H114       20.5120  -35.1624  -41.1433 H         1 UNK         0.0970 
    115 H115       21.7103  -34.5261  -40.0551 H         1 UNK         0.0970 
    116 H116       20.5602  -33.8836  -43.8412 H         1 UNK         0.0612 
    117 H117       19.1760  -33.9327  -42.7759 H         1 UNK         0.0612 
@<TRIPOS>BOND
     1    1    2 1    
     2    1   62 1    
     3    1   63 1    
     4    1   64 1    
     5    2    3 2    
     6    2    4 am   BACKBONE|DICT|INTERRES
     7    4    5 1    
     8    4   65 1    
     9    5    6 1    
    10    5   25 1    
    11    5   66 1    
    12    6    7 1    
    13    6   67 1    
    14    6   68 1    
    15    7    8 1    
    16    8    9 1    
    17    8   69 1    
    18    8   70 1    
    19    9   10 ar   
    20    9   14 ar   
    21   10   11 ar   
    22   10   71 1    
    23   11   12 ar   
    24   11   61 1    
    25   12   13 ar   
    26   12   72 1    
    27   13   14 ar   
    28   13   15 1    
    29   14   73 1    
    30   15   16 1    
    31   15   74 1    
    32   15   75 1    
    33   16   17 1    
    34   17   18 1    
    35   17   76 1    
    36   17   77 1    
    37   18   19 1    
    38   18   27 1    
    39   18   78 1    
    40   19   20 am   BACKBONE|DICT|INTERRES
    41   19   79 1    
    42   20   21 2    
    43   20   22 1    
    44   22   23 1    
    45   22   24 1    
    46   22   80 1    
    47   23   81 1    
    48   23   82 1    
    49   23   83 1    
    50   24   25 am   BACKBONE|DICT|INTERRES
    51   24   84 1    
    52   25   26 2    
    53   27   28 2    
    54   27   29 am   BACKBONE|DICT|INTERRES
    55   29   30 1    
    56   29   85 1    
    57   30   31 1    
    58   30   32 1    
    59   30   86 1    
    60   31   87 1    
    61   31   88 1    
    62   31   89 1    
    63   32   33 2    
    64   32   34 am   BACKBONE|DICT|INTERRES
    65   34   35 1    
    66   34   90 1    
    67   35   36 1    
    68   35   37 1    
    69   35   91 1    
    70   36   92 1    
    71   36   93 1    
    72   36   94 1    
    73   37   38 2    
    74   37   39 am   BACKBONE|DICT|INTERRES
    75   39   40 1    
    76   39   95 1    
    77   40   41 1    
    78   40   42 1    
    79   40   96 1    
    80   41   97 1    
    81   41   98 1    
    82   41   99 1    
    83   42   43 2    
    84   42   44 am   BACKBONE|DICT|INTERRES
    85   44   45 1    
    86   44  100 1    
    87   45   46 1    
    88   45   47 1    
    89   45  101 1    
    90   46  102 1    
    91   46  103 1    
    92   46  104 1    
    93   47   48 2    
    94   47   49 am   BACKBONE|DICT|INTERRES
    95   49   50 1    
    96   49  105 1    
    97   50   51 1    
    98   50   52 1    
    99   50  106 1    
   100   51  107 1    
   101   51  108 1    
   102   51  109 1    
   103   52   53 2    
   104   52   54 am   BACKBONE|DICT|INTERRES
   105   54   55 1    
   106   54  110 1    
   107   55   56 1    
   108   55   59 1    
   109   55  111 1    
   110   56   57 am   BACKBONE|DICT|INTERRES
   111   56   58 2    
   112   57  112 1    
   113   57  113 1    
   114   59   60 1    
   115   59  114 1    
   116   59  115 1    
   117   60   61 1    
   118   61  116 1    
   119   61  117 1    
@<TRIPOS>SUBSTRUCTURE
     1 UNK         1 GROUP             0       ****    0 ROOT    
