@<TRIPOS>MOLECULE
3R8
117   119    1
SMALL
USER_CHARGES


@<TRIPOS>ATOM
      1 CA         17.8061  -26.7721  -41.2543 C.3       0 UNK        -0.2013 
      2 C          17.9875  -26.4473  -42.7289 C.2       0 UNK         0.4866 
      3 O          19.0876  -26.6172  -43.2578 O.2       0 UNK        -0.5176 
      4 N          16.9169  -25.9723  -43.3800 N.am      1 UNK        -0.4884 
      5 CA         16.8258  -25.6510  -44.8130 C.3       1 UNK         0.0853 
      6 C6         16.8639  -26.9173  -45.7193 C.3       10 UNK        -0.0849 
      7 S7         15.6381  -28.1813  -45.2283 S.3       10 UNK        -0.2776 
      8 C8         16.4246  -29.7250  -45.7990 C.3       10 UNK         0.0316 
      9 C9         17.7566  -29.9934  -45.1104 C.ar      10 UNK        -0.0863 
     10 C10        17.7957  -30.3598  -43.7621 C.ar      10 UNK        -0.1009 
     11 C11        19.0130  -30.6036  -43.1170 C.ar      10 UNK        -0.0712 
     12 C12        20.2047  -30.4555  -43.8442 C.ar      10 UNK        -0.0894 
     13 C13        20.1789  -30.1068  -45.1988 C.ar      10 UNK        -0.0745 
     14 C14        18.9513  -29.8846  -45.8266 C.ar      10 UNK        -0.0972 
     15 C15        21.4740  -29.9994  -45.9954 C.3       10 UNK         0.0209 
     16 S16        21.7726  -28.3187  -46.6324 S.3       10 UNK        -0.2568 
     17 C17        22.1235  -27.4272  -45.0841 C.3       10 UNK        -0.0983 
     18 CA         22.1860  -25.8900  -45.2665 C.3       3 UNK         0.0876 
     19 N          20.9578  -25.3610  -45.8664 N.am      3 UNK        -0.4424 
     20 C          20.8169  -24.1365  -46.3927 C.2       2 UNK         0.4918 
     21 O          21.7236  -23.3051  -46.4414 O.2       2 UNK        -0.4875 
     22 CA         19.4350  -23.7749  -46.9727 C.3       2 UNK         0.0481 
     23 CB         19.4628  -23.8580  -48.5073 C.3       2 UNK        -0.1831 
     24 N          18.3552  -24.6283  -46.4659 N.am      2 UNK        -0.4498 
     25 C          17.8540  -24.5661  -45.2231 C.2       1 UNK         0.5027 
     26 O          18.1860  -23.6996  -44.4095 O.2       1 UNK        -0.4969 
     27 C          22.5067  -25.2328  -43.9097 C.2       3 UNK         0.5005 
     28 O          23.6799  -25.1637  -43.5404 O.2       3 UNK        -0.5279 
     29 N          21.4571  -24.8039  -43.1884 N.am      4 UNK        -0.4463 
     30 CA         21.4505  -24.4337  -41.7683 C.3       4 UNK         0.0283 
     31 CB         22.3327  -23.1984  -41.4886 C.3       4 UNK        -0.1875 
     32 C          21.7912  -25.6516  -40.8865 C.2       4 UNK         0.4949 
     33 O          22.5812  -25.5411  -39.9476 O.2       4 UNK        -0.5039 
     34 N          21.1801  -26.7943  -41.2345 N.am      5 UNK        -0.4663 
     35 CA         21.3829  -28.1311  -40.6762 C.3       5 UNK         0.0242 
     36 CB         20.8870  -28.2052  -39.2133 C.3       5 UNK        -0.1982 
     37 C          22.8280  -28.6167  -40.8992 C.2       5 UNK         0.5017 
     38 O          23.2763  -28.6349  -42.0461 O.2       5 UNK        -0.5012 
     39 N          23.5168  -29.0182  -39.8211 N.am      6 UNK        -0.4439 
     40 CA         24.9353  -29.3960  -39.7089 C.3       6 UNK         0.0297 
     41 CB         25.8454  -28.2111  -40.0881 C.3       6 UNK        -0.2006 
     42 C          25.3781  -30.6738  -40.4508 C.2       6 UNK         0.4892 
     43 O          26.2959  -31.3394  -39.9699 O.2       6 UNK        -0.5089 
     44 N          24.7553  -30.9928  -41.5929 N.am      7 UNK        -0.4243 
     45 CA         25.0902  -32.1294  -42.4590 C.3       7 UNK         0.0196 
     46 CB         24.2562  -32.0452  -43.7477 C.3       7 UNK        -0.2007 
     47 C          24.9066  -33.5006  -41.7846 C.2       7 UNK         0.5020 
     48 O          25.7420  -34.3864  -41.9674 O.2       7 UNK        -0.5147 
     49 N          23.8262  -33.6360  -41.0110 N.am      8 UNK        -0.4734 
     50 CA         23.4709  -34.8002  -40.2043 C.3       8 UNK         0.0238 
     51 CB         23.0744  -36.0029  -41.0917 C.3       8 UNK        -0.1912 
     52 C          22.3562  -34.3270  -39.2695 C.2       8 UNK         0.5038 
     53 O          22.6534  -33.7874  -38.2034 O.2       8 UNK        -0.5046 
     54 N          21.1081  -34.4449  -39.7399 N.am      9 UNK        -0.4200 
     55 CA         19.9133  -33.7660  -39.2079 C.3       9 UNK         0.0839 
     56 C          19.4358  -34.2556  -37.8077 C.2       9 UNK         0.5513 
     57 N          19.8743  -35.4141  -37.3308 N.am      9 UNK        -0.7519 
     58 O          18.6312  -33.5943  -37.1562 O.2       9 UNK        -0.4960 
     59 C59        20.0222  -32.2141  -39.3025 C.3       10 UNK        -0.0876 
     60 S60        20.5464  -31.6461  -40.9599 S.3       10 UNK        -0.2414 
     61 C61        18.9738  -31.0233  -41.6442 C.3       10 UNK         0.0169 
     62 H62        18.1375  -27.7900  -41.0550 H         1 UNK         0.0903 
     63 H63        16.7648  -26.6911  -40.9436 H         1 UNK         0.0903 
     64 H64        18.3975  -26.0922  -40.6421 H         1 UNK         0.0903 
     65 H65        16.0606  -25.8293  -42.8636 H         1 UNK         0.3096 
     66 H66        15.8501  -25.1822  -44.9504 H         1 UNK         0.1121 
     67 H67        16.6540  -26.6633  -46.7595 H         1 UNK         0.0849 
     68 H68        17.8635  -27.3521  -45.6985 H         1 UNK         0.0849 
     69 H69        15.7477  -30.5583  -45.6050 H         1 UNK         0.0865 
     70 H70        16.5485  -29.6819  -46.8823 H         1 UNK         0.0865 
     71 H71        16.8690  -30.4529  -43.2121 H         1 UNK         0.1346 
     72 H72        21.1610  -30.6195  -43.3703 H         1 UNK         0.1412 
     73 H73        18.9318  -29.6135  -46.8735 H         1 UNK         0.1426 
     74 H74        22.3301  -30.3074  -45.3940 H         1 UNK         0.0716 
     75 H75        21.4275  -30.6905  -46.8380 H         1 UNK         0.0716 
     76 H76        23.0699  -27.8034  -44.6903 H         1 UNK         0.0695 
     77 H77        21.3610  -27.6928  -44.3491 H         1 UNK         0.0695 
     78 H78        23.0132  -25.6589  -45.9413 H         1 UNK         0.0983 
     79 H79        20.1677  -25.9885  -45.8714 H         1 UNK         0.3095 
     80 H80        19.2195  -22.7417  -46.6924 H         1 UNK         0.0454 
     81 H81        18.5132  -23.5431  -48.9403 H         1 UNK         0.0851 
     82 H82        19.6733  -24.8702  -48.8550 H         1 UNK         0.0851 
     83 H83        20.2348  -23.2063  -48.9191 H         1 UNK         0.0851 
     84 H84        18.0204  -25.3467  -47.0915 H         1 UNK         0.2976 
     85 H85        20.5392  -24.9532  -43.5925 H         1 UNK         0.3116 
     86 H86        20.4207  -24.1617  -41.5316 H         1 UNK         0.0646 
     87 H87        22.0754  -22.3693  -42.1475 H         1 UNK         0.0847 
     88 H88        22.1985  -22.8524  -40.4632 H         1 UNK         0.0847 
     89 H89        23.3934  -23.4142  -41.6173 H         1 UNK         0.0847 
     90 H90        20.5611  -26.7611  -42.0417 H         1 UNK         0.3040 
     91 H91        20.7532  -28.7865  -41.2760 H         1 UNK         0.1015 
     92 H92        21.4718  -27.5727  -38.5445 H         1 UNK         0.0786 
     93 H93        20.9283  -29.2260  -38.8319 H         1 UNK         0.0786 
     94 H94        19.8481  -27.8852  -39.1375 H         1 UNK         0.0786 
     95 H95        23.0202  -28.9945  -38.9413 H         1 UNK         0.3172 
     96 H96        25.0919  -29.5960  -38.6476 H         1 UNK         0.0595 
     97 H97        26.8940  -28.4487  -39.9037 H         1 UNK         0.0839 
     98 H98        25.6063  -27.3235  -39.5021 H         1 UNK         0.0839 
     99 H99        25.7537  -27.9491  -41.1428 H         1 UNK         0.0839 
    100 H100       24.0659  -30.3292  -41.9362 H         1 UNK         0.2998 
    101 H101       26.1445  -32.0358  -42.7277 H         1 UNK         0.0822 
    102 H102       24.4460  -31.1134  -44.2810 H         1 UNK         0.0787 
    103 H103       24.5027  -32.8627  -44.4267 H         1 UNK         0.0787 
    104 H104       23.1868  -32.1036  -43.5413 H         1 UNK         0.0787 
    105 H105       23.2156  -32.8358  -40.9043 H         1 UNK         0.3055 
    106 H106       24.3260  -35.0807  -39.5854 H         1 UNK         0.1106 
    107 H107       23.9414  -36.4081  -41.6134 H         1 UNK         0.0828 
    108 H108       22.6603  -36.8149  -40.4922 H         1 UNK         0.0828 
    109 H109       22.3369  -35.7348  -41.8488 H         1 UNK         0.0828 
    110 H110       20.9772  -34.9157  -40.6228 H         1 UNK         0.2931 
    111 H111       19.1075  -34.0608  -39.8811 H         1 UNK         0.0412 
    112 H112       19.5547  -35.7322  -36.4291 H         1 UNK         0.3472 
    113 H113       20.5303  -35.9666  -37.8596 H         1 UNK         0.3472 
    114 H114       19.0704  -31.7456  -39.0461 H         1 UNK         0.0970 
    115 H115       20.7425  -31.8409  -38.5728 H         1 UNK         0.0970 
    116 H116       18.2219  -31.8047  -41.5232 H         1 UNK         0.0612 
    117 H117       18.6430  -30.1751  -41.0443 H         1 UNK         0.0612 
@<TRIPOS>BOND
     1    1    2 1    
     2    1   62 1    
     3    1   63 1    
     4    1   64 1    
     5    2    3 2    
     6    2    4 am   BACKBONE|DICT|INTERRES
     7    4    5 1    
     8    4   65 1    
     9    5    6 1    
    10    5   25 1    
    11    5   66 1    
    12    6    7 1    
    13    6   67 1    
    14    6   68 1    
    15    7    8 1    
    16    8    9 1    
    17    8   69 1    
    18    8   70 1    
    19    9   10 ar   
    20    9   14 ar   
    21   10   11 ar   
    22   10   71 1    
    23   11   12 ar   
    24   11   61 1    
    25   12   13 ar   
    26   12   72 1    
    27   13   14 ar   
    28   13   15 1    
    29   14   73 1    
    30   15   16 1    
    31   15   74 1    
    32   15   75 1    
    33   16   17 1    
    34   17   18 1    
    35   17   76 1    
    36   17   77 1    
    37   18   19 1    
    38   18   27 1    
    39   18   78 1    
    40   19   20 am   BACKBONE|DICT|INTERRES
    41   19   79 1    
    42   20   21 2    
    43   20   22 1    
    44   22   23 1    
    45   22   24 1    
    46   22   80 1    
    47   23   81 1    
    48   23   82 1    
    49   23   83 1    
    50   24   25 am   BACKBONE|DICT|INTERRES
    51   24   84 1    
    52   25   26 2    
    53   27   28 2    
    54   27   29 am   BACKBONE|DICT|INTERRES
    55   29   30 1    
    56   29   85 1    
    57   30   31 1    
    58   30   32 1    
    59   30   86 1    
    60   31   87 1    
    61   31   88 1    
    62   31   89 1    
    63   32   33 2    
    64   32   34 am   BACKBONE|DICT|INTERRES
    65   34   35 1    
    66   34   90 1    
    67   35   36 1    
    68   35   37 1    
    69   35   91 1    
    70   36   92 1    
    71   36   93 1    
    72   36   94 1    
    73   37   38 2    
    74   37   39 am   BACKBONE|DICT|INTERRES
    75   39   40 1    
    76   39   95 1    
    77   40   41 1    
    78   40   42 1    
    79   40   96 1    
    80   41   97 1    
    81   41   98 1    
    82   41   99 1    
    83   42   43 2    
    84   42   44 am   BACKBONE|DICT|INTERRES
    85   44   45 1    
    86   44  100 1    
    87   45   46 1    
    88   45   47 1    
    89   45  101 1    
    90   46  102 1    
    91   46  103 1    
    92   46  104 1    
    93   47   48 2    
    94   47   49 am   BACKBONE|DICT|INTERRES
    95   49   50 1    
    96   49  105 1    
    97   50   51 1    
    98   50   52 1    
    99   50  106 1    
   100   51  107 1    
   101   51  108 1    
   102   51  109 1    
   103   52   53 2    
   104   52   54 am   BACKBONE|DICT|INTERRES
   105   54   55 1    
   106   54  110 1    
   107   55   56 1    
   108   55   59 1    
   109   55  111 1    
   110   56   57 am   BACKBONE|DICT|INTERRES
   111   56   58 2    
   112   57  112 1    
   113   57  113 1    
   114   59   60 1    
   115   59  114 1    
   116   59  115 1    
   117   60   61 1    
   118   61  116 1    
   119   61  117 1    
@<TRIPOS>SUBSTRUCTURE
     1 UNK         1 GROUP             0       ****    0 ROOT    
