@<TRIPOS>MOLECULE
3R8
117   119    1
SMALL
USER_CHARGES


@<TRIPOS>ATOM
      1 CA         16.5005  -28.6582  -41.3680 C.3       0 UNK        -0.2013 
      2 C          16.4161  -27.4285  -42.2573 C.2       0 UNK         0.4866 
      3 O          15.8948  -26.3987  -41.8273 O.2       0 UNK        -0.5176 
      4 N          16.9133  -27.5374  -43.4954 N.am      1 UNK        -0.4884 
      5 CA         16.9230  -26.4613  -44.4956 C.3       1 UNK         0.0853 
      6 C6         16.6298  -26.9840  -45.9316 C.3       10 UNK        -0.0849 
      7 S7         15.1661  -28.0784  -46.0016 S.3       10 UNK        -0.2776 
      8 C8         15.7859  -29.5340  -46.9121 C.3       10 UNK         0.0316 
      9 C9         17.0568  -30.1310  -46.3166 C.ar      10 UNK        -0.0863 
     10 C10        17.0411  -30.7331  -45.0531 C.ar      10 UNK        -0.1009 
     11 C11        18.2060  -31.3012  -44.5255 C.ar      10 UNK        -0.0712 
     12 C12        19.3825  -31.2794  -45.2785 C.ar      10 UNK        -0.0894 
     13 C13        19.4198  -30.6529  -46.5275 C.ar      10 UNK        -0.0745 
     14 C14        18.2510  -30.0900  -47.0451 C.ar      10 UNK        -0.0972 
     15 C15        20.7226  -30.5828  -47.3154 C.3       10 UNK         0.0209 
     16 S16        21.5490  -28.9632  -47.1501 S.3       10 UNK        -0.2568 
     17 C17        21.9993  -28.9712  -45.3806 C.3       10 UNK        -0.0983 
     18 CA         22.1893  -27.5746  -44.7309 C.3       3 UNK         0.0876 
     19 N          21.1669  -26.6177  -45.1570 N.am      3 UNK        -0.4424 
     20 C          21.2837  -25.2845  -45.1191 C.2       2 UNK         0.4918 
     21 O          22.2861  -24.6974  -44.7124 O.2       2 UNK        -0.4875 
     22 CA         20.0663  -24.4652  -45.5978 C.3       2 UNK         0.0481 
     23 CB         20.2856  -23.9819  -47.0400 C.3       2 UNK        -0.1831 
     24 N          18.7839  -25.1810  -45.5182 N.am      2 UNK        -0.4498 
     25 C          18.2471  -25.6682  -44.3882 C.2       1 UNK         0.5027 
     26 O          18.7939  -25.5316  -43.2922 O.2       1 UNK        -0.4969 
     27 C          22.2474  -27.7598  -43.1975 C.2       3 UNK         0.5005 
     28 O          23.1330  -28.4832  -42.7433 O.2       3 UNK        -0.5279 
     29 N          21.2992  -27.1840  -42.4361 N.am      4 UNK        -0.4463 
     30 CA         20.9904  -27.4954  -41.0306 C.3       4 UNK         0.0283 
     31 CB         20.0003  -26.4620  -40.4703 C.3       4 UNK        -0.1875 
     32 C          22.1758  -27.6497  -40.0639 C.2       4 UNK         0.4949 
     33 O          22.1340  -28.5467  -39.2216 O.2       4 UNK        -0.5039 
     34 N          23.1960  -26.7950  -40.1961 N.am      5 UNK        -0.4663 
     35 CA         24.3959  -26.8161  -39.3539 C.3       5 UNK         0.0242 
     36 CB         24.9033  -25.3734  -39.1910 C.3       5 UNK        -0.1982 
     37 C          25.5207  -27.7156  -39.9010 C.2       5 UNK         0.5017 
     38 O          26.4587  -28.0054  -39.1576 O.2       5 UNK        -0.5012 
     39 N          25.4378  -28.1102  -41.1780 N.am      6 UNK        -0.4439 
     40 CA         26.4741  -28.8544  -41.8979 C.3       6 UNK         0.0297 
     41 CB         26.6799  -28.2137  -43.2810 C.3       6 UNK        -0.2006 
     42 C          26.1255  -30.3416  -42.0532 C.2       6 UNK         0.4892 
     43 O          27.0311  -31.1736  -41.9909 O.2       6 UNK        -0.5089 
     44 N          24.8373  -30.6443  -42.2700 N.am      7 UNK        -0.4243 
     45 CA         24.2897  -31.9909  -42.4558 C.3       7 UNK         0.0196 
     46 CB         22.7918  -31.9177  -42.8064 C.3       7 UNK        -0.2007 
     47 C          24.5875  -32.9849  -41.3094 C.2       7 UNK         0.5020 
     48 O          25.0991  -34.0641  -41.6026 O.2       7 UNK        -0.5147 
     49 N          24.3396  -32.6734  -40.0279 N.am      8 UNK        -0.4734 
     50 CA         23.5020  -31.5984  -39.4914 C.3       8 UNK         0.0238 
     51 CB         24.0928  -31.1417  -38.1475 C.3       8 UNK        -0.1912 
     52 C          22.0640  -32.1086  -39.3052 C.2       8 UNK         0.5038 
     53 O          21.8571  -33.3127  -39.1308 O.2       8 UNK        -0.5046 
     54 N          21.1035  -31.1828  -39.3313 N.am      9 UNK        -0.4200 
     55 CA         19.6656  -31.4552  -39.1907 C.3       9 UNK         0.0839 
     56 C          18.8515  -30.2845  -38.5717 C.2       9 UNK         0.5513 
     57 N          19.4648  -29.1793  -38.1641 N.am      9 UNK        -0.7519 
     58 O          17.6371  -30.3924  -38.4242 O.2       9 UNK        -0.4960 
     59 C59        19.0311  -32.0446  -40.4832 C.3       10 UNK        -0.0876 
     60 S60        19.1740  -30.9724  -41.9534 S.3       10 UNK        -0.2414 
     61 C61        18.2072  -31.9485  -43.1486 C.3       10 UNK         0.0169 
     62 H62        16.5084  -29.5752  -41.9557 H         1 UNK         0.0903 
     63 H63        17.4077  -28.6240  -40.7658 H         1 UNK         0.0903 
     64 H64        15.6462  -28.7030  -40.6930 H         1 UNK         0.0903 
     65 H65        17.3349  -28.4074  -43.7891 H         1 UNK         0.3096 
     66 H66        16.1318  -25.7488  -44.2518 H         1 UNK         0.1121 
     67 H67        16.4370  -26.1490  -46.6076 H         1 UNK         0.0849 
     68 H68        17.4980  -27.5044  -46.3355 H         1 UNK         0.0849 
     69 H69        15.0072  -30.2979  -46.9240 H         1 UNK         0.0865 
     70 H70        15.9442  -29.2505  -47.9538 H         1 UNK         0.0865 
     71 H71        16.1209  -30.7581  -44.4851 H         1 UNK         0.1346 
     72 H72        20.2801  -31.7249  -44.8718 H         1 UNK         0.1412 
     73 H73        18.2766  -29.6151  -48.0167 H         1 UNK         0.1426 
     74 H74        20.5191  -30.7677  -48.3712 H         1 UNK         0.0716 
     75 H75        21.4078  -31.3697  -46.9959 H         1 UNK         0.0716 
     76 H76        21.2311  -29.5158  -44.8353 H         1 UNK         0.0695 
     77 H77        22.9129  -29.5591  -45.2743 H         1 UNK         0.0695 
     78 H78        23.1622  -27.1885  -45.0430 H         1 UNK         0.0983 
     79 H79        20.3228  -27.0178  -45.5379 H         1 UNK         0.3095 
     80 H80        19.9929  -23.5877  -44.9521 H         1 UNK         0.0454 
     81 H81        21.2165  -23.4193  -47.1260 H         1 UNK         0.0851 
     82 H82        20.3442  -24.8153  -47.7414 H         1 UNK         0.0851 
     83 H83        19.4816  -23.3220  -47.3661 H         1 UNK         0.0851 
     84 H84        18.2908  -25.3137  -46.3893 H         1 UNK         0.2976 
     85 H85        20.6181  -26.5950  -42.9026 H         1 UNK         0.3116 
     86 H86        20.4819  -28.4602  -41.0423 H         1 UNK         0.0646 
     87 H87        19.8435  -26.5958  -39.3992 H         1 UNK         0.0847 
     88 H88        19.0229  -26.5552  -40.9406 H         1 UNK         0.0847 
     89 H89        20.3518  -25.4412  -40.6224 H         1 UNK         0.0847 
     90 H90        23.1488  -26.0929  -40.9210 H         1 UNK         0.3040 
     91 H91        24.1368  -27.1958  -38.3626 H         1 UNK         0.1015 
     92 H92        25.1910  -24.9353  -40.1476 H         1 UNK         0.0786 
     93 H93        25.7778  -25.3366  -38.5396 H         1 UNK         0.0786 
     94 H94        24.1423  -24.7339  -38.7432 H         1 UNK         0.0786 
     95 H95        24.5798  -27.9220  -41.6898 H         1 UNK         0.3172 
     96 H96        27.4219  -28.7915  -41.3591 H         1 UNK         0.0595 
     97 H97        27.4566  -28.7361  -43.8414 H         1 UNK         0.0839 
     98 H98        26.9904  -27.1726  -43.1922 H         1 UNK         0.0839 
     99 H99        25.7696  -28.2417  -43.8815 H         1 UNK         0.0839 
    100 H100       24.1772  -29.8743  -42.3636 H         1 UNK         0.2998 
    101 H101       24.7933  -32.3973  -43.3355 H         1 UNK         0.0822 
    102 H102       22.2377  -31.2689  -42.1298 H         1 UNK         0.0787 
    103 H103       22.6488  -31.5295  -43.8140 H         1 UNK         0.0787 
    104 H104       22.3254  -32.9034  -42.7740 H         1 UNK         0.0787 
    105 H105       24.5681  -33.3838  -39.3481 H         1 UNK         0.3055 
    106 H106       23.4793  -30.7372  -40.1560 H         1 UNK         0.1106 
    107 H107       24.1298  -31.9551  -37.4218 H         1 UNK         0.0828 
    108 H108       25.1050  -30.7562  -38.2735 H         1 UNK         0.0828 
    109 H109       23.4980  -30.3404  -37.7075 H         1 UNK         0.0828 
    110 H110       21.3664  -30.2057  -39.4229 H         1 UNK         0.2931 
    111 H111       19.5796  -32.2325  -38.4289 H         1 UNK         0.0412 
    112 H112       18.9107  -28.4522  -37.7410 H         1 UNK         0.3472 
    113 H113       20.4629  -29.0501  -38.2676 H         1 UNK         0.3472 
    114 H114       17.9777  -32.2774  -40.3168 H         1 UNK         0.0970 
    115 H115       19.5057  -32.9988  -40.7168 H         1 UNK         0.0970 
    116 H116       18.6304  -32.9513  -43.2221 H         1 UNK         0.0612 
    117 H117       17.1882  -32.0651  -42.7764 H         1 UNK         0.0612 
@<TRIPOS>BOND
     1    1    2 1    
     2    1   62 1    
     3    1   63 1    
     4    1   64 1    
     5    2    3 2    
     6    2    4 am   BACKBONE|DICT|INTERRES
     7    4    5 1    
     8    4   65 1    
     9    5    6 1    
    10    5   25 1    
    11    5   66 1    
    12    6    7 1    
    13    6   67 1    
    14    6   68 1    
    15    7    8 1    
    16    8    9 1    
    17    8   69 1    
    18    8   70 1    
    19    9   10 ar   
    20    9   14 ar   
    21   10   11 ar   
    22   10   71 1    
    23   11   12 ar   
    24   11   61 1    
    25   12   13 ar   
    26   12   72 1    
    27   13   14 ar   
    28   13   15 1    
    29   14   73 1    
    30   15   16 1    
    31   15   74 1    
    32   15   75 1    
    33   16   17 1    
    34   17   18 1    
    35   17   76 1    
    36   17   77 1    
    37   18   19 1    
    38   18   27 1    
    39   18   78 1    
    40   19   20 am   BACKBONE|DICT|INTERRES
    41   19   79 1    
    42   20   21 2    
    43   20   22 1    
    44   22   23 1    
    45   22   24 1    
    46   22   80 1    
    47   23   81 1    
    48   23   82 1    
    49   23   83 1    
    50   24   25 am   BACKBONE|DICT|INTERRES
    51   24   84 1    
    52   25   26 2    
    53   27   28 2    
    54   27   29 am   BACKBONE|DICT|INTERRES
    55   29   30 1    
    56   29   85 1    
    57   30   31 1    
    58   30   32 1    
    59   30   86 1    
    60   31   87 1    
    61   31   88 1    
    62   31   89 1    
    63   32   33 2    
    64   32   34 am   BACKBONE|DICT|INTERRES
    65   34   35 1    
    66   34   90 1    
    67   35   36 1    
    68   35   37 1    
    69   35   91 1    
    70   36   92 1    
    71   36   93 1    
    72   36   94 1    
    73   37   38 2    
    74   37   39 am   BACKBONE|DICT|INTERRES
    75   39   40 1    
    76   39   95 1    
    77   40   41 1    
    78   40   42 1    
    79   40   96 1    
    80   41   97 1    
    81   41   98 1    
    82   41   99 1    
    83   42   43 2    
    84   42   44 am   BACKBONE|DICT|INTERRES
    85   44   45 1    
    86   44  100 1    
    87   45   46 1    
    88   45   47 1    
    89   45  101 1    
    90   46  102 1    
    91   46  103 1    
    92   46  104 1    
    93   47   48 2    
    94   47   49 am   BACKBONE|DICT|INTERRES
    95   49   50 1    
    96   49  105 1    
    97   50   51 1    
    98   50   52 1    
    99   50  106 1    
   100   51  107 1    
   101   51  108 1    
   102   51  109 1    
   103   52   53 2    
   104   52   54 am   BACKBONE|DICT|INTERRES
   105   54   55 1    
   106   54  110 1    
   107   55   56 1    
   108   55   59 1    
   109   55  111 1    
   110   56   57 am   BACKBONE|DICT|INTERRES
   111   56   58 2    
   112   57  112 1    
   113   57  113 1    
   114   59   60 1    
   115   59  114 1    
   116   59  115 1    
   117   60   61 1    
   118   61  116 1    
   119   61  117 1    
@<TRIPOS>SUBSTRUCTURE
     1 UNK         1 GROUP             0       ****    0 ROOT    
