@<TRIPOS>MOLECULE
3R8
117   119    1
SMALL
USER_CHARGES


@<TRIPOS>ATOM
      1 CA         17.4112  -28.5372  -40.8604 C.3       0 UNK        -0.2013 
      2 C          16.9070  -27.2026  -41.3837 C.2       0 UNK         0.4866 
      3 O          15.9340  -26.6629  -40.8566 O.2       0 UNK        -0.5176 
      4 N          17.5563  -26.6772  -42.4273 N.am      1 UNK        -0.4884 
      5 CA         17.2070  -25.4179  -43.0806 C.3       1 UNK         0.0853 
      6 C6         16.0949  -25.5863  -44.1558 C.3       10 UNK        -0.0849 
      7 S7         16.5286  -26.6245  -45.5958 S.3       10 UNK        -0.2776 
      8 C8         16.1846  -28.3247  -45.0092 C.3       10 UNK         0.0316 
      9 C9         17.3901  -29.2690  -45.0605 C.ar      10 UNK        -0.0863 
     10 C10        17.4048  -30.4060  -44.2459 C.ar      10 UNK        -0.1009 
     11 C11        18.4473  -31.3348  -44.3311 C.ar      10 UNK        -0.0712 
     12 C12        19.5045  -31.1004  -45.2178 C.ar      10 UNK        -0.0894 
     13 C13        19.5220  -29.9628  -46.0324 C.ar      10 UNK        -0.0745 
     14 C14        18.4466  -29.0684  -45.9572 C.ar      10 UNK        -0.0972 
     15 C15        20.6787  -29.7697  -47.0208 C.3       10 UNK         0.0209 
     16 S16        20.8244  -28.0856  -47.7282 S.3       10 UNK        -0.2568 
     17 C17        22.4138  -27.4491  -47.0836 C.3       10 UNK        -0.0983 
     18 CA         22.3175  -26.4975  -45.8571 C.3       3 UNK         0.0876 
     19 N          21.1613  -25.5953  -45.9033 N.am      3 UNK        -0.4424 
     20 C          21.1027  -24.4109  -45.2800 C.2       2 UNK         0.4918 
     21 O          22.0369  -23.9216  -44.6445 O.2       2 UNK        -0.4875 
     22 CA         19.7737  -23.6414  -45.3827 C.3       2 UNK         0.0481 
     23 CB         19.4584  -23.2578  -46.8388 C.3       2 UNK        -0.1831 
     24 N          18.6388  -24.3676  -44.8052 N.am      2 UNK        -0.4498 
     25 C          18.5055  -24.7078  -43.5151 C.2       1 UNK         0.5027 
     26 O          19.3565  -24.4655  -42.6577 O.2       1 UNK        -0.4969 
     27 C          22.3745  -27.2678  -44.5277 C.2       3 UNK         0.5005 
     28 O          23.4432  -27.3543  -43.9179 O.2       3 UNK        -0.5279 
     29 N          21.2294  -27.8418  -44.1245 N.am      4 UNK        -0.4463 
     30 CA         21.0043  -28.6304  -42.9035 C.3       4 UNK         0.0283 
     31 CB         21.0078  -27.7041  -41.6691 C.3       4 UNK        -0.1875 
     32 C          21.9684  -29.8222  -42.7187 C.2       4 UNK         0.4949 
     33 O          22.1747  -30.2527  -41.5852 O.2       4 UNK        -0.5039 
     34 N          22.5766  -30.2982  -43.8165 N.am      5 UNK        -0.4663 
     35 CA         23.6603  -31.2884  -43.8739 C.3       5 UNK         0.0242 
     36 CB         23.1184  -32.6986  -43.5663 C.3       5 UNK        -0.1982 
     37 C          24.8687  -30.8987  -42.9952 C.2       5 UNK         0.5017 
     38 O          25.4190  -31.7501  -42.2966 O.2       5 UNK        -0.5012 
     39 N          25.2269  -29.6035  -43.0172 N.am      6 UNK        -0.4439 
     40 CA         26.2368  -28.9562  -42.1684 C.3       6 UNK         0.0297 
     41 CB         27.6525  -29.5038  -42.4519 C.3       6 UNK        -0.2006 
     42 C          25.8482  -29.0034  -40.6768 C.2       6 UNK         0.4892 
     43 O          26.6762  -29.3310  -39.8258 O.2       6 UNK        -0.5089 
     44 N          24.5734  -28.6829  -40.4122 N.am      7 UNK        -0.4243 
     45 CA         23.8808  -28.6538  -39.1173 C.3       7 UNK         0.0196 
     46 CB         24.5810  -27.7091  -38.1176 C.3       7 UNK        -0.2007 
     47 C          23.5848  -30.0368  -38.5043 C.2       7 UNK         0.5020 
     48 O          23.0455  -30.0887  -37.3980 O.2       7 UNK        -0.5147 
     49 N          23.8744  -31.1330  -39.2206 N.am      8 UNK        -0.4734 
     50 CA         23.5529  -32.5015  -38.7984 C.3       8 UNK         0.0238 
     51 CB         24.2924  -33.5094  -39.6906 C.3       8 UNK        -0.1912 
     52 C          22.0407  -32.7953  -38.7755 C.2       8 UNK         0.5038 
     53 O          21.6080  -33.6281  -37.9776 O.2       8 UNK        -0.5046 
     54 N          21.2671  -32.0954  -39.6162 N.am      9 UNK        -0.4200 
     55 CA         19.7951  -32.1046  -39.6107 C.3       9 UNK         0.0839 
     56 C          19.1644  -31.2490  -38.4712 C.2       9 UNK         0.5513 
     57 N          19.9298  -30.5198  -37.6661 N.am      9 UNK        -0.7519 
     58 O          17.9469  -31.2505  -38.3110 O.2       9 UNK        -0.4960 
     59 C59        19.2090  -31.7035  -40.9908 C.3       10 UNK        -0.0876 
     60 S60        19.7367  -32.8165  -42.3335 S.3       10 UNK        -0.2414 
     61 C61        18.3838  -32.6360  -43.5372 C.3       10 UNK         0.0169 
     62 H62        16.5821  -29.1432  -40.4954 H         1 UNK         0.0903 
     63 H63        17.9107  -29.0970  -41.6480 H         1 UNK         0.0903 
     64 H64        18.1104  -28.3852  -40.0386 H         1 UNK         0.0903 
     65 H65        18.3670  -27.1426  -42.8072 H         1 UNK         0.3096 
     66 H66        16.7965  -24.7511  -42.3182 H         1 UNK         0.1121 
     67 H67        15.1955  -25.9935  -43.6911 H         1 UNK         0.0849 
     68 H68        15.7944  -24.6056  -44.5290 H         1 UNK         0.0849 
     69 H69        15.7832  -28.2925  -43.9959 H         1 UNK         0.0865 
     70 H70        15.3947  -28.7463  -45.6320 H         1 UNK         0.0865 
     71 H71        16.5768  -30.5929  -43.5754 H         1 UNK         0.1346 
     72 H72        20.3043  -31.8249  -45.2891 H         1 UNK         0.1412 
     73 H73        18.4119  -28.2218  -46.6247 H         1 UNK         0.1426 
     74 H74        20.5322  -30.4660  -47.8475 H         1 UNK         0.0716 
     75 H75        21.6197  -30.0553  -46.5516 H         1 UNK         0.0716 
     76 H76        22.8622  -26.8911  -47.9070 H         1 UNK         0.0695 
     77 H77        23.1058  -28.2742  -46.9033 H         1 UNK         0.0695 
     78 H78        23.2182  -25.8787  -45.8752 H         1 UNK         0.0983 
     79 H79        20.3638  -25.9191  -46.4310 H         1 UNK         0.3095 
     80 H80        19.8893  -22.7148  -44.8164 H         1 UNK         0.0454 
     81 H81        20.2977  -22.7304  -47.2943 H         1 UNK         0.0851 
     82 H82        18.5956  -22.5939  -46.8935 H         1 UNK         0.0851 
     83 H83        19.2463  -24.1299  -47.4582 H         1 UNK         0.0851 
     84 H84        17.9036  -24.6500  -45.4405 H         1 UNK         0.2976 
     85 H85        20.4320  -27.7560  -44.7392 H         1 UNK         0.3116 
     86 H86        20.0082  -29.0622  -42.9998 H         1 UNK         0.0646 
     87 H87        21.9959  -27.2808  -41.4889 H         1 UNK         0.0847 
     88 H88        20.3173  -26.8712  -41.7874 H         1 UNK         0.0847 
     89 H89        20.7116  -28.2414  -40.7672 H         1 UNK         0.0847 
     90 H90        22.3396  -29.8567  -44.6914 H         1 UNK         0.3040 
     91 H91        24.0285  -31.2950  -44.9011 H         1 UNK         0.1015 
     92 H92        23.8994  -33.4536  -43.6630 H         1 UNK         0.0786 
     93 H93        22.3178  -32.9732  -44.2525 H         1 UNK         0.0786 
     94 H94        22.7232  -32.7633  -42.5533 H         1 UNK         0.0786 
     95 H95        24.6648  -28.9655  -43.5742 H         1 UNK         0.3172 
     96 H96        26.2341  -27.9017  -42.4487 H         1 UNK         0.0595 
     97 H97        27.7607  -30.5420  -42.1370 H         1 UNK         0.0839 
     98 H98        28.4062  -28.9256  -41.9160 H         1 UNK         0.0839 
     99 H99        27.8954  -29.4472  -43.5128 H         1 UNK         0.0839 
    100 H100       23.9815  -28.4920  -41.2090 H         1 UNK         0.2998 
    101 H101       22.9008  -28.2241  -39.3272 H         1 UNK         0.0822 
    102 H102       23.9683  -27.5590  -37.2277 H         1 UNK         0.0787 
    103 H103       24.7582  -26.7269  -38.5556 H         1 UNK         0.0787 
    104 H104       25.5391  -28.1075  -37.7833 H         1 UNK         0.0787 
    105 H105       24.2734  -31.0170  -40.1432 H         1 UNK         0.3055 
    106 H106       23.9182  -32.6261  -37.7764 H         1 UNK         0.1106 
    107 H107       25.3687  -33.3364  -39.6795 H         1 UNK         0.0828 
    108 H108       24.1236  -34.5309  -39.3474 H         1 UNK         0.0828 
    109 H109       23.9569  -33.4556  -40.7253 H         1 UNK         0.0828 
    110 H110       21.7043  -31.4389  -40.2598 H         1 UNK         0.2931 
    111 H111       19.4753  -33.1299  -39.4155 H         1 UNK         0.0412 
    112 H112       19.4941  -29.9808  -36.9347 H         1 UNK         0.3472 
    113 H113       20.9375  -30.5226  -37.7530 H         1 UNK         0.3472 
    114 H114       18.1180  -31.7033  -40.9557 H         1 UNK         0.0970 
    115 H115       19.5098  -30.6891  -41.2447 H         1 UNK         0.0970 
    116 H116       18.4397  -33.4693  -44.2388 H         1 UNK         0.0612 
    117 H117       17.4263  -32.7397  -43.0247 H         1 UNK         0.0612 
@<TRIPOS>BOND
     1    1    2 1    
     2    1   62 1    
     3    1   63 1    
     4    1   64 1    
     5    2    3 2    
     6    2    4 am   BACKBONE|DICT|INTERRES
     7    4    5 1    
     8    4   65 1    
     9    5    6 1    
    10    5   25 1    
    11    5   66 1    
    12    6    7 1    
    13    6   67 1    
    14    6   68 1    
    15    7    8 1    
    16    8    9 1    
    17    8   69 1    
    18    8   70 1    
    19    9   10 ar   
    20    9   14 ar   
    21   10   11 ar   
    22   10   71 1    
    23   11   12 ar   
    24   11   61 1    
    25   12   13 ar   
    26   12   72 1    
    27   13   14 ar   
    28   13   15 1    
    29   14   73 1    
    30   15   16 1    
    31   15   74 1    
    32   15   75 1    
    33   16   17 1    
    34   17   18 1    
    35   17   76 1    
    36   17   77 1    
    37   18   19 1    
    38   18   27 1    
    39   18   78 1    
    40   19   20 am   BACKBONE|DICT|INTERRES
    41   19   79 1    
    42   20   21 2    
    43   20   22 1    
    44   22   23 1    
    45   22   24 1    
    46   22   80 1    
    47   23   81 1    
    48   23   82 1    
    49   23   83 1    
    50   24   25 am   BACKBONE|DICT|INTERRES
    51   24   84 1    
    52   25   26 2    
    53   27   28 2    
    54   27   29 am   BACKBONE|DICT|INTERRES
    55   29   30 1    
    56   29   85 1    
    57   30   31 1    
    58   30   32 1    
    59   30   86 1    
    60   31   87 1    
    61   31   88 1    
    62   31   89 1    
    63   32   33 2    
    64   32   34 am   BACKBONE|DICT|INTERRES
    65   34   35 1    
    66   34   90 1    
    67   35   36 1    
    68   35   37 1    
    69   35   91 1    
    70   36   92 1    
    71   36   93 1    
    72   36   94 1    
    73   37   38 2    
    74   37   39 am   BACKBONE|DICT|INTERRES
    75   39   40 1    
    76   39   95 1    
    77   40   41 1    
    78   40   42 1    
    79   40   96 1    
    80   41   97 1    
    81   41   98 1    
    82   41   99 1    
    83   42   43 2    
    84   42   44 am   BACKBONE|DICT|INTERRES
    85   44   45 1    
    86   44  100 1    
    87   45   46 1    
    88   45   47 1    
    89   45  101 1    
    90   46  102 1    
    91   46  103 1    
    92   46  104 1    
    93   47   48 2    
    94   47   49 am   BACKBONE|DICT|INTERRES
    95   49   50 1    
    96   49  105 1    
    97   50   51 1    
    98   50   52 1    
    99   50  106 1    
   100   51  107 1    
   101   51  108 1    
   102   51  109 1    
   103   52   53 2    
   104   52   54 am   BACKBONE|DICT|INTERRES
   105   54   55 1    
   106   54  110 1    
   107   55   56 1    
   108   55   59 1    
   109   55  111 1    
   110   56   57 am   BACKBONE|DICT|INTERRES
   111   56   58 2    
   112   57  112 1    
   113   57  113 1    
   114   59   60 1    
   115   59  114 1    
   116   59  115 1    
   117   60   61 1    
   118   61  116 1    
   119   61  117 1    
@<TRIPOS>SUBSTRUCTURE
     1 UNK         1 GROUP             0       ****    0 ROOT    
