@<TRIPOS>MOLECULE
3R8
117   119    1
SMALL
USER_CHARGES


@<TRIPOS>ATOM
      1 CA         21.9025  -27.5407  -49.2939 C.3       0 UNK        -0.2013 
      2 C          20.7780  -27.8757  -48.3255 C.2       0 UNK         0.4866 
      3 O          20.4662  -29.0507  -48.1316 O.2       0 UNK        -0.5176 
      4 N          20.1674  -26.8546  -47.7163 N.am      1 UNK        -0.4884 
      5 CA         19.0951  -26.9918  -46.7360 C.3       1 UNK         0.0853 
      6 C6         17.7038  -27.1094  -47.4148 C.3       10 UNK        -0.0849 
      7 S7         16.2761  -27.1606  -46.2730 S.3       10 UNK        -0.2776 
      8 C8         16.0733  -28.9444  -45.9665 C.3       10 UNK         0.0316 
      9 C9         16.9575  -29.4113  -44.8205 C.ar      10 UNK        -0.0863 
     10 C10        18.1751  -30.0443  -45.0747 C.ar      10 UNK        -0.1009 
     11 C11        18.9941  -30.4596  -44.0213 C.ar      10 UNK        -0.0712 
     12 C12        18.5845  -30.2422  -42.6999 C.ar      10 UNK        -0.0894 
     13 C13        17.3576  -29.6234  -42.4308 C.ar      10 UNK        -0.0745 
     14 C14        16.5498  -29.2161  -43.4985 C.ar      10 UNK        -0.0972 
     15 C15        16.8754  -29.4347  -40.9951 C.3       10 UNK         0.0209 
     16 S16        16.4085  -27.7061  -40.6388 S.3       10 UNK        -0.2568 
     17 C17        17.7169  -27.1589  -39.4917 C.3       10 UNK        -0.0983 
     18 CA         19.1104  -27.0071  -40.1475 C.3       3 UNK         0.0876 
     19 N          19.0766  -26.1960  -41.3687 N.am      3 UNK        -0.4424 
     20 C          20.1171  -26.0343  -42.1927 C.2       2 UNK         0.4918 
     21 O          21.2140  -26.5707  -42.0252 O.2       2 UNK        -0.4875 
     22 CA         19.8827  -25.1804  -43.4394 C.3       2 UNK         0.0481 
     23 CB         21.0566  -24.2135  -43.6966 C.3       2 UNK        -0.1831 
     24 N          19.7099  -26.1105  -44.5476 N.am      2 UNK        -0.4498 
     25 C          19.2324  -25.8144  -45.7606 C.2       1 UNK         0.5027 
     26 O          18.9416  -24.6761  -46.1352 O.2       1 UNK        -0.4969 
     27 C          20.1274  -26.4401  -39.1349 C.2       3 UNK         0.5005 
     28 O          20.2888  -25.2189  -39.0512 O.2       3 UNK        -0.5279 
     29 N          20.8148  -27.3353  -38.4116 N.am      4 UNK        -0.4463 
     30 CA         21.9359  -27.0934  -37.4878 C.3       4 UNK         0.0283 
     31 CB         21.5459  -26.1517  -36.3309 C.3       4 UNK        -0.1875 
     32 C          23.2271  -26.6202  -38.1847 C.2       4 UNK         0.4949 
     33 O          24.2919  -27.1720  -37.9096 O.2       4 UNK        -0.5039 
     34 N          23.1156  -25.6259  -39.0743 N.am      5 UNK        -0.4663 
     35 CA         24.2209  -25.0266  -39.8261 C.3       5 UNK         0.0242 
     36 CB         23.7266  -23.7469  -40.5185 C.3       5 UNK        -0.1982 
     37 C          24.8569  -25.9825  -40.8488 C.2       5 UNK         0.5017 
     38 O          26.0826  -26.0089  -40.9650 O.2       5 UNK        -0.5012 
     39 N          24.0205  -26.7481  -41.5593 N.am      6 UNK        -0.4439 
     40 CA         24.4153  -27.7342  -42.5632 C.3       6 UNK         0.0297 
     41 CB         24.1120  -27.1813  -43.9694 C.3       6 UNK        -0.2006 
     42 C          23.6978  -29.0614  -42.2793 C.2       6 UNK         0.4892 
     43 O          23.1237  -29.6629  -43.1880 O.2       6 UNK        -0.5089 
     44 N          23.7445  -29.5070  -41.0156 N.am      7 UNK        -0.4243 
     45 CA         23.0826  -30.7090  -40.4913 C.3       7 UNK         0.0196 
     46 CB         22.9947  -30.5983  -38.9592 C.3       7 UNK        -0.2007 
     47 C          23.7111  -32.0469  -40.9427 C.2       7 UNK         0.5020 
     48 O          23.7874  -32.9893  -40.1532 O.2       7 UNK        -0.5147 
     49 N          24.1129  -32.1364  -42.2160 N.am      8 UNK        -0.4734 
     50 CA         24.5962  -33.3608  -42.8659 C.3       8 UNK         0.0238 
     51 CB         25.2720  -32.9857  -44.1947 C.3       8 UNK        -0.1912 
     52 C          23.4780  -34.3946  -43.1014 C.2       8 UNK         0.5038 
     53 O          23.7722  -35.5748  -43.2932 O.2       8 UNK        -0.5046 
     54 N          22.2246  -33.9259  -43.0792 N.am      9 UNK        -0.4200 
     55 CA         20.9935  -34.7142  -43.2226 C.3       9 UNK         0.0839 
     56 C          20.6571  -35.6180  -42.0002 C.2       9 UNK         0.5513 
     57 N          21.3247  -35.4798  -40.8600 N.am      9 UNK        -0.7519 
     58 O          19.7716  -36.4641  -42.0917 O.2       9 UNK        -0.4960 
     59 C59        19.7855  -33.8093  -43.5881 C.3       10 UNK        -0.0876 
     60 S60        20.0991  -32.7820  -45.0656 S.3       10 UNK        -0.2414 
     61 C61        20.3247  -31.1297  -44.3296 C.3       10 UNK         0.0169 
     62 H62        22.0669  -26.4662  -49.3733 H         1 UNK         0.0903 
     63 H63        22.8322  -28.0025  -48.9626 H         1 UNK         0.0903 
     64 H64        21.6676  -27.9219  -50.2873 H         1 UNK         0.0903 
     65 H65        20.4656  -25.9028  -47.8893 H         1 UNK         0.3096 
     66 H66        19.2692  -27.9045  -46.1673 H         1 UNK         0.1121 
     67 H67        17.6789  -27.9933  -48.0537 H         1 UNK         0.0849 
     68 H68        17.5511  -26.2617  -48.0854 H         1 UNK         0.0849 
     69 H69        15.0290  -29.1397  -45.7179 H         1 UNK         0.0865 
     70 H70        16.2757  -29.5133  -46.8753 H         1 UNK         0.0865 
     71 H71        18.4939  -30.2120  -46.0953 H         1 UNK         0.1346 
     72 H72        19.2148  -30.5660  -41.8833 H         1 UNK         0.1412 
     73 H73        15.6000  -28.7383  -43.2988 H         1 UNK         0.1426 
     74 H74        17.6253  -29.7762  -40.2803 H         1 UNK         0.0716 
     75 H75        16.0002  -30.0671  -40.8404 H         1 UNK         0.0716 
     76 H76        17.7588  -27.8614  -38.6571 H         1 UNK         0.0695 
     77 H77        17.3938  -26.2062  -39.0668 H         1 UNK         0.0695 
     78 H78        19.4552  -27.9993  -40.4468 H         1 UNK         0.0983 
     79 H79        18.2000  -25.7404  -41.5748 H         1 UNK         0.3095 
     80 H80        18.9656  -24.6014  -43.3131 H         1 UNK         0.0454 
     81 H81        21.9970  -24.7443  -43.8487 H         1 UNK         0.0851 
     82 H82        21.1927  -23.5402  -42.8502 H         1 UNK         0.0851 
     83 H83        20.8812  -23.5902  -44.5729 H         1 UNK         0.0851 
     84 H84        19.9398  -27.0711  -44.3277 H         1 UNK         0.2976 
     85 H85        20.5997  -28.3119  -38.5577 H         1 UNK         0.3116 
     86 H86        22.1605  -28.0611  -37.0371 H         1 UNK         0.0646 
     87 H87        21.3504  -25.1348  -36.6716 H         1 UNK         0.0847 
     88 H88        22.3486  -26.0926  -35.5948 H         1 UNK         0.0847 
     89 H89        20.6566  -26.5082  -35.8114 H         1 UNK         0.0847 
     90 H90        22.1841  -25.2460  -39.2260 H         1 UNK         0.3040 
     91 H91        24.9985  -24.7496  -39.1106 H         1 UNK         0.1015 
     92 H92        22.9172  -23.9573  -41.2177 H         1 UNK         0.0786 
     93 H93        24.5303  -23.2700  -41.0812 H         1 UNK         0.0786 
     94 H94        23.3623  -23.0188  -39.7934 H         1 UNK         0.0786 
     95 H95        23.0156  -26.6479  -41.4265 H         1 UNK         0.3172 
     96 H96        25.4856  -27.9395  -42.4987 H         1 UNK         0.0595 
     97 H97        23.0435  -27.0174  -44.1143 H         1 UNK         0.0839 
     98 H98        24.4429  -27.8757  -44.7427 H         1 UNK         0.0839 
     99 H99        24.6235  -26.2347  -44.1429 H         1 UNK         0.0839 
    100 H100       24.2692  -28.9602  -40.3471 H         1 UNK         0.2998 
    101 H101       22.0604  -30.7127  -40.8757 H         1 UNK         0.0822 
    102 H102       22.4704  -29.6937  -38.6632 H         1 UNK         0.0787 
    103 H103       22.4460  -31.4376  -38.5293 H         1 UNK         0.0787 
    104 H104       23.9833  -30.5811  -38.4987 H         1 UNK         0.0787 
    105 H105       23.9666  -31.3205  -42.8056 H         1 UNK         0.3055 
    106 H106       25.3398  -33.8274  -42.2156 H         1 UNK         0.1106 
    107 H107       25.6654  -33.8709  -44.6967 H         1 UNK         0.0828 
    108 H108       24.5738  -32.5044  -44.8810 H         1 UNK         0.0828 
    109 H109       26.1096  -32.3062  -44.0361 H         1 UNK         0.0828 
    110 H110       22.1002  -32.9373  -42.9312 H         1 UNK         0.2931 
    111 H111       21.1541  -35.3955  -44.0605 H         1 UNK         0.0412 
    112 H112       22.0609  -34.7952  -40.7712 H         1 UNK         0.3472 
    113 H113       21.0954  -36.0757  -40.0800 H         1 UNK         0.3472 
    114 H114       18.9055  -34.4209  -43.7963 H         1 UNK         0.0970 
    115 H115       19.5112  -33.1712  -42.7462 H         1 UNK         0.0970 
    116 H116       20.9412  -31.2053  -43.4336 H         1 UNK         0.0612 
    117 H117       20.8816  -30.5063  -45.0311 H         1 UNK         0.0612 
@<TRIPOS>BOND
     1    1    2 1    
     2    1   62 1    
     3    1   63 1    
     4    1   64 1    
     5    2    3 2    
     6    2    4 am   BACKBONE|DICT|INTERRES
     7    4    5 1    
     8    4   65 1    
     9    5    6 1    
    10    5   25 1    
    11    5   66 1    
    12    6    7 1    
    13    6   67 1    
    14    6   68 1    
    15    7    8 1    
    16    8    9 1    
    17    8   69 1    
    18    8   70 1    
    19    9   10 ar   
    20    9   14 ar   
    21   10   11 ar   
    22   10   71 1    
    23   11   12 ar   
    24   11   61 1    
    25   12   13 ar   
    26   12   72 1    
    27   13   14 ar   
    28   13   15 1    
    29   14   73 1    
    30   15   16 1    
    31   15   74 1    
    32   15   75 1    
    33   16   17 1    
    34   17   18 1    
    35   17   76 1    
    36   17   77 1    
    37   18   19 1    
    38   18   27 1    
    39   18   78 1    
    40   19   20 am   BACKBONE|DICT|INTERRES
    41   19   79 1    
    42   20   21 2    
    43   20   22 1    
    44   22   23 1    
    45   22   24 1    
    46   22   80 1    
    47   23   81 1    
    48   23   82 1    
    49   23   83 1    
    50   24   25 am   BACKBONE|DICT|INTERRES
    51   24   84 1    
    52   25   26 2    
    53   27   28 2    
    54   27   29 am   BACKBONE|DICT|INTERRES
    55   29   30 1    
    56   29   85 1    
    57   30   31 1    
    58   30   32 1    
    59   30   86 1    
    60   31   87 1    
    61   31   88 1    
    62   31   89 1    
    63   32   33 2    
    64   32   34 am   BACKBONE|DICT|INTERRES
    65   34   35 1    
    66   34   90 1    
    67   35   36 1    
    68   35   37 1    
    69   35   91 1    
    70   36   92 1    
    71   36   93 1    
    72   36   94 1    
    73   37   38 2    
    74   37   39 am   BACKBONE|DICT|INTERRES
    75   39   40 1    
    76   39   95 1    
    77   40   41 1    
    78   40   42 1    
    79   40   96 1    
    80   41   97 1    
    81   41   98 1    
    82   41   99 1    
    83   42   43 2    
    84   42   44 am   BACKBONE|DICT|INTERRES
    85   44   45 1    
    86   44  100 1    
    87   45   46 1    
    88   45   47 1    
    89   45  101 1    
    90   46  102 1    
    91   46  103 1    
    92   46  104 1    
    93   47   48 2    
    94   47   49 am   BACKBONE|DICT|INTERRES
    95   49   50 1    
    96   49  105 1    
    97   50   51 1    
    98   50   52 1    
    99   50  106 1    
   100   51  107 1    
   101   51  108 1    
   102   51  109 1    
   103   52   53 2    
   104   52   54 am   BACKBONE|DICT|INTERRES
   105   54   55 1    
   106   54  110 1    
   107   55   56 1    
   108   55   59 1    
   109   55  111 1    
   110   56   57 am   BACKBONE|DICT|INTERRES
   111   56   58 2    
   112   57  112 1    
   113   57  113 1    
   114   59   60 1    
   115   59  114 1    
   116   59  115 1    
   117   60   61 1    
   118   61  116 1    
   119   61  117 1    
@<TRIPOS>SUBSTRUCTURE
     1 UNK         1 GROUP             0       ****    0 ROOT    
