@<TRIPOS>MOLECULE
3R8
117   119    1
SMALL
USER_CHARGES


@<TRIPOS>ATOM
      1 CA         17.0063  -22.5732  -45.4553 C.3       0 UNK        -0.2013 
      2 C          17.4493  -24.0271  -45.5230 C.2       0 UNK         0.4866 
      3 O          18.0659  -24.4345  -46.5082 O.2       0 UNK        -0.5176 
      4 N          17.1320  -24.8149  -44.4885 N.am      1 UNK        -0.4884 
      5 CA         17.5248  -26.2205  -44.3573 C.3       1 UNK         0.0853 
      6 C6         16.7869  -26.9122  -43.1875 C.3       10 UNK        -0.0849 
      7 S7         15.0011  -27.1431  -43.4721 S.3       10 UNK        -0.2776 
      8 C8         14.9403  -28.6245  -44.5490 C.3       10 UNK         0.0316 
      9 C9         15.7531  -29.8311  -44.0726 C.ar      10 UNK        -0.0863 
     10 C10        16.3417  -30.6698  -45.0264 C.ar      10 UNK        -0.1009 
     11 C11        17.0977  -31.7787  -44.6352 C.ar      10 UNK        -0.0712 
     12 C12        17.2733  -32.0442  -43.2770 C.ar      10 UNK        -0.0894 
     13 C13        16.7067  -31.2099  -42.3116 C.ar      10 UNK        -0.0745 
     14 C14        15.9207  -30.1258  -42.7124 C.ar      10 UNK        -0.0972 
     15 C15        16.9612  -31.4862  -40.8390 C.3       10 UNK         0.0209 
     16 S16        18.7242  -31.2901  -40.4209 S.3       10 UNK        -0.2568 
     17 C17        18.9006  -29.4795  -40.3152 C.3       10 UNK        -0.0983 
     18 CA         20.2620  -29.0046  -40.8896 C.3       3 UNK         0.0876 
     19 N          20.2116  -28.7150  -42.3283 N.am      3 UNK        -0.4424 
     20 C          21.2823  -28.3958  -43.0735 C.2       2 UNK         0.4918 
     21 O          22.4373  -28.5036  -42.6619 O.2       2 UNK        -0.4875 
     22 CA         21.0389  -27.7942  -44.4739 C.3       2 UNK         0.0481 
     23 CB         21.5124  -28.7332  -45.5919 C.3       2 UNK        -0.1831 
     24 N          19.6460  -27.4002  -44.7172 N.am      2 UNK        -0.4498 
     25 C          19.0407  -26.3609  -44.1245 C.2       1 UNK         0.5027 
     26 O          19.6073  -25.6070  -43.3306 O.2       1 UNK        -0.4969 
     27 C          20.8244  -27.8191  -40.0746 C.2       3 UNK         0.5005 
     28 O          21.5924  -28.0516  -39.1383 O.2       3 UNK        -0.5279 
     29 N          20.4896  -26.5802  -40.4744 N.am      4 UNK        -0.4463 
     30 CA         20.9718  -25.3428  -39.8497 C.3       4 UNK         0.0283 
     31 CB         20.1313  -24.1541  -40.3429 C.3       4 UNK        -0.1875 
     32 C          22.4705  -25.0770  -40.0829 C.2       4 UNK         0.4949 
     33 O          23.0657  -24.3079  -39.3295 O.2       4 UNK        -0.5039 
     34 N          23.0687  -25.7451  -41.0790 N.am      5 UNK        -0.4663 
     35 CA         24.5064  -25.7454  -41.3609 C.3       5 UNK         0.0242 
     36 CB         24.7154  -25.8313  -42.8842 C.3       5 UNK        -0.1982 
     37 C          25.2403  -26.8682  -40.5959 C.2       5 UNK         0.5017 
     38 O          26.2391  -27.3890  -41.0926 O.2       5 UNK        -0.5012 
     39 N          24.7338  -27.2101  -39.4008 N.am      6 UNK        -0.4439 
     40 CA         25.2173  -28.2314  -38.4677 C.3       6 UNK         0.0297 
     41 CB         26.6315  -27.8900  -37.9494 C.3       6 UNK        -0.2006 
     42 C          25.1062  -29.6523  -39.0479 C.2       6 UNK         0.4892 
     43 O          26.1090  -30.3644  -39.1285 O.2       6 UNK        -0.5089 
     44 N          23.8733  -30.0325  -39.4214 N.am      7 UNK        -0.4243 
     45 CA         23.4825  -31.3558  -39.9327 C.3       7 UNK         0.0196 
     46 CB         23.6204  -32.4275  -38.8293 C.3       7 UNK        -0.2007 
     47 C          24.2058  -31.7400  -41.2391 C.2       7 UNK         0.5020 
     48 O          24.6812  -32.8687  -41.3729 O.2       7 UNK        -0.5147 
     49 N          24.2805  -30.7938  -42.1849 N.am      8 UNK        -0.4734 
     50 CA         24.9688  -30.9724  -43.4677 C.3       8 UNK         0.0238 
     51 CB         25.4358  -29.6005  -43.9818 C.3       8 UNK        -0.1912 
     52 C          24.1182  -31.6890  -44.5327 C.2       8 UNK         0.5038 
     53 O          24.6669  -32.0659  -45.5694 O.2       8 UNK        -0.5046 
     54 N          22.8085  -31.8420  -44.2876 N.am      9 UNK        -0.4200 
     55 CA         21.8638  -32.5165  -45.1909 C.3       9 UNK         0.0839 
     56 C          22.1431  -34.0384  -45.3394 C.2       9 UNK         0.5513 
     57 N          21.8680  -34.6086  -46.5042 N.am      9 UNK        -0.7519 
     58 O          22.5633  -34.7095  -44.3993 O.2       9 UNK        -0.4960 
     59 C59        20.3880  -32.2419  -44.7868 C.3       10 UNK        -0.0876 
     60 S60        19.3228  -32.0322  -46.2566 S.3       10 UNK        -0.2414 
     61 C61        17.7304  -32.6888  -45.6762 C.3       10 UNK         0.0169 
     62 H62        17.8734  -21.9148  -45.5006 H         1 UNK         0.0903 
     63 H63        16.3561  -22.3393  -46.2980 H         1 UNK         0.0903 
     64 H64        16.4623  -22.3546  -44.5365 H         1 UNK         0.0903 
     65 H65        16.6289  -24.4272  -43.7031 H         1 UNK         0.3096 
     66 H66        17.2723  -26.7294  -45.2903 H         1 UNK         0.1121 
     67 H67        17.2335  -27.8795  -42.9651 H         1 UNK         0.0849 
     68 H68        16.9039  -26.3299  -42.2710 H         1 UNK         0.0849 
     69 H69        13.8991  -28.9317  -44.6540 H         1 UNK         0.0865 
     70 H70        15.2687  -28.3256  -45.5456 H         1 UNK         0.0865 
     71 H71        16.2148  -30.4618  -46.0804 H         1 UNK         0.1346 
     72 H72        17.8679  -32.8918  -42.9649 H         1 UNK         0.1412 
     73 H73        15.4660  -29.4923  -41.9632 H         1 UNK         0.1426 
     74 H74        16.6572  -32.5091  -40.6129 H         1 UNK         0.0716 
     75 H75        16.3587  -30.8375  -40.2012 H         1 UNK         0.0716 
     76 H76        18.0681  -28.9825  -40.8152 H         1 UNK         0.0695 
     77 H77        18.7995  -29.2318  -39.2561 H         1 UNK         0.0695 
     78 H78        20.9855  -29.8068  -40.7650 H         1 UNK         0.0983 
     79 H79        19.2977  -28.6654  -42.7491 H         1 UNK         0.3095 
     80 H80        21.6544  -26.8935  -44.5267 H         1 UNK         0.0454 
     81 H81        22.5238  -29.0951  -45.4082 H         1 UNK         0.0851 
     82 H82        21.5282  -28.2199  -46.5533 H         1 UNK         0.0851 
     83 H83        20.8654  -29.6006  -45.6950 H         1 UNK         0.0851 
     84 H84        19.1170  -27.9847  -45.3497 H         1 UNK         0.2976 
     85 H85        19.9125  -26.4647  -41.2984 H         1 UNK         0.3116 
     86 H86        20.8231  -25.4363  -38.7717 H         1 UNK         0.0646 
     87 H87        20.2839  -23.9624  -41.4053 H         1 UNK         0.0847 
     88 H88        19.0665  -24.3201  -40.1792 H         1 UNK         0.0847 
     89 H89        20.4013  -23.2412  -39.8102 H         1 UNK         0.0847 
     90 H90        22.5152  -26.3964  -41.6189 H         1 UNK         0.3040 
     91 H91        24.9422  -24.8029  -41.0219 H         1 UNK         0.1015 
     92 H92        25.7732  -25.7645  -43.1418 H         1 UNK         0.0786 
     93 H93        24.2074  -25.0163  -43.4000 H         1 UNK         0.0786 
     94 H94        24.3396  -26.7690  -43.2907 H         1 UNK         0.0786 
     95 H95        23.8896  -26.7330  -39.1145 H         1 UNK         0.3172 
     96 H96        24.5436  -28.1997  -37.6098 H         1 UNK         0.0595 
     97 H97        27.3795  -27.9335  -38.7417 H         1 UNK         0.0839 
     98 H98        26.9412  -28.5934  -37.1756 H         1 UNK         0.0839 
     99 H99        26.6642  -26.8924  -37.5117 H         1 UNK         0.0839 
    100 H100       23.1229  -29.3555  -39.3145 H         1 UNK         0.2998 
    101 H101       22.4248  -31.3065  -40.1813 H         1 UNK         0.0822 
    102 H102       23.2186  -33.3853  -39.1625 H         1 UNK         0.0787 
    103 H103       23.0727  -32.1440  -37.9306 H         1 UNK         0.0787 
    104 H104       24.6615  -32.5929  -38.5500 H         1 UNK         0.0787 
    105 H105       23.8387  -29.8928  -42.0318 H         1 UNK         0.3055 
    106 H106       25.8576  -31.5868  -43.3059 H         1 UNK         0.1106 
    107 H107       26.0719  -29.0987  -43.2525 H         1 UNK         0.0828 
    108 H108       26.0168  -29.7032  -44.8992 H         1 UNK         0.0828 
    109 H109       24.5958  -28.9436  -44.2027 H         1 UNK         0.0828 
    110 H110       22.4552  -31.5388  -43.3939 H         1 UNK         0.2931 
    111 H111       22.0405  -32.0604  -46.1678 H         1 UNK         0.0412 
    112 H112       22.0263  -35.5976  -46.6190 H         1 UNK         0.3472 
    113 H113       21.4918  -34.0675  -47.2677 H         1 UNK         0.3472 
    114 H114       19.9987  -33.0339  -44.1443 H         1 UNK         0.0970 
    115 H115       20.3020  -31.3277  -44.1982 H         1 UNK         0.0970 
    116 H116       17.0595  -32.7891  -46.5306 H         1 UNK         0.0612 
    117 H117       17.8711  -33.6955  -45.2794 H         1 UNK         0.0612 
@<TRIPOS>BOND
     1    1    2 1    
     2    1   62 1    
     3    1   63 1    
     4    1   64 1    
     5    2    3 2    
     6    2    4 am   BACKBONE|DICT|INTERRES
     7    4    5 1    
     8    4   65 1    
     9    5    6 1    
    10    5   25 1    
    11    5   66 1    
    12    6    7 1    
    13    6   67 1    
    14    6   68 1    
    15    7    8 1    
    16    8    9 1    
    17    8   69 1    
    18    8   70 1    
    19    9   10 ar   
    20    9   14 ar   
    21   10   11 ar   
    22   10   71 1    
    23   11   12 ar   
    24   11   61 1    
    25   12   13 ar   
    26   12   72 1    
    27   13   14 ar   
    28   13   15 1    
    29   14   73 1    
    30   15   16 1    
    31   15   74 1    
    32   15   75 1    
    33   16   17 1    
    34   17   18 1    
    35   17   76 1    
    36   17   77 1    
    37   18   19 1    
    38   18   27 1    
    39   18   78 1    
    40   19   20 am   BACKBONE|DICT|INTERRES
    41   19   79 1    
    42   20   21 2    
    43   20   22 1    
    44   22   23 1    
    45   22   24 1    
    46   22   80 1    
    47   23   81 1    
    48   23   82 1    
    49   23   83 1    
    50   24   25 am   BACKBONE|DICT|INTERRES
    51   24   84 1    
    52   25   26 2    
    53   27   28 2    
    54   27   29 am   BACKBONE|DICT|INTERRES
    55   29   30 1    
    56   29   85 1    
    57   30   31 1    
    58   30   32 1    
    59   30   86 1    
    60   31   87 1    
    61   31   88 1    
    62   31   89 1    
    63   32   33 2    
    64   32   34 am   BACKBONE|DICT|INTERRES
    65   34   35 1    
    66   34   90 1    
    67   35   36 1    
    68   35   37 1    
    69   35   91 1    
    70   36   92 1    
    71   36   93 1    
    72   36   94 1    
    73   37   38 2    
    74   37   39 am   BACKBONE|DICT|INTERRES
    75   39   40 1    
    76   39   95 1    
    77   40   41 1    
    78   40   42 1    
    79   40   96 1    
    80   41   97 1    
    81   41   98 1    
    82   41   99 1    
    83   42   43 2    
    84   42   44 am   BACKBONE|DICT|INTERRES
    85   44   45 1    
    86   44  100 1    
    87   45   46 1    
    88   45   47 1    
    89   45  101 1    
    90   46  102 1    
    91   46  103 1    
    92   46  104 1    
    93   47   48 2    
    94   47   49 am   BACKBONE|DICT|INTERRES
    95   49   50 1    
    96   49  105 1    
    97   50   51 1    
    98   50   52 1    
    99   50  106 1    
   100   51  107 1    
   101   51  108 1    
   102   51  109 1    
   103   52   53 2    
   104   52   54 am   BACKBONE|DICT|INTERRES
   105   54   55 1    
   106   54  110 1    
   107   55   56 1    
   108   55   59 1    
   109   55  111 1    
   110   56   57 am   BACKBONE|DICT|INTERRES
   111   56   58 2    
   112   57  112 1    
   113   57  113 1    
   114   59   60 1    
   115   59  114 1    
   116   59  115 1    
   117   60   61 1    
   118   61  116 1    
   119   61  117 1    
@<TRIPOS>SUBSTRUCTURE
     1 UNK         1 GROUP             0       ****    0 ROOT    
