@<TRIPOS>MOLECULE
3R8
117   119    1
SMALL
USER_CHARGES


@<TRIPOS>ATOM
      1 CA         16.8751  -30.9721  -49.0682 C.3       0 UNK        -0.2013 
      2 C          17.0328  -29.8314  -48.0737 C.2       0 UNK         0.4866 
      3 O          16.8112  -28.6754  -48.4347 O.2       0 UNK        -0.5176 
      4 N          17.4098  -30.1536  -46.8285 N.am      1 UNK        -0.4884 
      5 CA         17.6515  -29.2293  -45.7141 C.3       1 UNK         0.0853 
      6 C6         16.3718  -28.4961  -45.2155 C.3       10 UNK        -0.0849 
      7 S7         15.3001  -29.6252  -44.2666 S.3       10 UNK        -0.2776 
      8 C8         14.9153  -28.6385  -42.7773 C.3       10 UNK         0.0316 
      9 C9         16.1454  -28.2483  -41.9611 C.ar      10 UNK        -0.0863 
     10 C10        17.0118  -29.2282  -41.4651 C.ar      10 UNK        -0.1009 
     11 C11        18.1223  -28.8686  -40.6948 C.ar      10 UNK        -0.0712 
     12 C12        18.3456  -27.5236  -40.3911 C.ar      10 UNK        -0.0894 
     13 C13        17.5078  -26.5322  -40.9048 C.ar      10 UNK        -0.0745 
     14 C14        16.4048  -26.9008  -41.6826 C.ar      10 UNK        -0.0972 
     15 C15        17.7978  -25.0644  -40.6235 C.3       10 UNK         0.0209 
     16 S16        18.5455  -24.2340  -42.0632 S.3       10 UNK        -0.2568 
     17 C17        20.2937  -24.7751  -42.0025 C.3       10 UNK        -0.0983 
     18 CA         20.5724  -26.1063  -42.7551 C.3       3 UNK         0.0876 
     19 N          19.9514  -26.1786  -44.0805 N.am      3 UNK        -0.4424 
     20 C          20.2994  -25.5367  -45.2041 C.2       2 UNK         0.4918 
     21 O          21.2099  -24.7104  -45.2693 O.2       2 UNK        -0.4875 
     22 CA         19.4973  -25.8892  -46.4782 C.3       2 UNK         0.0481 
     23 CB         20.4261  -26.1283  -47.6867 C.3       2 UNK        -0.1831 
     24 N          18.5535  -27.0098  -46.3130 N.am      2 UNK        -0.4498 
     25 C          18.8375  -28.2894  -46.0152 C.2       1 UNK         0.5027 
     26 O          19.9842  -28.7243  -45.8948 O.2       1 UNK        -0.4969 
     27 C          22.0657  -26.5106  -42.7640 C.2       3 UNK         0.5005 
     28 O          22.8395  -26.0078  -41.9465 O.2       3 UNK        -0.5279 
     29 N          22.4348  -27.4126  -43.6910 N.am      4 UNK        -0.4463 
     30 CA         23.7846  -27.9115  -43.9707 C.3       4 UNK         0.0283 
     31 CB         23.6937  -29.0463  -45.0042 C.3       4 UNK        -0.1875 
     32 C          24.5362  -28.3711  -42.7111 C.2       4 UNK         0.4949 
     33 O          24.1923  -29.4037  -42.1306 O.2       4 UNK        -0.5039 
     34 N          25.5039  -27.5476  -42.2809 N.am      5 UNK        -0.4663 
     35 CA         26.3486  -27.6862  -41.0833 C.3       5 UNK         0.0242 
     36 CB         27.3026  -28.8884  -41.2523 C.3       5 UNK        -0.1982 
     37 C          25.5798  -27.7628  -39.7450 C.2       5 UNK         0.5017 
     38 O          26.1926  -28.0772  -38.7239 O.2       5 UNK        -0.5012 
     39 N          24.2585  -27.5220  -39.7759 N.am      6 UNK        -0.4439 
     40 CA         23.2707  -27.8129  -38.7304 C.3       6 UNK         0.0297 
     41 CB         23.4065  -26.8091  -37.5669 C.3       6 UNK        -0.2006 
     42 C          23.2922  -29.2865  -38.2579 C.2       6 UNK         0.4892 
     43 O          22.9827  -29.5523  -37.0945 O.2       6 UNK        -0.5089 
     44 N          23.6723  -30.2150  -39.1502 N.am      7 UNK        -0.4243 
     45 CA         23.8709  -31.6308  -38.8309 C.3       7 UNK         0.0196 
     46 CB         25.2207  -31.8391  -38.1176 C.3       7 UNK        -0.2007 
     47 C          23.7707  -32.5228  -40.0718 C.2       7 UNK         0.5020 
     48 O          23.0619  -33.5286  -40.0327 O.2       7 UNK        -0.5147 
     49 N          24.4550  -32.1447  -41.1624 N.am      8 UNK        -0.4734 
     50 CA         24.4418  -32.8686  -42.4429 C.3       8 UNK         0.0238 
     51 CB         25.5475  -32.3179  -43.3582 C.3       8 UNK        -0.1912 
     52 C          23.0725  -32.8286  -43.1464 C.2       8 UNK         0.5038 
     53 O          22.7718  -33.7157  -43.9456 O.2       8 UNK        -0.5046 
     54 N          22.2631  -31.8229  -42.7985 N.am      9 UNK        -0.4200 
     55 CA         20.8319  -31.7091  -43.0983 C.3       9 UNK         0.0839 
     56 C          19.9271  -32.8128  -42.4729 C.2       9 UNK         0.5513 
     57 N          20.3875  -33.5952  -41.5028 N.am      9 UNK        -0.7519 
     58 O          18.7796  -32.9603  -42.8843 O.2       9 UNK        -0.4960 
     59 C59        20.3110  -30.2914  -42.7509 C.3       10 UNK        -0.0876 
     60 S60        20.7116  -29.7590  -41.0468 S.3       10 UNK        -0.2414 
     61 C61        19.1037  -29.9225  -40.2087 C.3       10 UNK         0.0169 
     62 H62        17.0941  -31.9405  -48.6186 H         1 UNK         0.0903 
     63 H63        15.8543  -30.9986  -49.4487 H         1 UNK         0.0903 
     64 H64        17.5497  -30.8296  -49.9120 H         1 UNK         0.0903 
     65 H65        17.5855  -31.1257  -46.6140 H         1 UNK         0.3096 
     66 H66        18.0031  -29.8537  -44.8919 H         1 UNK         0.1121 
     67 H67        15.7970  -28.0777  -46.0428 H         1 UNK         0.0849 
     68 H68        16.6285  -27.6538  -44.5717 H         1 UNK         0.0849 
     69 H69        14.3550  -27.7531  -43.0820 H         1 UNK         0.0865 
     70 H70        14.2441  -29.2160  -42.1403 H         1 UNK         0.0865 
     71 H71        16.8264  -30.2698  -41.6908 H         1 UNK         0.1346 
     72 H72        19.2030  -27.2479  -39.7919 H         1 UNK         0.1412 
     73 H73        15.7495  -26.1322  -42.0701 H         1 UNK         0.1426 
     74 H74        18.4459  -24.9506  -39.7531 H         1 UNK         0.0716 
     75 H75        16.8644  -24.5576  -40.3743 H         1 UNK         0.0716 
     76 H76        20.6020  -24.8543  -40.9585 H         1 UNK         0.0695 
     77 H77        20.8956  -23.9737  -42.4346 H         1 UNK         0.0695 
     78 H78        20.0984  -26.9031  -42.1887 H         1 UNK         0.0983 
     79 H79        19.1633  -26.8034  -44.1444 H         1 UNK         0.3095 
     80 H80        18.8854  -25.0139  -46.7000 H         1 UNK         0.0454 
     81 H81        21.1285  -26.9425  -47.5065 H         1 UNK         0.0851 
     82 H82        21.0156  -25.2382  -47.9096 H         1 UNK         0.0851 
     83 H83        19.8558  -26.3696  -48.5836 H         1 UNK         0.0851 
     84 H84        17.5788  -26.7662  -46.4270 H         1 UNK         0.2976 
     85 H85        21.7128  -27.7500  -44.3128 H         1 UNK         0.3116 
     86 H86        24.3401  -27.0903  -44.4275 H         1 UNK         0.0646 
     87 H87        23.2444  -28.7014  -45.9358 H         1 UNK         0.0847 
     88 H88        24.6835  -29.4342  -45.2476 H         1 UNK         0.0847 
     89 H89        23.0972  -29.8816  -44.6380 H         1 UNK         0.0847 
     90 H90        25.6504  -26.6951  -42.8049 H         1 UNK         0.3040 
     91 H91        26.9557  -26.7813  -41.0272 H         1 UNK         0.1015 
     92 H92        26.7648  -29.8366  -41.2552 H         1 UNK         0.0786 
     93 H93        28.0306  -28.9317  -40.4412 H         1 UNK         0.0786 
     94 H94        27.8650  -28.8204  -42.1835 H         1 UNK         0.0786 
     95 H95        23.8688  -27.2071  -40.6604 H         1 UNK         0.3172 
     96 H96        22.2933  -27.6579  -39.1896 H         1 UNK         0.0595 
     97 H97        24.3437  -26.9436  -37.0261 H         1 UNK         0.0839 
     98 H98        22.5953  -26.9293  -36.8479 H         1 UNK         0.0839 
     99 H99        23.3695  -25.7803  -37.9248 H         1 UNK         0.0839 
    100 H100       23.8452  -29.9236  -40.1067 H         1 UNK         0.2998 
    101 H101       23.0726  -31.9461  -38.1550 H         1 UNK         0.0822 
    102 H102       25.3994  -32.8962  -37.9159 H         1 UNK         0.0787 
    103 H103       26.0543  -31.4726  -38.7180 H         1 UNK         0.0787 
    104 H104       25.2486  -31.3196  -37.1597 H         1 UNK         0.0787 
    105 H105       24.9666  -31.2729  -41.1517 H         1 UNK         0.3055 
    106 H106       24.6624  -33.9182  -42.2355 H         1 UNK         0.1106 
    107 H107       25.5850  -32.8700  -44.2983 H         1 UNK         0.0828 
    108 H108       25.3867  -31.2692  -43.6055 H         1 UNK         0.0828 
    109 H109       26.5293  -32.4061  -42.8929 H         1 UNK         0.0828 
    110 H110       22.6314  -31.1229  -42.1681 H         1 UNK         0.2931 
    111 H111       20.7356  -31.8295  -44.1791 H         1 UNK         0.0412 
    112 H112       19.7837  -34.3037  -41.1176 H         1 UNK         0.3472 
    113 H113       21.3264  -33.4849  -41.1381 H         1 UNK         0.3472 
    114 H114       20.7650  -29.5743  -43.4322 H         1 UNK         0.0970 
    115 H115       19.2385  -30.2146  -42.9276 H         1 UNK         0.0970 
    116 H116       18.7119  -30.9291  -40.3616 H         1 UNK         0.0612 
    117 H117       19.2531  -29.8079  -39.1342 H         1 UNK         0.0612 
@<TRIPOS>BOND
     1    1    2 1    
     2    1   62 1    
     3    1   63 1    
     4    1   64 1    
     5    2    3 2    
     6    2    4 am   BACKBONE|DICT|INTERRES
     7    4    5 1    
     8    4   65 1    
     9    5    6 1    
    10    5   25 1    
    11    5   66 1    
    12    6    7 1    
    13    6   67 1    
    14    6   68 1    
    15    7    8 1    
    16    8    9 1    
    17    8   69 1    
    18    8   70 1    
    19    9   10 ar   
    20    9   14 ar   
    21   10   11 ar   
    22   10   71 1    
    23   11   12 ar   
    24   11   61 1    
    25   12   13 ar   
    26   12   72 1    
    27   13   14 ar   
    28   13   15 1    
    29   14   73 1    
    30   15   16 1    
    31   15   74 1    
    32   15   75 1    
    33   16   17 1    
    34   17   18 1    
    35   17   76 1    
    36   17   77 1    
    37   18   19 1    
    38   18   27 1    
    39   18   78 1    
    40   19   20 am   BACKBONE|DICT|INTERRES
    41   19   79 1    
    42   20   21 2    
    43   20   22 1    
    44   22   23 1    
    45   22   24 1    
    46   22   80 1    
    47   23   81 1    
    48   23   82 1    
    49   23   83 1    
    50   24   25 am   BACKBONE|DICT|INTERRES
    51   24   84 1    
    52   25   26 2    
    53   27   28 2    
    54   27   29 am   BACKBONE|DICT|INTERRES
    55   29   30 1    
    56   29   85 1    
    57   30   31 1    
    58   30   32 1    
    59   30   86 1    
    60   31   87 1    
    61   31   88 1    
    62   31   89 1    
    63   32   33 2    
    64   32   34 am   BACKBONE|DICT|INTERRES
    65   34   35 1    
    66   34   90 1    
    67   35   36 1    
    68   35   37 1    
    69   35   91 1    
    70   36   92 1    
    71   36   93 1    
    72   36   94 1    
    73   37   38 2    
    74   37   39 am   BACKBONE|DICT|INTERRES
    75   39   40 1    
    76   39   95 1    
    77   40   41 1    
    78   40   42 1    
    79   40   96 1    
    80   41   97 1    
    81   41   98 1    
    82   41   99 1    
    83   42   43 2    
    84   42   44 am   BACKBONE|DICT|INTERRES
    85   44   45 1    
    86   44  100 1    
    87   45   46 1    
    88   45   47 1    
    89   45  101 1    
    90   46  102 1    
    91   46  103 1    
    92   46  104 1    
    93   47   48 2    
    94   47   49 am   BACKBONE|DICT|INTERRES
    95   49   50 1    
    96   49  105 1    
    97   50   51 1    
    98   50   52 1    
    99   50  106 1    
   100   51  107 1    
   101   51  108 1    
   102   51  109 1    
   103   52   53 2    
   104   52   54 am   BACKBONE|DICT|INTERRES
   105   54   55 1    
   106   54  110 1    
   107   55   56 1    
   108   55   59 1    
   109   55  111 1    
   110   56   57 am   BACKBONE|DICT|INTERRES
   111   56   58 2    
   112   57  112 1    
   113   57  113 1    
   114   59   60 1    
   115   59  114 1    
   116   59  115 1    
   117   60   61 1    
   118   61  116 1    
   119   61  117 1    
@<TRIPOS>SUBSTRUCTURE
     1 UNK         1 GROUP             0       ****    0 ROOT    
