@<TRIPOS>MOLECULE
3R8
117   119    1
SMALL
USER_CHARGES


@<TRIPOS>ATOM
      1 CA         16.9342  -24.1897  -39.0786 C.3       0 UNK        -0.2013 
      2 C          17.3830  -24.4092  -40.5158 C.2       0 UNK         0.4866 
      3 O          17.4245  -23.4580  -41.2972 O.2       0 UNK        -0.5176 
      4 N          17.7082  -25.6580  -40.8706 N.am      1 UNK        -0.4884 
      5 CA         18.2193  -26.0518  -42.1892 C.3       1 UNK         0.0853 
      6 C6         18.0993  -27.5811  -42.4052 C.3       10 UNK        -0.0849 
      7 S7         16.3492  -28.0806  -42.5495 S.3       10 UNK        -0.2776 
      8 C8         16.4665  -29.9010  -42.6432 C.3       10 UNK         0.0316 
      9 C9         17.3707  -30.4184  -43.7604 C.ar      10 UNK        -0.0863 
     10 C10        18.1903  -31.5236  -43.5171 C.ar      10 UNK        -0.1009 
     11 C11        19.0678  -31.9945  -44.4980 C.ar      10 UNK        -0.0712 
     12 C12        19.1002  -31.3709  -45.7472 C.ar      10 UNK        -0.0894 
     13 C13        18.2752  -30.2737  -46.0119 C.ar      10 UNK        -0.0745 
     14 C14        17.4017  -29.8131  -45.0226 C.ar      10 UNK        -0.0972 
     15 C15        18.3417  -29.5677  -47.3573 C.3       10 UNK         0.0209 
     16 S16        19.3600  -28.0603  -47.2697 S.3       10 UNK        -0.2568 
     17 C17        21.0269  -28.7709  -47.0658 C.3       10 UNK        -0.0983 
     18 CA         22.1201  -27.6838  -46.8808 C.3       3 UNK         0.0876 
     19 N          21.9407  -26.9373  -45.6342 N.am      3 UNK        -0.4424 
     20 C          21.5978  -25.6497  -45.5467 C.2       2 UNK         0.4918 
     21 O          21.3685  -24.9232  -46.5155 O.2       2 UNK        -0.4875 
     22 CA         21.4117  -25.1065  -44.1258 C.3       2 UNK         0.0481 
     23 CB         21.5821  -23.5760  -44.0423 C.3       2 UNK        -0.1831 
     24 N          20.0787  -25.5004  -43.6786 N.am      2 UNK        -0.4498 
     25 C          19.6691  -25.5672  -42.4067 C.2       1 UNK         0.5027 
     26 O          20.3799  -25.2779  -41.4412 O.2       1 UNK        -0.4969 
     27 C          23.5596  -28.2335  -46.8702 C.2       3 UNK         0.5005 
     28 O          24.5009  -27.4388  -46.8134 O.2       3 UNK        -0.5279 
     29 N          23.7237  -29.5663  -46.8983 N.am      4 UNK        -0.4463 
     30 CA         25.0107  -30.2595  -46.7439 C.3       4 UNK         0.0283 
     31 CB         24.8252  -31.7502  -47.0705 C.3       4 UNK        -0.1875 
     32 C          25.6175  -30.0911  -45.3371 C.2       4 UNK         0.4949 
     33 O          26.8378  -30.1491  -45.1853 O.2       4 UNK        -0.5039 
     34 N          24.7496  -29.8583  -44.3495 N.am      5 UNK        -0.4663 
     35 CA         25.0593  -29.4353  -42.9919 C.3       5 UNK         0.0242 
     36 CB         25.2347  -30.6713  -42.0871 C.3       5 UNK        -0.1982 
     37 C          23.9288  -28.5008  -42.5290 C.2       5 UNK         0.5017 
     38 O          22.9935  -28.2417  -43.2962 O.2       5 UNK        -0.5012 
     39 N          24.0442  -28.0008  -41.2928 N.am      6 UNK        -0.4439 
     40 CA         23.0600  -27.1368  -40.6346 C.3       6 UNK         0.0297 
     41 CB         23.7715  -26.3361  -39.5248 C.3       6 UNK        -0.2006 
     42 C          21.8390  -27.9335  -40.1205 C.2       6 UNK         0.4892 
     43 O          21.5179  -28.9940  -40.6558 O.2       6 UNK        -0.5089 
     44 N          21.1897  -27.4473  -39.0528 N.am      7 UNK        -0.4243 
     45 CA         20.0488  -28.0963  -38.3886 C.3       7 UNK         0.0196 
     46 CB         19.5167  -27.1655  -37.2870 C.3       7 UNK        -0.2007 
     47 C          20.3466  -29.5023  -37.8214 C.2       7 UNK         0.5020 
     48 O          19.4113  -30.2558  -37.5540 O.2       7 UNK        -0.5147 
     49 N          21.6351  -29.8391  -37.6705 N.am      8 UNK        -0.4734 
     50 CA         22.1347  -31.1689  -37.3162 C.3       8 UNK         0.0238 
     51 CB         23.5915  -31.0356  -36.8405 C.3       8 UNK        -0.1912 
     52 C          22.0339  -32.2055  -38.4556 C.2       8 UNK         0.5038 
     53 O          22.2112  -33.3926  -38.1782 O.2       8 UNK        -0.5046 
     54 N          21.7781  -31.7652  -39.6987 N.am      9 UNK        -0.4200 
     55 CA         21.5555  -32.6223  -40.8748 C.3       9 UNK         0.0839 
     56 C          20.3531  -33.5868  -40.6739 C.2       9 UNK         0.5513 
     57 N          20.5338  -34.8750  -40.9320 N.am      9 UNK        -0.7519 
     58 O          19.2528  -33.1676  -40.3218 O.2       9 UNK        -0.4960 
     59 C59        21.3818  -31.7592  -42.1530 C.3       10 UNK        -0.0876 
     60 S60        21.6627  -32.6609  -43.7177 S.3       10 UNK        -0.2414 
     61 C61        19.9810  -33.1761  -44.2061 C.3       10 UNK         0.0169 
     62 H62        17.6315  -23.5274  -38.5659 H         1 UNK         0.0903 
     63 H63        15.9476  -23.7272  -39.0595 H         1 UNK         0.0903 
     64 H64        16.8803  -25.1240  -38.5200 H         1 UNK         0.0903 
     65 H65        17.6539  -26.3982  -40.1873 H         1 UNK         0.3096 
     66 H66        17.6067  -25.5495  -42.9422 H         1 UNK         0.1121 
     67 H67        18.6110  -27.8863  -43.3200 H         1 UNK         0.0849 
     68 H68        18.5763  -28.1333  -41.5930 H         1 UNK         0.0849 
     69 H69        15.4658  -30.3100  -42.7876 H         1 UNK         0.0865 
     70 H70        16.8119  -30.2678  -41.6750 H         1 UNK         0.0865 
     71 H71        18.1639  -32.0080  -42.5502 H         1 UNK         0.1346 
     72 H72        19.7818  -31.7294  -46.5063 H         1 UNK         0.1412 
     73 H73        16.7686  -28.9610  -45.2289 H         1 UNK         0.1426 
     74 H74        17.3346  -29.2957  -47.6769 H         1 UNK         0.0716 
     75 H75        18.7371  -30.2329  -48.1267 H         1 UNK         0.0716 
     76 H76        21.2272  -29.3789  -47.9501 H         1 UNK         0.0695 
     77 H77        21.0170  -29.4418  -46.2056 H         1 UNK         0.0695 
     78 H78        22.0710  -27.0084  -47.7378 H         1 UNK         0.0983 
     79 H79        22.1712  -27.4392  -44.7782 H         1 UNK         0.3095 
     80 H80        22.1631  -25.5733  -43.4870 H         1 UNK         0.0454 
     81 H81        21.5285  -23.2248  -43.0119 H         1 UNK         0.0851 
     82 H82        20.8153  -23.0519  -44.6138 H         1 UNK         0.0851 
     83 H83        22.5516  -23.2707  -44.4374 H         1 UNK         0.0851 
     84 H84        19.4453  -25.7747  -44.4184 H         1 UNK         0.2976 
     85 H85        22.9035  -30.1521  -46.9602 H         1 UNK         0.3116 
     86 H86        25.7146  -29.8333  -47.4620 H         1 UNK         0.0646 
     87 H87        25.7717  -32.2866  -46.9898 H         1 UNK         0.0847 
     88 H88        24.4603  -31.8933  -48.0877 H         1 UNK         0.0847 
     89 H89        24.1214  -32.2297  -46.3883 H         1 UNK         0.0847 
     90 H90        23.7691  -29.7688  -44.5829 H         1 UNK         0.3040 
     91 H91        25.9831  -28.8522  -42.9961 H         1 UNK         0.1015 
     92 H92        26.0731  -31.2819  -42.4226 H         1 UNK         0.0786 
     93 H93        24.3504  -31.3067  -42.0864 H         1 UNK         0.0786 
     94 H94        25.4396  -30.3915  -41.0535 H         1 UNK         0.0786 
     95 H95        24.8364  -28.2815  -40.7339 H         1 UNK         0.3172 
     96 H96        22.6933  -26.4239  -41.3725 H         1 UNK         0.0595 
     97 H97        24.0845  -26.9742  -38.6972 H         1 UNK         0.0839 
     98 H98        23.1281  -25.5541  -39.1200 H         1 UNK         0.0839 
     99 H99        24.6596  -25.8342  -39.9098 H         1 UNK         0.0839 
    100 H100       21.4945  -26.5649  -38.6683 H         1 UNK         0.2998 
    101 H101       19.2653  -28.2206  -39.1386 H         1 UNK         0.0822 
    102 H102       20.2639  -26.9915  -36.5117 H         1 UNK         0.0787 
    103 H103       19.2203  -26.1978  -37.6923 H         1 UNK         0.0787 
    104 H104       18.6384  -27.5949  -36.8025 H         1 UNK         0.0787 
    105 H105       22.3286  -29.1451  -37.9066 H         1 UNK         0.3055 
    106 H106       21.5347  -31.5490  -36.4861 H         1 UNK         0.1106 
    107 H107       23.9899  -32.0009  -36.5245 H         1 UNK         0.0828 
    108 H108       24.2422  -30.6588  -37.6307 H         1 UNK         0.0828 
    109 H109       23.6716  -30.3617  -35.9873 H         1 UNK         0.0828 
    110 H110       21.6377  -30.7706  -39.8481 H         1 UNK         0.2931 
    111 H111       22.4642  -33.2164  -40.9916 H         1 UNK         0.0412 
    112 H112       19.7624  -35.5132  -40.8150 H         1 UNK         0.3472 
    113 H113       21.4317  -35.2229  -41.2308 H         1 UNK         0.3472 
    114 H114       22.1179  -30.9575  -42.1530 H         1 UNK         0.0970 
    115 H115       20.4234  -31.2429  -42.1531 H         1 UNK         0.0970 
    116 H116       20.0572  -33.8026  -45.0959 H         1 UNK         0.0612 
    117 H117       19.5474  -33.8104  -43.4331 H         1 UNK         0.0612 
@<TRIPOS>BOND
     1    1    2 1    
     2    1   62 1    
     3    1   63 1    
     4    1   64 1    
     5    2    3 2    
     6    2    4 am   BACKBONE|DICT|INTERRES
     7    4    5 1    
     8    4   65 1    
     9    5    6 1    
    10    5   25 1    
    11    5   66 1    
    12    6    7 1    
    13    6   67 1    
    14    6   68 1    
    15    7    8 1    
    16    8    9 1    
    17    8   69 1    
    18    8   70 1    
    19    9   10 ar   
    20    9   14 ar   
    21   10   11 ar   
    22   10   71 1    
    23   11   12 ar   
    24   11   61 1    
    25   12   13 ar   
    26   12   72 1    
    27   13   14 ar   
    28   13   15 1    
    29   14   73 1    
    30   15   16 1    
    31   15   74 1    
    32   15   75 1    
    33   16   17 1    
    34   17   18 1    
    35   17   76 1    
    36   17   77 1    
    37   18   19 1    
    38   18   27 1    
    39   18   78 1    
    40   19   20 am   BACKBONE|DICT|INTERRES
    41   19   79 1    
    42   20   21 2    
    43   20   22 1    
    44   22   23 1    
    45   22   24 1    
    46   22   80 1    
    47   23   81 1    
    48   23   82 1    
    49   23   83 1    
    50   24   25 am   BACKBONE|DICT|INTERRES
    51   24   84 1    
    52   25   26 2    
    53   27   28 2    
    54   27   29 am   BACKBONE|DICT|INTERRES
    55   29   30 1    
    56   29   85 1    
    57   30   31 1    
    58   30   32 1    
    59   30   86 1    
    60   31   87 1    
    61   31   88 1    
    62   31   89 1    
    63   32   33 2    
    64   32   34 am   BACKBONE|DICT|INTERRES
    65   34   35 1    
    66   34   90 1    
    67   35   36 1    
    68   35   37 1    
    69   35   91 1    
    70   36   92 1    
    71   36   93 1    
    72   36   94 1    
    73   37   38 2    
    74   37   39 am   BACKBONE|DICT|INTERRES
    75   39   40 1    
    76   39   95 1    
    77   40   41 1    
    78   40   42 1    
    79   40   96 1    
    80   41   97 1    
    81   41   98 1    
    82   41   99 1    
    83   42   43 2    
    84   42   44 am   BACKBONE|DICT|INTERRES
    85   44   45 1    
    86   44  100 1    
    87   45   46 1    
    88   45   47 1    
    89   45  101 1    
    90   46  102 1    
    91   46  103 1    
    92   46  104 1    
    93   47   48 2    
    94   47   49 am   BACKBONE|DICT|INTERRES
    95   49   50 1    
    96   49  105 1    
    97   50   51 1    
    98   50   52 1    
    99   50  106 1    
   100   51  107 1    
   101   51  108 1    
   102   51  109 1    
   103   52   53 2    
   104   52   54 am   BACKBONE|DICT|INTERRES
   105   54   55 1    
   106   54  110 1    
   107   55   56 1    
   108   55   59 1    
   109   55  111 1    
   110   56   57 am   BACKBONE|DICT|INTERRES
   111   56   58 2    
   112   57  112 1    
   113   57  113 1    
   114   59   60 1    
   115   59  114 1    
   116   59  115 1    
   117   60   61 1    
   118   61  116 1    
   119   61  117 1    
@<TRIPOS>SUBSTRUCTURE
     1 UNK         1 GROUP             0       ****    0 ROOT    
