@<TRIPOS>MOLECULE
3R8
117   119    1
SMALL
USER_CHARGES


@<TRIPOS>ATOM
      1 CA         13.5010  -23.1132  -48.4005 C.3       0 UNK        -0.2013 
      2 C          14.6253  -24.1331  -48.2976 C.2       0 UNK         0.4866 
      3 O          15.5864  -24.0643  -49.0647 O.2       0 UNK        -0.5176 
      4 N          14.5101  -25.0838  -47.3616 N.am      1 UNK        -0.4884 
      5 CA         15.5287  -26.0987  -47.0744 C.3       1 UNK         0.0853 
      6 C6         14.9245  -27.2750  -46.2692 C.3       10 UNK        -0.0849 
      7 S7         15.8677  -28.8235  -46.4686 S.3       10 UNK        -0.2776 
      8 C8         15.2316  -29.8139  -45.0772 C.3       10 UNK         0.0316 
      9 C9         16.0389  -29.5859  -43.8072 C.ar      10 UNK        -0.0863 
     10 C10        17.1234  -30.4165  -43.5072 C.ar      10 UNK        -0.1009 
     11 C11        17.8720  -30.2125  -42.3444 C.ar      10 UNK        -0.0712 
     12 C12        17.5340  -29.1685  -41.4790 C.ar      10 UNK        -0.0894 
     13 C13        16.4675  -28.3184  -41.7808 C.ar      10 UNK        -0.0745 
     14 C14        15.7090  -28.5464  -42.9324 C.ar      10 UNK        -0.0972 
     15 C15        16.1474  -27.1330  -40.8849 C.3       10 UNK         0.0209 
     16 S16        16.7339  -25.5765  -41.6280 S.3       10 UNK        -0.2568 
     17 C17        18.5194  -25.5939  -41.2417 C.3       10 UNK        -0.0983 
     18 CA         19.4110  -26.2204  -42.3495 C.3       3 UNK         0.0876 
     19 N          19.1760  -25.6274  -43.6674 N.am      3 UNK        -0.4424 
     20 C          19.4701  -26.2202  -44.8301 C.2       2 UNK         0.4918 
     21 O          19.9297  -27.3594  -44.9266 O.2       2 UNK        -0.4875 
     22 CA         19.1934  -25.4090  -46.1037 C.3       2 UNK         0.0481 
     23 CB         20.3409  -25.5453  -47.1200 C.3       2 UNK        -0.1831 
     24 N          17.9483  -25.8630  -46.7181 N.am      2 UNK        -0.4498 
     25 C          16.7284  -25.4605  -46.3418 C.2       1 UNK         0.5027 
     26 O          16.5263  -24.6255  -45.4556 O.2       1 UNK        -0.4969 
     27 C          20.9115  -26.1152  -42.0029 C.2       3 UNK         0.5005 
     28 O          21.3339  -25.1239  -41.4020 O.2       3 UNK        -0.5279 
     29 N          21.7001  -27.1057  -42.4382 N.am      4 UNK        -0.4463 
     30 CA         23.1430  -27.1906  -42.2043 C.3       4 UNK         0.0283 
     31 CB         23.7622  -28.1402  -43.2420 C.3       4 UNK        -0.1875 
     32 C          23.4786  -27.6344  -40.7683 C.2       4 UNK         0.4949 
     33 O          22.5981  -28.0622  -40.0175 O.2       4 UNK        -0.5039 
     34 N          24.7635  -27.5113  -40.4146 N.am      5 UNK        -0.4663 
     35 CA         25.3235  -27.7839  -39.0899 C.3       5 UNK         0.0242 
     36 CB         26.7432  -27.1897  -39.0286 C.3       5 UNK        -0.1982 
     37 C          25.3118  -29.2785  -38.7125 C.2       5 UNK         0.5017 
     38 O          26.3402  -29.9478  -38.8343 O.2       5 UNK        -0.5012 
     39 N          24.1521  -29.7609  -38.2443 N.am      6 UNK        -0.4439 
     40 CA         23.9008  -31.0745  -37.6383 C.3       6 UNK         0.0297 
     41 CB         24.5225  -31.1358  -36.2247 C.3       6 UNK        -0.2006 
     42 C          24.3292  -32.2390  -38.5488 C.2       6 UNK         0.4892 
     43 O          23.6074  -32.5546  -39.4936 O.2       6 UNK        -0.5089 
     44 N          25.5008  -32.8311  -38.2758 N.am      7 UNK        -0.4243 
     45 CA         26.1164  -33.9123  -39.0522 C.3       7 UNK         0.0196 
     46 CB         27.3817  -34.3936  -38.3239 C.3       7 UNK        -0.2007 
     47 C          26.4436  -33.5404  -40.5115 C.2       7 UNK         0.5020 
     48 O          26.5596  -34.4397  -41.3439 O.2       7 UNK        -0.5147 
     49 N          26.5693  -32.2385  -40.8085 N.am      8 UNK        -0.4734 
     50 CA         26.7078  -31.7159  -42.1712 C.3       8 UNK         0.0238 
     51 CB         27.2406  -30.2748  -42.1042 C.3       8 UNK        -0.1912 
     52 C          25.3947  -31.7609  -42.9780 C.2       8 UNK         0.5038 
     53 O          25.4486  -31.6672  -44.2049 O.2       8 UNK        -0.5046 
     54 N          24.2511  -31.8697  -42.2895 N.am      9 UNK        -0.4200 
     55 CA         22.9079  -31.9286  -42.8766 C.3       9 UNK         0.0839 
     56 C          22.5283  -33.3486  -43.3782 C.2       9 UNK         0.5513 
     57 N          21.4792  -33.4539  -44.1818 N.am      9 UNK        -0.7519 
     58 O          23.1518  -34.3522  -43.0386 O.2       9 UNK        -0.4960 
     59 C59        21.8627  -31.3464  -41.8849 C.3       10 UNK        -0.0876 
     60 S60        20.5801  -30.3599  -42.7203 S.3       10 UNK        -0.2414 
     61 C61        19.0685  -31.0940  -42.0343 C.3       10 UNK         0.0169 
     62 H62        12.7116  -23.3006  -47.6728 H         1 UNK         0.0903 
     63 H63        13.8887  -22.1094  -48.2289 H         1 UNK         0.0903 
     64 H64        13.0580  -23.1420  -49.3957 H         1 UNK         0.0903 
     65 H65        13.7173  -25.0675  -46.7356 H         1 UNK         0.3096 
     66 H66        15.8751  -26.4819  -48.0376 H         1 UNK         0.1121 
     67 H67        13.9110  -27.4839  -46.6164 H         1 UNK         0.0849 
     68 H68        14.8295  -27.0153  -45.2147 H         1 UNK         0.0849 
     69 H69        14.1775  -29.5898  -44.9062 H         1 UNK         0.0865 
     70 H70        15.2713  -30.8687  -45.3539 H         1 UNK         0.0865 
     71 H71        17.3939  -31.2149  -44.1849 H         1 UNK         0.1346 
     72 H72        18.1257  -28.9967  -40.5900 H         1 UNK         0.1412 
     73 H73        14.8757  -27.8950  -43.1537 H         1 UNK         0.1426 
     74 H74        16.5776  -27.2599  -39.8903 H         1 UNK         0.0716 
     75 H75        15.0674  -27.0699  -40.7439 H         1 UNK         0.0716 
     76 H76        18.6740  -26.1135  -40.2944 H         1 UNK         0.0695 
     77 H77        18.8074  -24.5562  -41.0629 H         1 UNK         0.0695 
     78 H78        19.1636  -27.2804  -42.4116 H         1 UNK         0.0983 
     79 H79        18.7651  -24.7050  -43.6746 H         1 UNK         0.3095 
     80 H80        19.1081  -24.3518  -45.8420 H         1 UNK         0.0454 
     81 H81        20.4683  -26.5748  -47.4573 H         1 UNK         0.0851 
     82 H82        21.2878  -25.2278  -46.6815 H         1 UNK         0.0851 
     83 H83        20.1671  -24.9245  -47.9989 H         1 UNK         0.0851 
     84 H84        18.0303  -26.5935  -47.4111 H         1 UNK         0.2976 
     85 H85        21.2738  -27.8778  -42.9360 H         1 UNK         0.3116 
     86 H86        23.5714  -26.1973  -42.3552 H         1 UNK         0.0646 
     87 H87        23.4043  -29.1578  -43.1105 H         1 UNK         0.0847 
     88 H88        24.8496  -28.1666  -43.1649 H         1 UNK         0.0847 
     89 H89        23.5207  -27.8306  -44.2590 H         1 UNK         0.0847 
     90 H90        25.4154  -27.1639  -41.1031 H         1 UNK         0.3040 
     91 H91        24.7163  -27.2563  -38.3505 H         1 UNK         0.1015 
     92 H92        27.4012  -27.6314  -39.7784 H         1 UNK         0.0786 
     93 H93        27.1983  -27.3664  -38.0529 H         1 UNK         0.0786 
     94 H94        26.7304  -26.1110  -39.1863 H         1 UNK         0.0786 
     95 H95        23.3408  -29.1597  -38.3445 H         1 UNK         0.3172 
     96 H96        22.8191  -31.1602  -37.5242 H         1 UNK         0.0595 
     97 H97        25.5980  -30.9550  -36.2329 H         1 UNK         0.0839 
     98 H98        24.3512  -32.1077  -35.7596 H         1 UNK         0.0839 
     99 H99        24.0731  -30.3883  -35.5707 H         1 UNK         0.0839 
    100 H100       26.0415  -32.4672  -37.5045 H         1 UNK         0.2998 
    101 H101       25.4026  -34.7382  -39.0851 H         1 UNK         0.0822 
    102 H102       27.8500  -35.2210  -38.8593 H         1 UNK         0.0787 
    103 H103       28.1241  -33.5989  -38.2387 H         1 UNK         0.0787 
    104 H104       27.1517  -34.7498  -37.3195 H         1 UNK         0.0787 
    105 H105       26.4874  -31.5553  -40.0602 H         1 UNK         0.3055 
    106 H106       27.4386  -32.3280  -42.7047 H         1 UNK         0.1106 
    107 H107       27.4168  -29.8765  -43.1044 H         1 UNK         0.0828 
    108 H108       26.5356  -29.6076  -41.6083 H         1 UNK         0.0828 
    109 H109       28.1861  -30.2242  -41.5641 H         1 UNK         0.0828 
    110 H110       24.2926  -32.0321  -41.2891 H         1 UNK         0.2931 
    111 H111       22.9313  -31.2960  -43.7659 H         1 UNK         0.0412 
    112 H112       20.9528  -32.6360  -44.4485 H         1 UNK         0.3472 
    113 H113       21.2044  -34.3634  -44.5188 H         1 UNK         0.3472 
    114 H114       22.3414  -30.6695  -41.1748 H         1 UNK         0.0970 
    115 H115       21.4165  -32.1308  -41.2702 H         1 UNK         0.0970 
    116 H116       19.1723  -31.2089  -40.9541 H         1 UNK         0.0612 
    117 H117       18.9287  -32.0949  -42.4456 H         1 UNK         0.0612 
@<TRIPOS>BOND
     1    1    2 1    
     2    1   62 1    
     3    1   63 1    
     4    1   64 1    
     5    2    3 2    
     6    2    4 am   BACKBONE|DICT|INTERRES
     7    4    5 1    
     8    4   65 1    
     9    5    6 1    
    10    5   25 1    
    11    5   66 1    
    12    6    7 1    
    13    6   67 1    
    14    6   68 1    
    15    7    8 1    
    16    8    9 1    
    17    8   69 1    
    18    8   70 1    
    19    9   10 ar   
    20    9   14 ar   
    21   10   11 ar   
    22   10   71 1    
    23   11   12 ar   
    24   11   61 1    
    25   12   13 ar   
    26   12   72 1    
    27   13   14 ar   
    28   13   15 1    
    29   14   73 1    
    30   15   16 1    
    31   15   74 1    
    32   15   75 1    
    33   16   17 1    
    34   17   18 1    
    35   17   76 1    
    36   17   77 1    
    37   18   19 1    
    38   18   27 1    
    39   18   78 1    
    40   19   20 am   BACKBONE|DICT|INTERRES
    41   19   79 1    
    42   20   21 2    
    43   20   22 1    
    44   22   23 1    
    45   22   24 1    
    46   22   80 1    
    47   23   81 1    
    48   23   82 1    
    49   23   83 1    
    50   24   25 am   BACKBONE|DICT|INTERRES
    51   24   84 1    
    52   25   26 2    
    53   27   28 2    
    54   27   29 am   BACKBONE|DICT|INTERRES
    55   29   30 1    
    56   29   85 1    
    57   30   31 1    
    58   30   32 1    
    59   30   86 1    
    60   31   87 1    
    61   31   88 1    
    62   31   89 1    
    63   32   33 2    
    64   32   34 am   BACKBONE|DICT|INTERRES
    65   34   35 1    
    66   34   90 1    
    67   35   36 1    
    68   35   37 1    
    69   35   91 1    
    70   36   92 1    
    71   36   93 1    
    72   36   94 1    
    73   37   38 2    
    74   37   39 am   BACKBONE|DICT|INTERRES
    75   39   40 1    
    76   39   95 1    
    77   40   41 1    
    78   40   42 1    
    79   40   96 1    
    80   41   97 1    
    81   41   98 1    
    82   41   99 1    
    83   42   43 2    
    84   42   44 am   BACKBONE|DICT|INTERRES
    85   44   45 1    
    86   44  100 1    
    87   45   46 1    
    88   45   47 1    
    89   45  101 1    
    90   46  102 1    
    91   46  103 1    
    92   46  104 1    
    93   47   48 2    
    94   47   49 am   BACKBONE|DICT|INTERRES
    95   49   50 1    
    96   49  105 1    
    97   50   51 1    
    98   50   52 1    
    99   50  106 1    
   100   51  107 1    
   101   51  108 1    
   102   51  109 1    
   103   52   53 2    
   104   52   54 am   BACKBONE|DICT|INTERRES
   105   54   55 1    
   106   54  110 1    
   107   55   56 1    
   108   55   59 1    
   109   55  111 1    
   110   56   57 am   BACKBONE|DICT|INTERRES
   111   56   58 2    
   112   57  112 1    
   113   57  113 1    
   114   59   60 1    
   115   59  114 1    
   116   59  115 1    
   117   60   61 1    
   118   61  116 1    
   119   61  117 1    
@<TRIPOS>SUBSTRUCTURE
     1 UNK         1 GROUP             0       ****    0 ROOT    
