@<TRIPOS>MOLECULE
3R8
117   119    1
SMALL
USER_CHARGES


@<TRIPOS>ATOM
      1 CA         17.8228  -22.2815  -45.0552 C.3       0 UNK        -0.2013 
      2 C          17.9745  -23.7936  -45.1316 C.2       0 UNK         0.4866 
      3 O          17.6303  -24.4870  -44.1740 O.2       0 UNK        -0.5176 
      4 N          18.4801  -24.3007  -46.2663 N.am      1 UNK        -0.4884 
      5 CA         18.7655  -25.7167  -46.5443 C.3       1 UNK         0.0853 
      6 C6         17.4999  -26.6127  -46.4095 C.3       10 UNK        -0.0849 
      7 S7         17.5395  -28.0992  -47.4691 S.3       10 UNK        -0.2776 
      8 C8         16.1919  -29.0907  -46.7474 C.3       10 UNK         0.0316 
      9 C9         16.5470  -29.6288  -45.3675 C.ar      10 UNK        -0.0863 
     10 C10        17.3480  -30.7669  -45.2412 C.ar      10 UNK        -0.1009 
     11 C11        17.6756  -31.2762  -43.9775 C.ar      10 UNK        -0.0712 
     12 C12        17.1705  -30.6403  -42.8377 C.ar      10 UNK        -0.0894 
     13 C13        16.3670  -29.5007  -42.9490 C.ar      10 UNK        -0.0745 
     14 C14        16.0574  -29.0034  -44.2178 C.ar      10 UNK        -0.0972 
     15 C15        15.8072  -28.8111  -41.7082 C.3       10 UNK         0.0209 
     16 S16        17.0870  -28.2899  -40.5162 S.3       10 UNK        -0.2568 
     17 C17        18.2198  -27.3028  -41.5525 C.3       10 UNK        -0.0983 
     18 CA         19.6062  -27.9910  -41.6665 C.3       3 UNK         0.0876 
     19 N          20.2028  -27.7588  -42.9787 N.am      3 UNK        -0.4424 
     20 C          20.8116  -28.6923  -43.7173 C.2       2 UNK         0.4918 
     21 O          20.9686  -29.8532  -43.3428 O.2       2 UNK        -0.4875 
     22 CA         21.2987  -28.2630  -45.1159 C.3       2 UNK         0.0481 
     23 CB         21.7699  -29.4552  -45.9682 C.3       2 UNK        -0.1831 
     24 N          20.2548  -27.5419  -45.8472 N.am      2 UNK        -0.4498 
     25 C          19.9723  -26.2398  -45.7256 C.2       1 UNK         0.5027 
     26 O          20.6250  -25.4805  -45.0042 O.2       1 UNK        -0.4969 
     27 C          20.5584  -27.5115  -40.5560 C.2       3 UNK         0.5005 
     28 O          21.3507  -26.5906  -40.7776 O.2       3 UNK        -0.5279 
     29 N          20.4141  -28.1124  -39.3648 N.am      4 UNK        -0.4463 
     30 CA         21.0584  -27.7500  -38.0970 C.3       4 UNK         0.0283 
     31 CB         20.3893  -26.4839  -37.5150 C.3       4 UNK        -0.1875 
     32 C          22.5919  -27.6469  -38.2085 C.2       4 UNK         0.4949 
     33 O          23.2572  -28.6761  -38.3175 O.2       4 UNK        -0.5039 
     34 N          23.1231  -26.4170  -38.1850 N.am      5 UNK        -0.4663 
     35 CA         24.5508  -26.1137  -38.2990 C.3       5 UNK         0.0242 
     36 CB         24.7771  -24.6270  -37.9810 C.3       5 UNK        -0.1982 
     37 C          25.1563  -26.4681  -39.6683 C.2       5 UNK         0.5017 
     38 O          26.3558  -26.7399  -39.7348 O.2       5 UNK        -0.5012 
     39 N          24.3371  -26.4934  -40.7301 N.am      6 UNK        -0.4439 
     40 CA         24.7465  -26.8544  -42.0899 C.3       6 UNK         0.0297 
     41 CB         23.8546  -26.1123  -43.1013 C.3       6 UNK        -0.2006 
     42 C          24.7460  -28.3827  -42.2882 C.2       6 UNK         0.4892 
     43 O          24.0799  -28.8897  -43.1890 O.2       6 UNK        -0.5089 
     44 N          25.4811  -29.0889  -41.4180 N.am      7 UNK        -0.4243 
     45 CA         25.7220  -30.5393  -41.3669 C.3       7 UNK         0.0196 
     46 CB         26.3982  -31.0297  -42.6643 C.3       7 UNK        -0.2007 
     47 C          24.5078  -31.4231  -41.0153 C.2       7 UNK         0.5020 
     48 O          24.7113  -32.6094  -40.7537 O.2       7 UNK        -0.5147 
     49 N          23.2845  -30.8720  -41.0216 N.am      8 UNK        -0.4734 
     50 CA         22.0044  -31.5476  -40.7471 C.3       8 UNK         0.0238 
     51 CB         21.8896  -31.9079  -39.2509 C.3       8 UNK        -0.1912 
     52 C          21.7461  -32.7576  -41.6712 C.2       8 UNK         0.5038 
     53 O          21.1847  -33.7619  -41.2291 O.2       8 UNK        -0.5046 
     54 N          22.1935  -32.6416  -42.9286 N.am      9 UNK        -0.4200 
     55 CA         22.2078  -33.6907  -43.9615 C.3       9 UNK         0.0839 
     56 C          23.1381  -34.9033  -43.6448 C.2       9 UNK         0.5513 
     57 N          24.0427  -34.8225  -42.6752 N.am      9 UNK        -0.7519 
     58 O          23.0670  -35.9306  -44.3150 O.2       9 UNK        -0.4960 
     59 C59        20.7839  -34.1269  -44.4152 C.3       10 UNK        -0.0876 
     60 S60        19.8163  -32.7374  -45.0944 S.3       10 UNK        -0.2414 
     61 C61        18.5395  -32.5257  -43.8083 C.3       10 UNK         0.0169 
     62 H62        18.4166  -21.8874  -44.2308 H         1 UNK         0.0903 
     63 H63        18.1478  -21.7904  -45.9723 H         1 UNK         0.0903 
     64 H64        16.7801  -22.0176  -44.8807 H         1 UNK         0.0903 
     65 H65        18.7648  -23.6616  -46.9961 H         1 UNK         0.3096 
     66 H66        19.0859  -25.7372  -47.5875 H         1 UNK         0.1121 
     67 H67        16.6111  -26.0491  -46.6979 H         1 UNK         0.0849 
     68 H68        17.3452  -26.8941  -45.3674 H         1 UNK         0.0849 
     69 H69        15.2809  -28.4913  -46.7069 H         1 UNK         0.0865 
     70 H70        15.9730  -29.9252  -47.4154 H         1 UNK         0.0865 
     71 H71        17.7140  -31.2532  -46.1346 H         1 UNK         0.1346 
     72 H72        17.4036  -31.0305  -41.8565 H         1 UNK         0.1412 
     73 H73        15.4306  -28.1269  -44.3125 H         1 UNK         0.1426 
     74 H74        15.1184  -29.4925  -41.2073 H         1 UNK         0.0716 
     75 H75        15.2208  -27.9336  -41.9853 H         1 UNK         0.0716 
     76 H76        18.2921  -26.2916  -41.1461 H         1 UNK         0.0695 
     77 H77        17.7697  -27.1774  -42.5388 H         1 UNK         0.0695 
     78 H78        19.4694  -29.0677  -41.5447 H         1 UNK         0.0983 
     79 H79        20.1863  -26.8062  -43.3214 H         1 UNK         0.3095 
     80 H80        22.1569  -27.6053  -44.9749 H         1 UNK         0.0454 
     81 H81        22.1558  -29.1268  -46.9329 H         1 UNK         0.0851 
     82 H82        20.9605  -30.1621  -46.1515 H         1 UNK         0.0851 
     83 H83        22.5728  -29.9987  -45.4678 H         1 UNK         0.0851 
     84 H84        19.6346  -28.1049  -46.4166 H         1 UNK         0.2976 
     85 H85        19.7303  -28.8536  -39.2954 H         1 UNK         0.3116 
     86 H86        20.8621  -28.5703  -37.4048 H         1 UNK         0.0646 
     87 H87        20.4623  -25.6288  -38.1880 H         1 UNK         0.0847 
     88 H88        20.8382  -26.2004  -36.5619 H         1 UNK         0.0847 
     89 H89        19.3298  -26.6572  -37.3259 H         1 UNK         0.0847 
     90 H90        22.4947  -25.6291  -38.1220 H         1 UNK         0.3040 
     91 H91        25.0786  -26.7092  -37.5506 H         1 UNK         0.1015 
     92 H92        24.2551  -23.9790  -38.6864 H         1 UNK         0.0786 
     93 H93        25.8374  -24.3743  -38.0299 H         1 UNK         0.0786 
     94 H94        24.4335  -24.3783  -36.9767 H         1 UNK         0.0786 
     95 H95        23.3418  -26.3410  -40.5852 H         1 UNK         0.3172 
     96 H96        25.7708  -26.5148  -42.2576 H         1 UNK         0.0595 
     97 H97        22.8056  -26.3843  -42.9921 H         1 UNK         0.0839 
     98 H98        24.1486  -26.3416  -44.1262 H         1 UNK         0.0839 
     99 H99        23.9307  -25.0320  -42.9785 H         1 UNK         0.0839 
    100 H100       25.9537  -28.5500  -40.6996 H         1 UNK         0.2998 
    101 H101       26.4343  -30.6837  -40.5531 H         1 UNK         0.0822 
    102 H102       27.2957  -30.4530  -42.8873 H         1 UNK         0.0787 
    103 H103       26.6996  -32.0745  -42.5774 H         1 UNK         0.0787 
    104 H104       25.7304  -30.9588  -43.5234 H         1 UNK         0.0787 
    105 H105       23.2193  -29.9105  -41.3291 H         1 UNK         0.3055 
    106 H106       21.2168  -30.8278  -40.9678 H         1 UNK         0.1106 
    107 H107       20.9009  -32.3044  -39.0170 H         1 UNK         0.0828 
    108 H108       22.6202  -32.6634  -38.9604 H         1 UNK         0.0828 
    109 H109       22.0421  -31.0342  -38.6187 H         1 UNK         0.0828 
    110 H110       22.5887  -31.7519  -43.2000 H         1 UNK         0.2931 
    111 H111       22.6803  -33.2174  -44.8230 H         1 UNK         0.0412 
    112 H112       24.1245  -33.9936  -42.0960 H         1 UNK         0.3472 
    113 H113       24.6407  -35.6137  -42.4979 H         1 UNK         0.3472 
    114 H114       20.2430  -34.6023  -43.5957 H         1 UNK         0.0970 
    115 H115       20.8482  -34.8788  -45.2035 H         1 UNK         0.0970 
    116 H116       19.0361  -32.4939  -42.8379 H         1 UNK         0.0612 
    117 H117       17.8923  -33.4033  -43.8029 H         1 UNK         0.0612 
@<TRIPOS>BOND
     1    1    2 1    
     2    1   62 1    
     3    1   63 1    
     4    1   64 1    
     5    2    3 2    
     6    2    4 am   BACKBONE|DICT|INTERRES
     7    4    5 1    
     8    4   65 1    
     9    5    6 1    
    10    5   25 1    
    11    5   66 1    
    12    6    7 1    
    13    6   67 1    
    14    6   68 1    
    15    7    8 1    
    16    8    9 1    
    17    8   69 1    
    18    8   70 1    
    19    9   10 ar   
    20    9   14 ar   
    21   10   11 ar   
    22   10   71 1    
    23   11   12 ar   
    24   11   61 1    
    25   12   13 ar   
    26   12   72 1    
    27   13   14 ar   
    28   13   15 1    
    29   14   73 1    
    30   15   16 1    
    31   15   74 1    
    32   15   75 1    
    33   16   17 1    
    34   17   18 1    
    35   17   76 1    
    36   17   77 1    
    37   18   19 1    
    38   18   27 1    
    39   18   78 1    
    40   19   20 am   BACKBONE|DICT|INTERRES
    41   19   79 1    
    42   20   21 2    
    43   20   22 1    
    44   22   23 1    
    45   22   24 1    
    46   22   80 1    
    47   23   81 1    
    48   23   82 1    
    49   23   83 1    
    50   24   25 am   BACKBONE|DICT|INTERRES
    51   24   84 1    
    52   25   26 2    
    53   27   28 2    
    54   27   29 am   BACKBONE|DICT|INTERRES
    55   29   30 1    
    56   29   85 1    
    57   30   31 1    
    58   30   32 1    
    59   30   86 1    
    60   31   87 1    
    61   31   88 1    
    62   31   89 1    
    63   32   33 2    
    64   32   34 am   BACKBONE|DICT|INTERRES
    65   34   35 1    
    66   34   90 1    
    67   35   36 1    
    68   35   37 1    
    69   35   91 1    
    70   36   92 1    
    71   36   93 1    
    72   36   94 1    
    73   37   38 2    
    74   37   39 am   BACKBONE|DICT|INTERRES
    75   39   40 1    
    76   39   95 1    
    77   40   41 1    
    78   40   42 1    
    79   40   96 1    
    80   41   97 1    
    81   41   98 1    
    82   41   99 1    
    83   42   43 2    
    84   42   44 am   BACKBONE|DICT|INTERRES
    85   44   45 1    
    86   44  100 1    
    87   45   46 1    
    88   45   47 1    
    89   45  101 1    
    90   46  102 1    
    91   46  103 1    
    92   46  104 1    
    93   47   48 2    
    94   47   49 am   BACKBONE|DICT|INTERRES
    95   49   50 1    
    96   49  105 1    
    97   50   51 1    
    98   50   52 1    
    99   50  106 1    
   100   51  107 1    
   101   51  108 1    
   102   51  109 1    
   103   52   53 2    
   104   52   54 am   BACKBONE|DICT|INTERRES
   105   54   55 1    
   106   54  110 1    
   107   55   56 1    
   108   55   59 1    
   109   55  111 1    
   110   56   57 am   BACKBONE|DICT|INTERRES
   111   56   58 2    
   112   57  112 1    
   113   57  113 1    
   114   59   60 1    
   115   59  114 1    
   116   59  115 1    
   117   60   61 1    
   118   61  116 1    
   119   61  117 1    
@<TRIPOS>SUBSTRUCTURE
     1 UNK         1 GROUP             0       ****    0 ROOT    
