@<TRIPOS>MOLECULE
3R8
117   119    1
SMALL
USER_CHARGES


@<TRIPOS>ATOM
      1 CA         17.3443  -26.3519  -49.5375 C.3       0 UNK        -0.2013 
      2 C          18.4749  -25.8595  -48.6463 C.2       0 UNK         0.4866 
      3 O          18.7659  -24.6627  -48.6302 O.2       0 UNK        -0.5176 
      4 N          19.1205  -26.7734  -47.9123 N.am      1 UNK        -0.4884 
      5 CA         20.1752  -26.4753  -46.9387 C.3       1 UNK         0.0853 
      6 C6         21.0482  -27.7274  -46.6533 C.3       10 UNK        -0.0849 
      7 S7         20.1160  -29.1678  -46.0183 S.3       10 UNK        -0.2776 
      8 C8         20.5332  -29.0637  -44.2544 C.3       10 UNK         0.0316 
      9 C9         19.5037  -29.7619  -43.3845 C.ar      10 UNK        -0.0863 
     10 C10        19.7590  -31.0299  -42.8619 C.ar      10 UNK        -0.1009 
     11 C11        18.8373  -31.6489  -42.0164 C.ar      10 UNK        -0.0712 
     12 C12        17.6611  -30.9757  -41.6703 C.ar      10 UNK        -0.0894 
     13 C13        17.3916  -29.6995  -42.1795 C.ar      10 UNK        -0.0745 
     14 C14        18.3081  -29.1148  -43.0633 C.ar      10 UNK        -0.0972 
     15 C15        16.0951  -28.9944  -41.7766 C.3       10 UNK         0.0209 
     16 S16        16.1785  -27.1671  -41.7552 S.3       10 UNK        -0.2568 
     17 C17        17.2563  -26.8227  -40.3195 C.3       10 UNK        -0.0983 
     18 CA         18.7452  -26.6156  -40.6995 C.3       3 UNK         0.0876 
     19 N          18.9235  -25.6648  -41.8083 N.am      3 UNK        -0.4424 
     20 C          20.0518  -25.5329  -42.5145 C.2       2 UNK         0.4918 
     21 O          21.0813  -26.1679  -42.2755 O.2       2 UNK        -0.4875 
     22 CA         20.0562  -24.4861  -43.6374 C.3       2 UNK         0.0481 
     23 CB         21.0483  -23.3575  -43.3116 C.3       2 UNK        -0.1831 
     24 N          20.4173  -25.0971  -44.9173 N.am      2 UNK        -0.4498 
     25 C          19.5888  -25.8558  -45.6482 C.2       1 UNK         0.5027 
     26 O          18.4194  -26.0855  -45.3263 O.2       1 UNK        -0.4969 
     27 C          19.5977  -26.2631  -39.4598 C.2       3 UNK         0.5005 
     28 O          19.8501  -27.1397  -38.6338 O.2       3 UNK        -0.5279 
     29 N          20.0561  -25.0050  -39.3660 N.am      4 UNK        -0.4463 
     30 CA         21.0475  -24.5474  -38.3901 C.3       4 UNK         0.0283 
     31 CB         21.0462  -23.0109  -38.3441 C.3       4 UNK        -0.1875 
     32 C          22.4649  -25.0742  -38.6873 C.2       4 UNK         0.4949 
     33 O          23.2313  -25.2864  -37.7476 O.2       4 UNK        -0.5039 
     34 N          22.7908  -25.2763  -39.9739 N.am      5 UNK        -0.4663 
     35 CA         24.0481  -25.8852  -40.4180 C.3       5 UNK         0.0242 
     36 CB         24.3881  -25.4159  -41.8429 C.3       5 UNK        -0.1982 
     37 C          23.9728  -27.4175  -40.3469 C.2       5 UNK         0.5017 
     38 O          24.9374  -28.0463  -39.9118 O.2       5 UNK        -0.5012 
     39 N          22.8191  -27.9759  -40.7509 N.am      6 UNK        -0.4439 
     40 CA         22.4261  -29.3884  -40.6345 C.3       6 UNK         0.0297 
     41 CB         22.3177  -29.7889  -39.1472 C.3       6 UNK        -0.2006 
     42 C          23.3108  -30.3672  -41.4364 C.2       6 UNK         0.4892 
     43 O          23.3982  -31.5426  -41.0801 O.2       6 UNK        -0.5089 
     44 N          23.9460  -29.8766  -42.5115 N.am      7 UNK        -0.4243 
     45 CA         24.9397  -30.5982  -43.3168 C.3       7 UNK         0.0196 
     46 CB         25.4600  -29.6691  -44.4256 C.3       7 UNK        -0.2007 
     47 C          24.4464  -31.9271  -43.9171 C.2       7 UNK         0.5020 
     48 O          25.2048  -32.8960  -43.9551 O.2       7 UNK        -0.5147 
     49 N          23.1825  -31.9558  -44.3580 N.am      8 UNK        -0.4734 
     50 CA         22.5428  -33.1300  -44.9575 C.3       8 UNK         0.0238 
     51 CB         21.3915  -32.6744  -45.8715 C.3       8 UNK        -0.1912 
     52 C          22.0630  -34.1837  -43.9393 C.2       8 UNK         0.5038 
     53 O          21.6117  -35.2445  -44.3740 O.2       8 UNK        -0.5046 
     54 N          22.1520  -33.9068  -42.6272 N.am      9 UNK        -0.4200 
     55 CA         21.8087  -34.8779  -41.5709 C.3       9 UNK         0.0839 
     56 C          22.8526  -36.0249  -41.4132 C.2       9 UNK         0.5513 
     57 N          24.0546  -35.9186  -41.9693 N.am      9 UNK        -0.7519 
     58 O          22.5614  -37.0338  -40.7759 O.2       9 UNK        -0.4960 
     59 C59        21.5466  -34.2069  -40.1937 C.3       10 UNK        -0.0876 
     60 S60        20.2561  -32.9124  -40.0406 S.3       10 UNK        -0.2414 
     61 C61        19.1353  -33.0360  -41.4700 C.3       10 UNK         0.0169 
     62 H62        16.4081  -25.8714  -49.2548 H         1 UNK         0.0903 
     63 H63        17.5527  -26.1071  -50.5787 H         1 UNK         0.0903 
     64 H64        17.2073  -27.4307  -49.4637 H         1 UNK         0.0903 
     65 H65        18.8174  -27.7374  -47.9281 H         1 UNK         0.3096 
     66 H66        20.8255  -25.7194  -47.3859 H         1 UNK         0.1121 
     67 H67        21.8660  -27.4819  -45.9730 H         1 UNK         0.0849 
     68 H68        21.5358  -28.0391  -47.5785 H         1 UNK         0.0849 
     69 H69        21.5276  -29.4776  -44.0941 H         1 UNK         0.0865 
     70 H70        20.5920  -28.0206  -43.9541 H         1 UNK         0.0865 
     71 H71        20.6830  -31.5357  -43.0936 H         1 UNK         0.1346 
     72 H72        16.9551  -31.4474  -41.0002 H         1 UNK         0.1412 
     73 H73        18.1117  -28.1378  -43.4838 H         1 UNK         0.1426 
     74 H74        15.7677  -29.3367  -40.7936 H         1 UNK         0.0716 
     75 H75        15.3164  -29.2917  -42.4800 H         1 UNK         0.0716 
     76 H76        17.1567  -27.6362  -39.5981 H         1 UNK         0.0695 
     77 H77        16.8657  -25.9311  -39.8254 H         1 UNK         0.0695 
     78 H78        19.1315  -27.5776  -41.0387 H         1 UNK         0.0983 
     79 H79        18.1059  -25.1343  -42.0744 H         1 UNK         0.3095 
     80 H80        19.0602  -24.0465  -43.7252 H         1 UNK         0.0454 
     81 H81        22.0716  -23.7253  -43.2269 H         1 UNK         0.0851 
     82 H82        20.7969  -22.8741  -42.3668 H         1 UNK         0.0851 
     83 H83        21.0345  -22.5848  -44.0804 H         1 UNK         0.0851 
     84 H84        21.3733  -24.9752  -45.2190 H         1 UNK         0.2976 
     85 H85        19.7624  -24.3399  -40.0661 H         1 UNK         0.3116 
     86 H86        20.7550  -24.9180  -37.4051 H         1 UNK         0.0646 
     87 H87        21.3240  -22.5749  -39.3045 H         1 UNK         0.0847 
     88 H88        21.7579  -22.6438  -37.6032 H         1 UNK         0.0847 
     89 H89        20.0660  -22.6220  -38.0680 H         1 UNK         0.0847 
     90 H90        22.0892  -25.1248  -40.6858 H         1 UNK         0.3040 
     91 H91        24.8542  -25.5593  -39.7563 H         1 UNK         0.1015 
     92 H92        23.6458  -25.7378  -42.5732 H         1 UNK         0.0786 
     93 H93        25.3505  -25.8180  -42.1625 H         1 UNK         0.0786 
     94 H94        24.4596  -24.3294  -41.8946 H         1 UNK         0.0786 
     95 H95        22.1234  -27.3565  -41.1585 H         1 UNK         0.3172 
     96 H96        21.4267  -29.4591  -41.0645 H         1 UNK         0.0595 
     97 H97        21.8985  -30.7874  -39.0343 H         1 UNK         0.0839 
     98 H98        21.6703  -29.1069  -38.5973 H         1 UNK         0.0839 
     99 H99        23.2914  -29.7952  -38.6570 H         1 UNK         0.0839 
    100 H100       23.8259  -28.8957  -42.7160 H         1 UNK         0.2998 
    101 H101       25.7740  -30.8370  -42.6538 H         1 UNK         0.0822 
    102 H102       25.9220  -28.7735  -44.0095 H         1 UNK         0.0787 
    103 H103       26.2175  -30.1695  -45.0308 H         1 UNK         0.0787 
    104 H104       24.6612  -29.3544  -45.0984 H         1 UNK         0.0787 
    105 H105       22.6362  -31.1111  -44.3012 H         1 UNK         0.3055 
    106 H106       23.2804  -33.6310  -45.5892 H         1 UNK         0.1106 
    107 H107       20.9683  -33.5204  -46.4148 H         1 UNK         0.0828 
    108 H108       20.5766  -32.2142  -45.3146 H         1 UNK         0.0828 
    109 H109       21.7347  -31.9571  -46.6172 H         1 UNK         0.0828 
    110 H110       22.5651  -33.0351  -42.3153 H         1 UNK         0.2931 
    111 H111       20.8844  -35.3779  -41.8645 H         1 UNK         0.0412 
    112 H112       24.3088  -35.0919  -42.4886 H         1 UNK         0.3472 
    113 H113       24.7175  -36.6703  -41.8608 H         1 UNK         0.3472 
    114 H114       22.4753  -33.7678  -39.8243 H         1 UNK         0.0970 
    115 H115       21.2841  -34.9738  -39.4621 H         1 UNK         0.0970 
    116 H116       19.5388  -33.6497  -42.2709 H         1 UNK         0.0612 
    117 H117       18.2152  -33.5278  -41.1516 H         1 UNK         0.0612 
@<TRIPOS>BOND
     1    1    2 1    
     2    1   62 1    
     3    1   63 1    
     4    1   64 1    
     5    2    3 2    
     6    2    4 am   BACKBONE|DICT|INTERRES
     7    4    5 1    
     8    4   65 1    
     9    5    6 1    
    10    5   25 1    
    11    5   66 1    
    12    6    7 1    
    13    6   67 1    
    14    6   68 1    
    15    7    8 1    
    16    8    9 1    
    17    8   69 1    
    18    8   70 1    
    19    9   10 ar   
    20    9   14 ar   
    21   10   11 ar   
    22   10   71 1    
    23   11   12 ar   
    24   11   61 1    
    25   12   13 ar   
    26   12   72 1    
    27   13   14 ar   
    28   13   15 1    
    29   14   73 1    
    30   15   16 1    
    31   15   74 1    
    32   15   75 1    
    33   16   17 1    
    34   17   18 1    
    35   17   76 1    
    36   17   77 1    
    37   18   19 1    
    38   18   27 1    
    39   18   78 1    
    40   19   20 am   BACKBONE|DICT|INTERRES
    41   19   79 1    
    42   20   21 2    
    43   20   22 1    
    44   22   23 1    
    45   22   24 1    
    46   22   80 1    
    47   23   81 1    
    48   23   82 1    
    49   23   83 1    
    50   24   25 am   BACKBONE|DICT|INTERRES
    51   24   84 1    
    52   25   26 2    
    53   27   28 2    
    54   27   29 am   BACKBONE|DICT|INTERRES
    55   29   30 1    
    56   29   85 1    
    57   30   31 1    
    58   30   32 1    
    59   30   86 1    
    60   31   87 1    
    61   31   88 1    
    62   31   89 1    
    63   32   33 2    
    64   32   34 am   BACKBONE|DICT|INTERRES
    65   34   35 1    
    66   34   90 1    
    67   35   36 1    
    68   35   37 1    
    69   35   91 1    
    70   36   92 1    
    71   36   93 1    
    72   36   94 1    
    73   37   38 2    
    74   37   39 am   BACKBONE|DICT|INTERRES
    75   39   40 1    
    76   39   95 1    
    77   40   41 1    
    78   40   42 1    
    79   40   96 1    
    80   41   97 1    
    81   41   98 1    
    82   41   99 1    
    83   42   43 2    
    84   42   44 am   BACKBONE|DICT|INTERRES
    85   44   45 1    
    86   44  100 1    
    87   45   46 1    
    88   45   47 1    
    89   45  101 1    
    90   46  102 1    
    91   46  103 1    
    92   46  104 1    
    93   47   48 2    
    94   47   49 am   BACKBONE|DICT|INTERRES
    95   49   50 1    
    96   49  105 1    
    97   50   51 1    
    98   50   52 1    
    99   50  106 1    
   100   51  107 1    
   101   51  108 1    
   102   51  109 1    
   103   52   53 2    
   104   52   54 am   BACKBONE|DICT|INTERRES
   105   54   55 1    
   106   54  110 1    
   107   55   56 1    
   108   55   59 1    
   109   55  111 1    
   110   56   57 am   BACKBONE|DICT|INTERRES
   111   56   58 2    
   112   57  112 1    
   113   57  113 1    
   114   59   60 1    
   115   59  114 1    
   116   59  115 1    
   117   60   61 1    
   118   61  116 1    
   119   61  117 1    
@<TRIPOS>SUBSTRUCTURE
     1 UNK         1 GROUP             0       ****    0 ROOT    
