@<TRIPOS>MOLECULE
3R8
117   119    1
SMALL
USER_CHARGES


@<TRIPOS>ATOM
      1 CA         13.0154  -27.1400  -47.3056 C.3       0 UNK        -0.2013 
      2 C          14.1949  -27.6907  -46.5178 C.2       0 UNK         0.4866 
      3 O          14.3914  -28.9059  -46.4787 O.2       0 UNK        -0.5176 
      4 N          14.9748  -26.8082  -45.8817 N.am      1 UNK        -0.4884 
      5 CA         16.1781  -27.1572  -45.1197 C.3       1 UNK         0.0853 
      6 C6         16.6139  -26.0084  -44.1764 C.3       10 UNK        -0.0849 
      7 S7         15.4220  -25.6762  -42.8339 S.3       10 UNK        -0.2776 
      8 C8         15.5091  -27.1858  -41.8038 C.3       10 UNK         0.0316 
      9 C9         16.9326  -27.6742  -41.5587 C.ar      10 UNK        -0.0863 
     10 C10        17.3395  -28.9227  -42.0387 C.ar      10 UNK        -0.1009 
     11 C11        18.6472  -29.3706  -41.8346 C.ar      10 UNK        -0.0712 
     12 C12        19.5476  -28.5660  -41.1297 C.ar      10 UNK        -0.0894 
     13 C13        19.1596  -27.3084  -40.6553 C.ar      10 UNK        -0.0745 
     14 C14        17.8455  -26.8761  -40.8629 C.ar      10 UNK        -0.0972 
     15 C15        20.1470  -26.3976  -39.9275 C.3       10 UNK         0.0209 
     16 S16        21.7487  -26.1660  -40.7822 S.3       10 UNK        -0.2568 
     17 C17        21.2769  -25.9340  -42.5300 C.3       10 UNK        -0.0983 
     18 CA         21.7274  -27.1445  -43.3945 C.3       3 UNK         0.0876 
     19 N          20.7622  -27.4420  -44.4517 N.am      3 UNK        -0.4424 
     20 C          20.6787  -28.6152  -45.0914 C.2       2 UNK         0.4918 
     21 O          21.4110  -29.5764  -44.8556 O.2       2 UNK        -0.4875 
     22 CA         19.5396  -28.7412  -46.1143 C.3       2 UNK         0.0481 
     23 CB         19.3792  -30.1692  -46.6707 C.3       2 UNK        -0.1831 
     24 N          18.2921  -28.3165  -45.4802 N.am      2 UNK        -0.4498 
     25 C          17.3483  -27.5537  -46.0435 C.2       1 UNK         0.5027 
     26 O          17.4003  -27.1333  -47.2025 O.2       1 UNK        -0.4969 
     27 C          23.1374  -26.9265  -43.9727 C.2       3 UNK         0.5005 
     28 O          23.2746  -26.2915  -45.0219 O.2       3 UNK        -0.5279 
     29 N          24.1533  -27.4065  -43.2471 N.am      4 UNK        -0.4463 
     30 CA         25.5729  -27.1736  -43.5282 C.3       4 UNK         0.0283 
     31 CB         26.2296  -28.5003  -43.9533 C.3       4 UNK        -0.1875 
     32 C          26.2432  -26.5511  -42.2918 C.2       4 UNK         0.4949 
     33 O          27.3425  -26.9611  -41.9180 O.2       4 UNK        -0.5039 
     34 N          25.5295  -25.6143  -41.6424 N.am      5 UNK        -0.4663 
     35 CA         25.8098  -25.0455  -40.3115 C.3       5 UNK         0.0242 
     36 CB         27.1095  -24.2126  -40.3200 C.3       5 UNK        -0.1982 
     37 C          25.7871  -26.1160  -39.1973 C.2       5 UNK         0.5017 
     38 O          26.4717  -25.9777  -38.1823 O.2       5 UNK        -0.5012 
     39 N          24.9972  -27.1680  -39.4318 N.am      6 UNK        -0.4439 
     40 CA         24.8514  -28.4008  -38.6740 C.3       6 UNK         0.0297 
     41 CB         26.1750  -29.1916  -38.6516 C.3       6 UNK        -0.2006 
     42 C          23.7618  -29.2173  -39.3790 C.2       6 UNK         0.4892 
     43 O          23.5032  -28.9970  -40.5705 O.2       6 UNK        -0.5089 
     44 N          23.1649  -30.1595  -38.6391 N.am      7 UNK        -0.4243 
     45 CA         22.0824  -31.0474  -39.0735 C.3       7 UNK         0.0196 
     46 CB         21.3780  -31.6192  -37.8292 C.3       7 UNK        -0.2007 
     47 C          22.5443  -32.1478  -40.0504 C.2       7 UNK         0.5020 
     48 O          22.3005  -33.3318  -39.8148 O.2       7 UNK        -0.5147 
     49 N          23.1731  -31.7440  -41.1594 N.am      8 UNK        -0.4734 
     50 CA         23.6238  -32.5969  -42.2661 C.3       8 UNK         0.0238 
     51 CB         24.7735  -31.8786  -42.9961 C.3       8 UNK        -0.1912 
     52 C          22.4715  -32.9793  -43.2214 C.2       8 UNK         0.5038 
     53 O          22.6486  -32.9645  -44.4407 O.2       8 UNK        -0.5046 
     54 N          21.3035  -33.2806  -42.6458 N.am      9 UNK        -0.4200 
     55 CA         20.0439  -33.5713  -43.3348 C.3       9 UNK         0.0839 
     56 C          20.0857  -34.9047  -44.1289 C.2       9 UNK         0.5513 
     57 N          19.3707  -34.9844  -45.2428 N.am      9 UNK        -0.7519 
     58 O          20.7185  -35.8774  -43.7222 O.2       9 UNK        -0.4960 
     59 C59        18.8526  -33.5598  -42.3375 C.3       10 UNK        -0.0876 
     60 S60        18.7049  -32.0759  -41.2710 S.3       10 UNK        -0.2414 
     61 C61        19.0866  -30.7088  -42.4066 C.3       10 UNK         0.0169 
     62 H62        12.9526  -26.0539  -47.2406 H         1 UNK         0.0903 
     63 H63        13.1073  -27.4120  -48.3568 H         1 UNK         0.0903 
     64 H64        12.0830  -27.5566  -46.9257 H         1 UNK         0.0903 
     65 H65        14.7749  -25.8209  -45.9557 H         1 UNK         0.3096 
     66 H66        15.9389  -28.0354  -44.5176 H         1 UNK         0.1121 
     67 H67        17.5859  -26.2080  -43.7220 H         1 UNK         0.0849 
     68 H68        16.7476  -25.0855  -44.7441 H         1 UNK         0.0849 
     69 H69        15.0333  -26.9828  -40.8433 H         1 UNK         0.0865 
     70 H70        14.9086  -27.9655  -42.2748 H         1 UNK         0.0865 
     71 H71        16.6398  -29.5508  -42.5735 H         1 UNK         0.1346 
     72 H72        20.5628  -28.9000  -40.9763 H         1 UNK         0.1412 
     73 H73        17.5317  -25.9064  -40.5004 H         1 UNK         0.1426 
     74 H74        20.3381  -26.8091  -38.9357 H         1 UNK         0.0716 
     75 H75        19.7079  -25.4114  -39.7698 H         1 UNK         0.0716 
     76 H76        20.1965  -25.7957  -42.5851 H         1 UNK         0.0695 
     77 H77        21.6973  -24.9927  -42.8900 H         1 UNK         0.0695 
     78 H78        21.7702  -28.0353  -42.7645 H         1 UNK         0.0983 
     79 H79        20.1581  -26.6863  -44.7368 H         1 UNK         0.3095 
     80 H80        19.7886  -28.0738  -46.9418 H         1 UNK         0.0454 
     81 H81        20.2944  -30.5026  -47.1616 H         1 UNK         0.0851 
     82 H82        19.1519  -30.8869  -45.8821 H         1 UNK         0.0851 
     83 H83        18.5795  -30.2185  -47.4097 H         1 UNK         0.0851 
     84 H84        18.1932  -28.5770  -44.5081 H         1 UNK         0.2976 
     85 H85        23.9446  -27.9234  -42.3986 H         1 UNK         0.3116 
     86 H86        25.6943  -26.4563  -44.3424 H         1 UNK         0.0646 
     87 H87        27.2691  -28.3462  -44.2452 H         1 UNK         0.0847 
     88 H88        25.7162  -28.9427  -44.8071 H         1 UNK         0.0847 
     89 H89        26.2239  -29.2283  -43.1417 H         1 UNK         0.0847 
     90 H90        24.6451  -25.3426  -42.0504 H         1 UNK         0.3040 
     91 H91        24.9852  -24.3663  -40.0877 H         1 UNK         0.1015 
     92 H92        27.1004  -23.4710  -41.1186 H         1 UNK         0.0786 
     93 H93        27.9929  -24.8379  -40.4516 H         1 UNK         0.0786 
     94 H94        27.2332  -23.6733  -39.3800 H         1 UNK         0.0786 
     95 H95        24.4338  -27.1656  -40.2726 H         1 UNK         0.3172 
     96 H96        24.5306  -28.1605  -37.6587 H         1 UNK         0.0595 
     97 H97        26.9606  -28.6475  -38.1278 H         1 UNK         0.0839 
     98 H98        26.5324  -29.4026  -39.6607 H         1 UNK         0.0839 
     99 H99        26.0561  -30.1477  -38.1404 H         1 UNK         0.0839 
    100 H100       23.4802  -30.2856  -37.6879 H         1 UNK         0.2998 
    101 H101       21.3463  -30.4486  -39.6090 H         1 UNK         0.0822 
    102 H102       20.9978  -30.8243  -37.1873 H         1 UNK         0.0787 
    103 H103       20.5239  -32.2360  -38.1133 H         1 UNK         0.0787 
    104 H104       22.0484  -32.2416  -37.2353 H         1 UNK         0.0787 
    105 H105       23.3229  -30.7433  -41.2606 H         1 UNK         0.3055 
    106 H106       24.0157  -33.5291  -41.8531 H         1 UNK         0.1106 
    107 H107       24.4284  -30.9612  -43.4750 H         1 UNK         0.0828 
    108 H108       25.5806  -31.6197  -42.3106 H         1 UNK         0.0828 
    109 H109       25.2024  -32.5117  -43.7739 H         1 UNK         0.0828 
    110 H110       21.2773  -33.3203  -41.6345 H         1 UNK         0.2931 
    111 H111       19.8932  -32.7713  -44.0617 H         1 UNK         0.0412 
    112 H112       19.3712  -35.8478  -45.7637 H         1 UNK         0.3472 
    113 H113       18.8383  -34.1978  -45.5808 H         1 UNK         0.3472 
    114 H114       17.9127  -33.6660  -42.8824 H         1 UNK         0.0970 
    115 H115       18.9101  -34.4269  -41.6763 H         1 UNK         0.0970 
    116 H116       18.5859  -30.8788  -43.3606 H         1 UNK         0.0612 
    117 H117       20.1578  -30.6942  -42.6125 H         1 UNK         0.0612 
@<TRIPOS>BOND
     1    1    2 1    
     2    1   62 1    
     3    1   63 1    
     4    1   64 1    
     5    2    3 2    
     6    2    4 am   BACKBONE|DICT|INTERRES
     7    4    5 1    
     8    4   65 1    
     9    5    6 1    
    10    5   25 1    
    11    5   66 1    
    12    6    7 1    
    13    6   67 1    
    14    6   68 1    
    15    7    8 1    
    16    8    9 1    
    17    8   69 1    
    18    8   70 1    
    19    9   10 ar   
    20    9   14 ar   
    21   10   11 ar   
    22   10   71 1    
    23   11   12 ar   
    24   11   61 1    
    25   12   13 ar   
    26   12   72 1    
    27   13   14 ar   
    28   13   15 1    
    29   14   73 1    
    30   15   16 1    
    31   15   74 1    
    32   15   75 1    
    33   16   17 1    
    34   17   18 1    
    35   17   76 1    
    36   17   77 1    
    37   18   19 1    
    38   18   27 1    
    39   18   78 1    
    40   19   20 am   BACKBONE|DICT|INTERRES
    41   19   79 1    
    42   20   21 2    
    43   20   22 1    
    44   22   23 1    
    45   22   24 1    
    46   22   80 1    
    47   23   81 1    
    48   23   82 1    
    49   23   83 1    
    50   24   25 am   BACKBONE|DICT|INTERRES
    51   24   84 1    
    52   25   26 2    
    53   27   28 2    
    54   27   29 am   BACKBONE|DICT|INTERRES
    55   29   30 1    
    56   29   85 1    
    57   30   31 1    
    58   30   32 1    
    59   30   86 1    
    60   31   87 1    
    61   31   88 1    
    62   31   89 1    
    63   32   33 2    
    64   32   34 am   BACKBONE|DICT|INTERRES
    65   34   35 1    
    66   34   90 1    
    67   35   36 1    
    68   35   37 1    
    69   35   91 1    
    70   36   92 1    
    71   36   93 1    
    72   36   94 1    
    73   37   38 2    
    74   37   39 am   BACKBONE|DICT|INTERRES
    75   39   40 1    
    76   39   95 1    
    77   40   41 1    
    78   40   42 1    
    79   40   96 1    
    80   41   97 1    
    81   41   98 1    
    82   41   99 1    
    83   42   43 2    
    84   42   44 am   BACKBONE|DICT|INTERRES
    85   44   45 1    
    86   44  100 1    
    87   45   46 1    
    88   45   47 1    
    89   45  101 1    
    90   46  102 1    
    91   46  103 1    
    92   46  104 1    
    93   47   48 2    
    94   47   49 am   BACKBONE|DICT|INTERRES
    95   49   50 1    
    96   49  105 1    
    97   50   51 1    
    98   50   52 1    
    99   50  106 1    
   100   51  107 1    
   101   51  108 1    
   102   51  109 1    
   103   52   53 2    
   104   52   54 am   BACKBONE|DICT|INTERRES
   105   54   55 1    
   106   54  110 1    
   107   55   56 1    
   108   55   59 1    
   109   55  111 1    
   110   56   57 am   BACKBONE|DICT|INTERRES
   111   56   58 2    
   112   57  112 1    
   113   57  113 1    
   114   59   60 1    
   115   59  114 1    
   116   59  115 1    
   117   60   61 1    
   118   61  116 1    
   119   61  117 1    
@<TRIPOS>SUBSTRUCTURE
     1 UNK         1 GROUP             0       ****    0 ROOT    
