@<TRIPOS>MOLECULE
3R8
117   119    1
SMALL
USER_CHARGES


@<TRIPOS>ATOM
      1 CA         19.3345  -22.3267  -47.8763 C.3       0 UNK        -0.2013 
      2 C          18.8289  -23.7413  -47.6343 C.2       0 UNK         0.4866 
      3 O          18.0105  -24.2377  -48.4084 O.2       0 UNK        -0.5176 
      4 N          19.3167  -24.3910  -46.5732 N.am      1 UNK        -0.4884 
      5 CA         18.9898  -25.7635  -46.1888 C.3       1 UNK         0.0853 
      6 C6         17.8431  -25.8250  -45.1422 C.3       10 UNK        -0.0849 
      7 S7         16.2101  -26.1221  -45.8953 S.3       10 UNK        -0.2776 
      8 C8         16.2215  -27.9347  -46.1697 C.3       10 UNK         0.0316 
      9 C9         16.4888  -28.7927  -44.9302 C.ar      10 UNK        -0.0863 
     10 C10        17.1349  -30.0259  -45.0778 C.ar      10 UNK        -0.1009 
     11 C11        17.3887  -30.8489  -43.9744 C.ar      10 UNK        -0.0712 
     12 C12        16.9735  -30.4215  -42.7059 C.ar      10 UNK        -0.0894 
     13 C13        16.3589  -29.1791  -42.5342 C.ar      10 UNK        -0.0745 
     14 C14        16.0926  -28.3850  -43.6514 C.ar      10 UNK        -0.0972 
     15 C15        16.0074  -28.6746  -41.1394 C.3       10 UNK         0.0209 
     16 S16        17.4569  -28.5715  -40.0288 S.3       10 UNK        -0.2568 
     17 C17        18.7022  -27.6936  -41.0417 C.3       10 UNK        -0.0983 
     18 CA         19.8293  -28.6519  -41.5232 C.3       3 UNK         0.0876 
     19 N          20.2900  -28.3116  -42.8760 N.am      3 UNK        -0.4424 
     20 C          21.0288  -29.1037  -43.6671 C.2       2 UNK         0.4918 
     21 O          21.4576  -30.1997  -43.3125 O.2       2 UNK        -0.4875 
     22 CA         21.3316  -28.6101  -45.0952 C.3       2 UNK         0.0481 
     23 CB         21.5318  -29.7861  -46.0713 C.3       2 UNK        -0.1831 
     24 N          20.2603  -27.7587  -45.6146 N.am      2 UNK        -0.4498 
     25 C          20.2628  -26.4209  -45.6333 C.2       1 UNK         0.5027 
     26 O          21.1813  -25.7233  -45.1959 O.2       1 UNK        -0.4969 
     27 C          20.9804  -28.7760  -40.4969 C.2       3 UNK         0.5005 
     28 O          22.1523  -28.6096  -40.8462 O.2       3 UNK        -0.5279 
     29 N          20.6340  -29.0711  -39.2361 N.am      4 UNK        -0.4463 
     30 CA         21.5504  -29.3350  -38.1152 C.3       4 UNK         0.0283 
     31 CB         20.7285  -29.6008  -36.8444 C.3       4 UNK        -0.1875 
     32 C          22.6076  -28.2474  -37.8495 C.2       4 UNK         0.4949 
     33 O          23.7074  -28.5728  -37.4034 O.2       4 UNK        -0.5039 
     34 N          22.2678  -26.9871  -38.1448 N.am      5 UNK        -0.4663 
     35 CA         23.1711  -25.8396  -38.0365 C.3       5 UNK         0.0242 
     36 CB         22.3253  -24.5656  -37.8701 C.3       5 UNK        -0.1982 
     37 C          24.1313  -25.6909  -39.2336 C.2       5 UNK         0.5017 
     38 O          25.0813  -24.9136  -39.1297 O.2       5 UNK        -0.5012 
     39 N          23.8619  -26.3909  -40.3447 N.am      6 UNK        -0.4439 
     40 CA         24.5803  -26.2607  -41.6126 C.3       6 UNK         0.0297 
     41 CB         23.5776  -25.9296  -42.7320 C.3       6 UNK        -0.2006 
     42 C          25.3783  -27.5247  -41.9603 C.2       6 UNK         0.4892 
     43 O          26.5679  -27.4113  -42.2596 O.2       6 UNK        -0.5089 
     44 N          24.7215  -28.6930  -41.9458 N.am      7 UNK        -0.4243 
     45 CA         25.2968  -29.9584  -42.4187 C.3       7 UNK         0.0196 
     46 CB         25.1811  -30.0319  -43.9537 C.3       7 UNK        -0.2007 
     47 C          24.6935  -31.2180  -41.7748 C.2       7 UNK         0.5020 
     48 O          25.2656  -32.2936  -41.9576 O.2       7 UNK        -0.5147 
     49 N          23.5621  -31.0976  -41.0626 N.am      8 UNK        -0.4734 
     50 CA         22.8090  -32.1922  -40.4262 C.3       8 UNK         0.0238 
     51 CB         23.5946  -32.7771  -39.2330 C.3       8 UNK        -0.1912 
     52 C          22.3223  -33.2695  -41.4173 C.2       8 UNK         0.5038 
     53 O          22.2790  -34.4527  -41.0751 O.2       8 UNK        -0.5046 
     54 N          21.9527  -32.8219  -42.6227 N.am      9 UNK        -0.4200 
     55 CA         21.3865  -33.5994  -43.7341 C.3       9 UNK         0.0839 
     56 C          22.3524  -34.6480  -44.3620 C.2       9 UNK         0.5513 
     57 N          23.6546  -34.5825  -44.1089 N.am      9 UNK        -0.7519 
     58 O          21.9224  -35.5153  -45.1184 O.2       9 UNK        -0.4960 
     59 C59        19.9741  -34.1749  -43.4197 C.3       10 UNK        -0.0876 
     60 S60        18.8407  -32.9312  -42.7052 S.3       10 UNK        -0.2414 
     61 C61        18.1145  -32.1790  -44.2028 C.3       10 UNK         0.0169 
     62 H62        19.8220  -22.2633  -48.8488 H         1 UNK         0.0903 
     63 H63        18.5016  -21.6242  -47.8661 H         1 UNK         0.0903 
     64 H64        20.0508  -22.0136  -47.1168 H         1 UNK         0.0903 
     65 H65        20.0473  -23.9741  -46.0086 H         1 UNK         0.3096 
     66 H66        18.7178  -26.3283  -47.0837 H         1 UNK         0.1121 
     67 H67        18.0082  -26.5947  -44.3880 H         1 UNK         0.0849 
     68 H68        17.7912  -24.8939  -44.5748 H         1 UNK         0.0849 
     69 H69        15.2537  -28.2239  -46.5811 H         1 UNK         0.0865 
     70 H70        16.9564  -28.1570  -46.9445 H         1 UNK         0.0865 
     71 H71        17.4411  -30.3535  -46.0624 H         1 UNK         0.1346 
     72 H72        17.1527  -31.0306  -41.8320 H         1 UNK         0.1412 
     73 H73        15.5950  -27.4344  -43.5187 H         1 UNK         0.1426 
     74 H74        15.2670  -29.3407  -40.6947 H         1 UNK         0.0716 
     75 H75        15.5425  -27.6889  -41.1905 H         1 UNK         0.0716 
     76 H76        18.1903  -27.2383  -41.8902 H         1 UNK         0.0695 
     77 H77        19.1023  -26.8531  -40.4709 H         1 UNK         0.0695 
     78 H78        19.4159  -29.6587  -41.6112 H         1 UNK         0.0983 
     79 H79        20.0263  -27.4048  -43.2261 H         1 UNK         0.3095 
     80 H80        22.2675  -28.0498  -45.0480 H         1 UNK         0.0454 
     81 H81        20.6451  -30.4185  -46.1271 H         1 UNK         0.0851 
     82 H82        21.7553  -29.4319  -47.0776 H         1 UNK         0.0851 
     83 H83        22.3627  -30.4227  -45.7666 H         1 UNK         0.0851 
     84 H84        19.4419  -28.2460  -45.9507 H         1 UNK         0.2976 
     85 H85        19.6453  -29.1580  -39.0357 H         1 UNK         0.3116 
     86 H86        22.0999  -30.2457  -38.3497 H         1 UNK         0.0646 
     87 H87        21.3787  -29.8212  -35.9964 H         1 UNK         0.0847 
     88 H88        20.0656  -30.4570  -36.9703 H         1 UNK         0.0847 
     89 H89        20.1180  -28.7393  -36.5708 H         1 UNK         0.0847 
     90 H90        21.3391  -26.8098  -38.4992 H         1 UNK         0.3040 
     91 H91        23.7875  -25.9579  -37.1421 H         1 UNK         0.1015 
     92 H92        21.6852  -24.6259  -36.9896 H         1 UNK         0.0786 
     93 H93        21.6890  -24.3865  -38.7379 H         1 UNK         0.0786 
     94 H94        22.9605  -23.6874  -37.7456 H         1 UNK         0.0786 
     95 H95        23.1071  -27.0709  -40.3243 H         1 UNK         0.3172 
     96 H96        25.2922  -25.4343  -41.5615 H         1 UNK         0.0595 
     97 H97        23.0851  -24.9741  -42.5516 H         1 UNK         0.0839 
     98 H98        22.8011  -26.6885  -42.8237 H         1 UNK         0.0839 
     99 H99        24.0764  -25.8569  -43.6995 H         1 UNK         0.0839 
    100 H100       23.7445  -28.6966  -41.6624 H         1 UNK         0.2998 
    101 H101       26.3564  -29.9778  -42.1541 H         1 UNK         0.0822 
    102 H102       25.7255  -29.2199  -44.4356 H         1 UNK         0.0787 
    103 H103       25.5918  -30.9663  -44.3387 H         1 UNK         0.0787 
    104 H104       24.1416  -29.9748  -44.2740 H         1 UNK         0.0787 
    105 H105       23.1221  -30.1844  -40.9995 H         1 UNK         0.3055 
    106 H106       21.8934  -31.7499  -40.0343 H         1 UNK         0.1106 
    107 H107       24.4871  -33.3112  -39.5601 H         1 UNK         0.0828 
    108 H108       23.9073  -31.9957  -38.5404 H         1 UNK         0.0828 
    109 H109       22.9829  -33.4825  -38.6695 H         1 UNK         0.0828 
    110 H110       21.9827  -31.8182  -42.7925 H         1 UNK         0.2931 
    111 H111       21.2496  -32.8638  -44.5273 H         1 UNK         0.0412 
    112 H112       24.2755  -35.2572  -44.5272 H         1 UNK         0.3472 
    113 H113       24.0180  -33.8806  -43.4799 H         1 UNK         0.3472 
    114 H114       20.0563  -35.0016  -42.7122 H         1 UNK         0.0970 
    115 H115       19.5178  -34.5926  -44.3189 H         1 UNK         0.0970 
    116 H116       18.9166  -32.0202  -44.9249 H         1 UNK         0.0612 
    117 H117       17.4205  -32.8896  -44.6529 H         1 UNK         0.0612 
@<TRIPOS>BOND
     1    1    2 1    
     2    1   62 1    
     3    1   63 1    
     4    1   64 1    
     5    2    3 2    
     6    2    4 am   BACKBONE|DICT|INTERRES
     7    4    5 1    
     8    4   65 1    
     9    5    6 1    
    10    5   25 1    
    11    5   66 1    
    12    6    7 1    
    13    6   67 1    
    14    6   68 1    
    15    7    8 1    
    16    8    9 1    
    17    8   69 1    
    18    8   70 1    
    19    9   10 ar   
    20    9   14 ar   
    21   10   11 ar   
    22   10   71 1    
    23   11   12 ar   
    24   11   61 1    
    25   12   13 ar   
    26   12   72 1    
    27   13   14 ar   
    28   13   15 1    
    29   14   73 1    
    30   15   16 1    
    31   15   74 1    
    32   15   75 1    
    33   16   17 1    
    34   17   18 1    
    35   17   76 1    
    36   17   77 1    
    37   18   19 1    
    38   18   27 1    
    39   18   78 1    
    40   19   20 am   BACKBONE|DICT|INTERRES
    41   19   79 1    
    42   20   21 2    
    43   20   22 1    
    44   22   23 1    
    45   22   24 1    
    46   22   80 1    
    47   23   81 1    
    48   23   82 1    
    49   23   83 1    
    50   24   25 am   BACKBONE|DICT|INTERRES
    51   24   84 1    
    52   25   26 2    
    53   27   28 2    
    54   27   29 am   BACKBONE|DICT|INTERRES
    55   29   30 1    
    56   29   85 1    
    57   30   31 1    
    58   30   32 1    
    59   30   86 1    
    60   31   87 1    
    61   31   88 1    
    62   31   89 1    
    63   32   33 2    
    64   32   34 am   BACKBONE|DICT|INTERRES
    65   34   35 1    
    66   34   90 1    
    67   35   36 1    
    68   35   37 1    
    69   35   91 1    
    70   36   92 1    
    71   36   93 1    
    72   36   94 1    
    73   37   38 2    
    74   37   39 am   BACKBONE|DICT|INTERRES
    75   39   40 1    
    76   39   95 1    
    77   40   41 1    
    78   40   42 1    
    79   40   96 1    
    80   41   97 1    
    81   41   98 1    
    82   41   99 1    
    83   42   43 2    
    84   42   44 am   BACKBONE|DICT|INTERRES
    85   44   45 1    
    86   44  100 1    
    87   45   46 1    
    88   45   47 1    
    89   45  101 1    
    90   46  102 1    
    91   46  103 1    
    92   46  104 1    
    93   47   48 2    
    94   47   49 am   BACKBONE|DICT|INTERRES
    95   49   50 1    
    96   49  105 1    
    97   50   51 1    
    98   50   52 1    
    99   50  106 1    
   100   51  107 1    
   101   51  108 1    
   102   51  109 1    
   103   52   53 2    
   104   52   54 am   BACKBONE|DICT|INTERRES
   105   54   55 1    
   106   54  110 1    
   107   55   56 1    
   108   55   59 1    
   109   55  111 1    
   110   56   57 am   BACKBONE|DICT|INTERRES
   111   56   58 2    
   112   57  112 1    
   113   57  113 1    
   114   59   60 1    
   115   59  114 1    
   116   59  115 1    
   117   60   61 1    
   118   61  116 1    
   119   61  117 1    
@<TRIPOS>SUBSTRUCTURE
     1 UNK         1 GROUP             0       ****    0 ROOT    
