@<TRIPOS>MOLECULE
3R8
117   119    1
SMALL
USER_CHARGES


@<TRIPOS>ATOM
      1 CA         15.7152  -22.9097  -47.8727 C.3       0 UNK        -0.2013 
      2 C          16.7571  -24.0183  -47.8820 C.2       0 UNK         0.4866 
      3 O          17.1985  -24.4357  -48.9530 O.2       0 UNK        -0.5176 
      4 N          17.1541  -24.4973  -46.6993 N.am      1 UNK        -0.4884 
      5 CA         18.1620  -25.5360  -46.4988 C.3       1 UNK         0.0853 
      6 C6         17.5517  -26.9596  -46.6236 C.3       10 UNK        -0.0849 
      7 S7         18.7460  -28.2367  -47.1528 S.3       10 UNK        -0.2776 
      8 C8         19.4038  -28.9126  -45.5919 C.3       10 UNK         0.0316 
      9 C9         18.4170  -29.7816  -44.8266 C.ar      10 UNK        -0.0863 
     10 C10        18.4500  -31.1700  -44.9739 C.ar      10 UNK        -0.1009 
     11 C11        17.6390  -31.9880  -44.1820 C.ar      10 UNK        -0.0712 
     12 C12        16.7624  -31.4056  -43.2611 C.ar      10 UNK        -0.0894 
     13 C13        16.6990  -30.0157  -43.1233 C.ar      10 UNK        -0.0745 
     14 C14        17.5318  -29.2123  -43.9069 C.ar      10 UNK        -0.0972 
     15 C15        15.7260  -29.3856  -42.1349 C.3       10 UNK         0.0209 
     16 S16        16.5307  -28.9294  -40.5638 S.3       10 UNK        -0.2568 
     17 C17        17.3328  -27.3482  -40.9935 C.3       10 UNK        -0.0983 
     18 CA         18.8544  -27.5141  -41.2362 C.3       3 UNK         0.0876 
     19 N          19.3529  -26.5458  -42.2156 N.am      3 UNK        -0.4424 
     20 C          20.5812  -26.5384  -42.7467 C.2       2 UNK         0.4918 
     21 O          21.4342  -27.3943  -42.5002 O.2       2 UNK        -0.4875 
     22 CA         20.8815  -25.4036  -43.7495 C.3       2 UNK         0.0481 
     23 CB         22.3744  -25.3271  -44.1193 C.3       2 UNK        -0.1831 
     24 N          20.1005  -25.5283  -44.9861 N.am      2 UNK        -0.4498 
     25 C          18.7897  -25.2832  -45.1171 C.2       1 UNK         0.5027 
     26 O          18.0743  -24.8830  -44.1931 O.2       1 UNK        -0.4969 
     27 C          19.6627  -27.4171  -39.9295 C.2       3 UNK         0.5005 
     28 O          19.7863  -26.3189  -39.3819 O.2       3 UNK        -0.5279 
     29 N          20.2500  -28.5414  -39.4976 N.am      4 UNK        -0.4463 
     30 CA         21.1643  -28.7284  -38.3589 C.3       4 UNK         0.0283 
     31 CB         20.4629  -28.3977  -37.0271 C.3       4 UNK        -0.1875 
     32 C          22.5226  -27.9985  -38.4606 C.2       4 UNK         0.4949 
     33 O          23.4812  -28.4430  -37.8295 O.2       4 UNK        -0.5039 
     34 N          22.5944  -26.9028  -39.2264 N.am      5 UNK        -0.4663 
     35 CA         23.7963  -26.1007  -39.4604 C.3       5 UNK         0.0242 
     36 CB         23.3799  -24.7219  -39.9975 C.3       5 UNK        -0.1982 
     37 C          24.8050  -26.7738  -40.4071 C.2       5 UNK         0.5017 
     38 O          26.0049  -26.5282  -40.2722 O.2       5 UNK        -0.5012 
     39 N          24.3142  -27.5982  -41.3432 N.am      6 UNK        -0.4439 
     40 CA         25.1320  -28.4176  -42.2416 C.3       6 UNK         0.0297 
     41 CB         24.2469  -28.9259  -43.3918 C.3       6 UNK        -0.2006 
     42 C          25.7926  -29.6037  -41.5127 C.2       6 UNK         0.4892 
     43 O          25.4210  -29.9316  -40.3845 O.2       6 UNK        -0.5089 
     44 N          26.7420  -30.2554  -42.1990 N.am      7 UNK        -0.4243 
     45 CA         27.4016  -31.4844  -41.7396 C.3       7 UNK         0.0196 
     46 CB         28.6494  -31.7393  -42.6013 C.3       7 UNK        -0.2007 
     47 C          26.4770  -32.7189  -41.7516 C.2       7 UNK         0.5020 
     48 O          26.7378  -33.6725  -41.0171 O.2       7 UNK        -0.5147 
     49 N          25.4278  -32.6813  -42.5838 N.am      8 UNK        -0.4734 
     50 CA         24.3579  -33.6782  -42.6524 C.3       8 UNK         0.0238 
     51 CB         23.9981  -33.9130  -44.1352 C.3       8 UNK        -0.1912 
     52 C          23.1631  -33.2218  -41.7890 C.2       8 UNK         0.5038 
     53 O          23.3684  -32.6476  -40.7183 O.2       8 UNK        -0.5046 
     54 N          21.9356  -33.4823  -42.2551 N.am      9 UNK        -0.4200 
     55 CA         20.6856  -33.0082  -41.6395 C.3       9 UNK         0.0839 
     56 C          20.4451  -31.4747  -41.7579 C.2       9 UNK         0.5513 
     57 N          21.0741  -30.7730  -42.6934 N.am      9 UNK        -0.7519 
     58 O          19.7140  -30.9078  -40.9516 O.2       9 UNK        -0.4960 
     59 C59        19.4583  -33.8490  -42.0899 C.3       10 UNK        -0.0876 
     60 S60        19.3677  -34.1462  -43.8937 S.3       10 UNK        -0.2414 
     61 C61        17.7183  -33.5006  -44.3201 C.3       10 UNK         0.0169 
     62 H62        16.1126  -22.0169  -48.3547 H         1 UNK         0.0903 
     63 H63        14.8269  -23.2253  -48.4192 H         1 UNK         0.0903 
     64 H64        15.4129  -22.6425  -46.8603 H         1 UNK         0.0903 
     65 H65        16.7991  -24.1047  -45.8349 H         1 UNK         0.3096 
     66 H66        18.9385  -25.4032  -47.2563 H         1 UNK         0.1121 
     67 H67        16.7861  -26.9531  -47.4012 H         1 UNK         0.0849 
     68 H68        17.0172  -27.2558  -45.7233 H         1 UNK         0.0849 
     69 H69        20.2945  -29.4978  -45.8263 H         1 UNK         0.0865 
     70 H70        19.7538  -28.1121  -44.9487 H         1 UNK         0.0865 
     71 H71        19.1389  -31.6210  -45.6750 H         1 UNK         0.1346 
     72 H72        16.1305  -32.0337  -42.6482 H         1 UNK         0.1412 
     73 H73        17.5091  -28.1411  -43.7773 H         1 UNK         0.1426 
     74 H74        14.9185  -30.0854  -41.9145 H         1 UNK         0.0716 
     75 H75        15.2475  -28.5125  -42.5808 H         1 UNK         0.0716 
     76 H76        17.1276  -26.6220  -40.2042 H         1 UNK         0.0695 
     77 H77        16.8426  -26.9438  -41.8799 H         1 UNK         0.0695 
     78 H78        19.0318  -28.4964  -41.6765 H         1 UNK         0.0983 
     79 H79        18.7121  -25.8158  -42.5066 H         1 UNK         0.3095 
     80 H80        20.6145  -24.4642  -43.2610 H         1 UNK         0.0454 
     81 H81        22.6879  -26.1888  -44.7081 H         1 UNK         0.0851 
     82 H82        23.0059  -25.2940  -43.2313 H         1 UNK         0.0851 
     83 H83        22.5913  -24.4309  -44.7005 H         1 UNK         0.0851 
     84 H84        20.6065  -25.8666  -45.7925 H         1 UNK         0.2976 
     85 H85        20.0768  -29.3897  -40.0387 H         1 UNK         0.3116 
     86 H86        21.3955  -29.7949  -38.3520 H         1 UNK         0.0646 
     87 H87        20.2197  -27.3379  -36.9462 H         1 UNK         0.0847 
     88 H88        21.1020  -28.6469  -36.1790 H         1 UNK         0.0847 
     89 H89        19.5389  -28.9644  -36.9135 H         1 UNK         0.0847 
     90 H90        21.7259  -26.5667  -39.6287 H         1 UNK         0.3040 
     91 H91        24.3007  -25.9556  -38.5023 H         1 UNK         0.1015 
     92 H92        22.8065  -24.8038  -40.9205 H         1 UNK         0.0786 
     93 H93        24.2528  -24.1014  -40.2060 H         1 UNK         0.0786 
     94 H94        22.7678  -24.1851  -39.2724 H         1 UNK         0.0786 
     95 H95        23.3109  -27.7297  -41.3934 H         1 UNK         0.3172 
     96 H96        25.9207  -27.7881  -42.6591 H         1 UNK         0.0595 
     97 H97        24.8272  -29.4752  -44.1336 H         1 UNK         0.0839 
     98 H98        23.7624  -28.1030  -43.9144 H         1 UNK         0.0839 
     99 H99        23.4675  -29.5924  -43.0254 H         1 UNK         0.0839 
    100 H100       27.0035  -29.9158  -43.1139 H         1 UNK         0.2998 
    101 H101       27.7246  -31.3307  -40.7075 H         1 UNK         0.0822 
    102 H102       29.1800  -32.6311  -42.2645 H         1 UNK         0.0787 
    103 H103       28.3924  -31.8905  -43.6506 H         1 UNK         0.0787 
    104 H104       29.3504  -30.9064  -42.5422 H         1 UNK         0.0787 
    105 H105       25.2871  -31.8365  -43.1167 H         1 UNK         0.3055 
    106 H106       24.7065  -34.6254  -42.2346 H         1 UNK         0.1106 
    107 H107       23.2947  -34.7385  -44.2517 H         1 UNK         0.0828 
    108 H108       23.5562  -33.0279  -44.5948 H         1 UNK         0.0828 
    109 H109       24.8835  -34.1764  -44.7145 H         1 UNK         0.0828 
    110 H110       21.8298  -33.9563  -43.1401 H         1 UNK         0.2931 
    111 H111       20.7882  -33.1876  -40.5671 H         1 UNK         0.0412 
    112 H112       20.9435  -29.7747  -42.7406 H         1 UNK         0.3472 
    113 H113       21.6606  -31.2390  -43.3641 H         1 UNK         0.3472 
    114 H114       18.5286  -33.4027  -41.7315 H         1 UNK         0.0970 
    115 H115       19.5066  -34.8275  -41.6101 H         1 UNK         0.0970 
    116 H116       16.9688  -33.9943  -43.6996 H         1 UNK         0.0612 
    117 H117       17.4917  -33.7726  -45.3518 H         1 UNK         0.0612 
@<TRIPOS>BOND
     1    1    2 1    
     2    1   62 1    
     3    1   63 1    
     4    1   64 1    
     5    2    3 2    
     6    2    4 am   BACKBONE|DICT|INTERRES
     7    4    5 1    
     8    4   65 1    
     9    5    6 1    
    10    5   25 1    
    11    5   66 1    
    12    6    7 1    
    13    6   67 1    
    14    6   68 1    
    15    7    8 1    
    16    8    9 1    
    17    8   69 1    
    18    8   70 1    
    19    9   10 ar   
    20    9   14 ar   
    21   10   11 ar   
    22   10   71 1    
    23   11   12 ar   
    24   11   61 1    
    25   12   13 ar   
    26   12   72 1    
    27   13   14 ar   
    28   13   15 1    
    29   14   73 1    
    30   15   16 1    
    31   15   74 1    
    32   15   75 1    
    33   16   17 1    
    34   17   18 1    
    35   17   76 1    
    36   17   77 1    
    37   18   19 1    
    38   18   27 1    
    39   18   78 1    
    40   19   20 am   BACKBONE|DICT|INTERRES
    41   19   79 1    
    42   20   21 2    
    43   20   22 1    
    44   22   23 1    
    45   22   24 1    
    46   22   80 1    
    47   23   81 1    
    48   23   82 1    
    49   23   83 1    
    50   24   25 am   BACKBONE|DICT|INTERRES
    51   24   84 1    
    52   25   26 2    
    53   27   28 2    
    54   27   29 am   BACKBONE|DICT|INTERRES
    55   29   30 1    
    56   29   85 1    
    57   30   31 1    
    58   30   32 1    
    59   30   86 1    
    60   31   87 1    
    61   31   88 1    
    62   31   89 1    
    63   32   33 2    
    64   32   34 am   BACKBONE|DICT|INTERRES
    65   34   35 1    
    66   34   90 1    
    67   35   36 1    
    68   35   37 1    
    69   35   91 1    
    70   36   92 1    
    71   36   93 1    
    72   36   94 1    
    73   37   38 2    
    74   37   39 am   BACKBONE|DICT|INTERRES
    75   39   40 1    
    76   39   95 1    
    77   40   41 1    
    78   40   42 1    
    79   40   96 1    
    80   41   97 1    
    81   41   98 1    
    82   41   99 1    
    83   42   43 2    
    84   42   44 am   BACKBONE|DICT|INTERRES
    85   44   45 1    
    86   44  100 1    
    87   45   46 1    
    88   45   47 1    
    89   45  101 1    
    90   46  102 1    
    91   46  103 1    
    92   46  104 1    
    93   47   48 2    
    94   47   49 am   BACKBONE|DICT|INTERRES
    95   49   50 1    
    96   49  105 1    
    97   50   51 1    
    98   50   52 1    
    99   50  106 1    
   100   51  107 1    
   101   51  108 1    
   102   51  109 1    
   103   52   53 2    
   104   52   54 am   BACKBONE|DICT|INTERRES
   105   54   55 1    
   106   54  110 1    
   107   55   56 1    
   108   55   59 1    
   109   55  111 1    
   110   56   57 am   BACKBONE|DICT|INTERRES
   111   56   58 2    
   112   57  112 1    
   113   57  113 1    
   114   59   60 1    
   115   59  114 1    
   116   59  115 1    
   117   60   61 1    
   118   61  116 1    
   119   61  117 1    
@<TRIPOS>SUBSTRUCTURE
     1 UNK         1 GROUP             0       ****    0 ROOT    
