@<TRIPOS>MOLECULE
3R8
117   119    1
SMALL
USER_CHARGES


@<TRIPOS>ATOM
      1 CA         19.8013  -26.6025  -42.1636 C.3       0 UNK        -0.2013 
      2 C          18.6115  -25.8391  -42.7233 C.2       0 UNK         0.4866 
      3 O          18.4676  -24.6483  -42.4470 O.2       0 UNK        -0.5176 
      4 N          17.7471  -26.5125  -43.4956 N.am      1 UNK        -0.4884 
      5 CA         16.5405  -25.9197  -44.0915 C.3       1 UNK         0.0853 
      6 C6         15.5065  -27.0014  -44.4959 C.3       10 UNK        -0.0849 
      7 S7         16.0566  -28.1500  -45.8115 S.3       10 UNK        -0.2776 
      8 C8         16.2529  -29.7305  -44.9269 C.3       10 UNK         0.0316 
      9 C9         17.6419  -29.8860  -44.3232 C.ar      10 UNK        -0.0863 
     10 C10        17.8209  -29.8963  -42.9369 C.ar      10 UNK        -0.1009 
     11 C11        19.0899  -30.1085  -42.3870 C.ar      10 UNK        -0.0712 
     12 C12        20.1884  -30.2855  -43.2355 C.ar      10 UNK        -0.0894 
     13 C13        20.0238  -30.2662  -44.6236 C.ar      10 UNK        -0.0745 
     14 C14        18.7469  -30.0725  -45.1593 C.ar      10 UNK        -0.0972 
     15 C15        21.2200  -30.4533  -45.5514 C.3       10 UNK         0.0209 
     16 S16        22.3283  -29.0056  -45.5797 S.3       10 UNK        -0.2568 
     17 C17        21.1423  -27.6622  -45.9155 C.3       10 UNK        -0.0983 
     18 CA         21.7295  -26.2333  -46.1016 C.3       3 UNK         0.0876 
     19 N          20.6434  -25.2917  -46.3443 N.am      3 UNK        -0.4424 
     20 C          19.8322  -25.2570  -47.4036 C.2       2 UNK         0.4918 
     21 O          20.0578  -25.8335  -48.4683 O.2       2 UNK        -0.4875 
     22 CA         18.4811  -24.5764  -47.1479 C.3       2 UNK         0.0481 
     23 CB         17.5511  -24.5784  -48.3776 C.3       2 UNK        -0.1831 
     24 N          17.8804  -25.3138  -46.0391 N.am      2 UNK        -0.4498 
     25 C          16.8683  -24.9468  -45.2483 C.2       1 UNK         0.5027 
     26 O          16.2304  -23.9011  -45.3791 O.2       1 UNK        -0.4969 
     27 C          22.4626  -25.7082  -44.8479 C.2       3 UNK         0.5005 
     28 O          21.9545  -24.8029  -44.1759 O.2       3 UNK        -0.5279 
     29 N          23.6382  -26.2715  -44.5479 N.am      4 UNK        -0.4463 
     30 CA         24.3865  -26.0092  -43.3182 C.3       4 UNK         0.0283 
     31 CB         25.8123  -26.5636  -43.4633 C.3       4 UNK        -0.1875 
     32 C          23.6835  -26.6271  -42.0971 C.2       4 UNK         0.4949 
     33 O          23.1202  -27.7203  -42.1960 O.2       4 UNK        -0.5039 
     34 N          23.7408  -25.9210  -40.9617 N.am      5 UNK        -0.4663 
     35 CA         23.1690  -26.3630  -39.6891 C.3       5 UNK         0.0242 
     36 CB         23.2265  -25.2094  -38.6748 C.3       5 UNK        -0.1982 
     37 C          23.8980  -27.6033  -39.1464 C.2       5 UNK         0.5017 
     38 O          25.1308  -27.6167  -39.1202 O.2       5 UNK        -0.5012 
     39 N          23.1161  -28.6068  -38.7225 N.am      6 UNK        -0.4439 
     40 CA         23.5555  -29.8973  -38.1741 C.3       6 UNK         0.0297 
     41 CB         24.2397  -29.7050  -36.8033 C.3       6 UNK        -0.2006 
     42 C          24.3994  -30.7479  -39.1495 C.2       6 UNK         0.4892 
     43 O          25.2408  -31.5268  -38.6991 O.2       6 UNK        -0.5089 
     44 N          24.1523  -30.5975  -40.4604 N.am      7 UNK        -0.4243 
     45 CA         24.7391  -31.4152  -41.5242 C.3       7 UNK         0.0196 
     46 CB         24.6891  -30.6360  -42.8526 C.3       7 UNK        -0.2007 
     47 C          24.0303  -32.7792  -41.5854 C.2       7 UNK         0.5020 
     48 O          24.3691  -33.6761  -40.8132 O.2       7 UNK        -0.5147 
     49 N          23.0243  -32.9093  -42.4628 N.am      8 UNK        -0.4734 
     50 CA         22.1775  -34.1057  -42.5857 C.3       8 UNK         0.0238 
     51 CB         21.2595  -33.9634  -43.8106 C.3       8 UNK        -0.1912 
     52 C          21.3455  -34.4055  -41.3235 C.2       8 UNK         0.5038 
     53 O          20.9984  -35.5638  -41.0899 O.2       8 UNK        -0.5046 
     54 N          21.0646  -33.3620  -40.5335 N.am      9 UNK        -0.4200 
     55 CA         20.4026  -33.4393  -39.2236 C.3       9 UNK         0.0839 
     56 C          21.3388  -33.8949  -38.0653 C.2       9 UNK         0.5513 
     57 N          22.6392  -34.0687  -38.2747 N.am      9 UNK        -0.7519 
     58 O          20.8709  -34.0995  -36.9485 O.2       9 UNK        -0.4960 
     59 C59        19.6733  -32.1157  -38.8675 C.3       10 UNK        -0.0876 
     60 S60        18.4760  -31.6142  -40.1521 S.3       10 UNK        -0.2414 
     61 C61        19.2737  -30.1453  -40.8772 C.3       10 UNK         0.0169 
     62 H62        20.0815  -27.4419  -42.7971 H         1 UNK         0.0903 
     63 H63        20.6665  -25.9456  -42.0835 H         1 UNK         0.0903 
     64 H64        19.5722  -26.9796  -41.1681 H         1 UNK         0.0903 
     65 H65        17.8940  -27.4960  -43.6845 H         1 UNK         0.3096 
     66 H66        16.0681  -25.3109  -43.3165 H         1 UNK         0.1121 
     67 H67        15.2170  -27.5720  -43.6124 H         1 UNK         0.0849 
     68 H68        14.5874  -26.5217  -44.8379 H         1 UNK         0.0849 
     69 H69        15.4753  -29.8395  -44.1695 H         1 UNK         0.0865 
     70 H70        16.0905  -30.5436  -45.6360 H         1 UNK         0.0865 
     71 H71        16.9710  -29.7669  -42.2803 H         1 UNK         0.1346 
     72 H72        21.1751  -30.4266  -42.8192 H         1 UNK         0.1412 
     73 H73        18.6087  -30.0656  -46.2322 H         1 UNK         0.1426 
     74 H74        20.8866  -30.6591  -46.5697 H         1 UNK         0.0716 
     75 H75        21.7924  -31.3263  -45.2379 H         1 UNK         0.0716 
     76 H76        20.4103  -27.6454  -45.1080 H         1 UNK         0.0695 
     77 H77        20.5901  -27.9542  -46.8100 H         1 UNK         0.0695 
     78 H78        22.4185  -26.2128  -46.9483 H         1 UNK         0.0983 
     79 H79        20.4394  -24.7233  -45.5291 H         1 UNK         0.3095 
     80 H80        18.6694  -23.5465  -46.8385 H         1 UNK         0.0454 
     81 H81        18.0197  -24.0703  -49.2212 H         1 UNK         0.0851 
     82 H82        16.6138  -24.0625  -48.1705 H         1 UNK         0.0851 
     83 H83        17.3101  -25.5929  -48.6976 H         1 UNK         0.0851 
     84 H84        18.3181  -26.2018  -45.8347 H         1 UNK         0.2976 
     85 H85        23.9354  -27.0669  -45.0964 H         1 UNK         0.3116 
     86 H86        24.4499  -24.9277  -43.1785 H         1 UNK         0.0646 
     87 H87        25.8107  -27.6333  -43.6714 H         1 UNK         0.0847 
     88 H88        26.3499  -26.0671  -44.2712 H         1 UNK         0.0847 
     89 H89        26.3879  -26.4100  -42.5494 H         1 UNK         0.0847 
     90 H90        24.2518  -25.0501  -40.9512 H         1 UNK         0.3040 
     91 H91        22.1204  -26.6129  -39.8659 H         1 UNK         0.1015 
     92 H92        24.2528  -24.8978  -38.4751 H         1 UNK         0.0786 
     93 H93        22.6737  -24.3394  -39.0300 H         1 UNK         0.0786 
     94 H94        22.7853  -25.5054  -37.7219 H         1 UNK         0.0786 
     95 H95        22.1149  -28.4823  -38.7833 H         1 UNK         0.3172 
     96 H96        22.6459  -30.4732  -37.9994 H         1 UNK         0.0595 
     97 H97        25.1990  -29.1951  -36.8976 H         1 UNK         0.0839 
     98 H98        24.4293  -30.6651  -36.3214 H         1 UNK         0.0839 
     99 H99        23.6156  -29.1236  -36.1248 H         1 UNK         0.0839 
    100 H100       23.4893  -29.8904  -40.7467 H         1 UNK         0.2998 
    101 H101       25.7886  -31.6067  -41.2894 H         1 UNK         0.0822 
    102 H102       25.0559  -31.2411  -43.6830 H         1 UNK         0.0787 
    103 H103       25.3221  -29.7514  -42.7989 H         1 UNK         0.0787 
    104 H104       23.6833  -30.2978  -43.1023 H         1 UNK         0.0787 
    105 H105       22.8279  -32.1413  -43.0867 H         1 UNK         0.3055 
    106 H106       22.8353  -34.9629  -42.7470 H         1 UNK         0.1106 
    107 H107       21.8332  -33.8131  -44.7251 H         1 UNK         0.0828 
    108 H108       20.6611  -34.8645  -43.9529 H         1 UNK         0.0828 
    109 H109       20.5642  -33.1305  -43.7028 H         1 UNK         0.0828 
    110 H110       21.3912  -32.4526  -40.8166 H         1 UNK         0.2931 
    111 H111       19.6347  -34.2121  -39.2965 H         1 UNK         0.0412 
    112 H112       23.2207  -34.3647  -37.5069 H         1 UNK         0.3472 
    113 H113       23.0560  -33.9234  -39.1862 H         1 UNK         0.3472 
    114 H114       19.1155  -32.2343  -37.9365 H         1 UNK         0.0970 
    115 H115       20.3890  -31.3143  -38.6810 H         1 UNK         0.0970 
    116 H116       20.3360  -30.1278  -40.6310 H         1 UNK         0.0612 
    117 H117       18.8385  -29.2502  -40.4314 H         1 UNK         0.0612 
@<TRIPOS>BOND
     1    1    2 1    
     2    1   62 1    
     3    1   63 1    
     4    1   64 1    
     5    2    3 2    
     6    2    4 am   BACKBONE|DICT|INTERRES
     7    4    5 1    
     8    4   65 1    
     9    5    6 1    
    10    5   25 1    
    11    5   66 1    
    12    6    7 1    
    13    6   67 1    
    14    6   68 1    
    15    7    8 1    
    16    8    9 1    
    17    8   69 1    
    18    8   70 1    
    19    9   10 ar   
    20    9   14 ar   
    21   10   11 ar   
    22   10   71 1    
    23   11   12 ar   
    24   11   61 1    
    25   12   13 ar   
    26   12   72 1    
    27   13   14 ar   
    28   13   15 1    
    29   14   73 1    
    30   15   16 1    
    31   15   74 1    
    32   15   75 1    
    33   16   17 1    
    34   17   18 1    
    35   17   76 1    
    36   17   77 1    
    37   18   19 1    
    38   18   27 1    
    39   18   78 1    
    40   19   20 am   BACKBONE|DICT|INTERRES
    41   19   79 1    
    42   20   21 2    
    43   20   22 1    
    44   22   23 1    
    45   22   24 1    
    46   22   80 1    
    47   23   81 1    
    48   23   82 1    
    49   23   83 1    
    50   24   25 am   BACKBONE|DICT|INTERRES
    51   24   84 1    
    52   25   26 2    
    53   27   28 2    
    54   27   29 am   BACKBONE|DICT|INTERRES
    55   29   30 1    
    56   29   85 1    
    57   30   31 1    
    58   30   32 1    
    59   30   86 1    
    60   31   87 1    
    61   31   88 1    
    62   31   89 1    
    63   32   33 2    
    64   32   34 am   BACKBONE|DICT|INTERRES
    65   34   35 1    
    66   34   90 1    
    67   35   36 1    
    68   35   37 1    
    69   35   91 1    
    70   36   92 1    
    71   36   93 1    
    72   36   94 1    
    73   37   38 2    
    74   37   39 am   BACKBONE|DICT|INTERRES
    75   39   40 1    
    76   39   95 1    
    77   40   41 1    
    78   40   42 1    
    79   40   96 1    
    80   41   97 1    
    81   41   98 1    
    82   41   99 1    
    83   42   43 2    
    84   42   44 am   BACKBONE|DICT|INTERRES
    85   44   45 1    
    86   44  100 1    
    87   45   46 1    
    88   45   47 1    
    89   45  101 1    
    90   46  102 1    
    91   46  103 1    
    92   46  104 1    
    93   47   48 2    
    94   47   49 am   BACKBONE|DICT|INTERRES
    95   49   50 1    
    96   49  105 1    
    97   50   51 1    
    98   50   52 1    
    99   50  106 1    
   100   51  107 1    
   101   51  108 1    
   102   51  109 1    
   103   52   53 2    
   104   52   54 am   BACKBONE|DICT|INTERRES
   105   54   55 1    
   106   54  110 1    
   107   55   56 1    
   108   55   59 1    
   109   55  111 1    
   110   56   57 am   BACKBONE|DICT|INTERRES
   111   56   58 2    
   112   57  112 1    
   113   57  113 1    
   114   59   60 1    
   115   59  114 1    
   116   59  115 1    
   117   60   61 1    
   118   61  116 1    
   119   61  117 1    
@<TRIPOS>SUBSTRUCTURE
     1 UNK         1 GROUP             0       ****    0 ROOT    
