@<TRIPOS>MOLECULE
3R8
117   119    1
SMALL
USER_CHARGES


@<TRIPOS>ATOM
      1 CA         15.7450  -23.4991  -47.2908 C.3       0 UNK        -0.2013 
      2 C          16.5892  -24.5154  -46.5374 C.2       0 UNK         0.4866 
      3 O          17.6681  -24.8805  -47.0017 O.2       0 UNK        -0.5176 
      4 N          16.1206  -24.9580  -45.3635 N.am      1 UNK        -0.4884 
      5 CA         16.7474  -25.9889  -44.5191 C.3       1 UNK         0.0853 
      6 C6         15.6953  -26.7329  -43.6550 C.3       10 UNK        -0.0849 
      7 S7         14.5834  -27.7232  -44.7167 S.3       10 UNK        -0.2776 
      8 C8         14.8887  -29.4431  -44.1730 C.3       10 UNK         0.0316 
      9 C9         16.3649  -29.8153  -44.0540 C.ar      10 UNK        -0.0863 
     10 C10        16.8334  -30.4083  -42.8779 C.ar      10 UNK        -0.1009 
     11 C11        18.1814  -30.7471  -42.7366 C.ar      10 UNK        -0.0712 
     12 C12        19.0747  -30.4625  -43.7737 C.ar      10 UNK        -0.0894 
     13 C13        18.6193  -29.8850  -44.9626 C.ar      10 UNK        -0.0745 
     14 C14        17.2598  -29.5829  -45.1039 C.ar      10 UNK        -0.0972 
     15 C15        19.5905  -29.6044  -46.1008 C.3       10 UNK         0.0209 
     16 S16        19.6943  -27.8231  -46.4637 S.3       10 UNK        -0.2568 
     17 C17        21.4726  -27.4482  -46.2620 C.3       10 UNK        -0.0983 
     18 CA         21.8222  -26.6899  -44.9546 C.3       3 UNK         0.0876 
     19 N          20.9042  -25.5738  -44.7069 N.am      3 UNK        -0.4424 
     20 C          20.9892  -24.6618  -43.7284 C.2       2 UNK         0.4918 
     21 O          21.9500  -24.5679  -42.9652 O.2       2 UNK        -0.4875 
     22 CA         19.7608  -23.7518  -43.5207 C.3       2 UNK         0.0481 
     23 CB         20.0065  -22.3700  -44.1451 C.3       2 UNK        -0.1831 
     24 N          18.5130  -24.3120  -44.0589 N.am      2 UNK        -0.4498 
     25 C          17.9505  -25.4752  -43.6926 C.2       1 UNK         0.5027 
     26 O          18.3957  -26.1645  -42.7746 O.2       1 UNK        -0.4969 
     27 C          21.9925  -27.6510  -43.7549 C.2       3 UNK         0.5005 
     28 O          23.0133  -28.3360  -43.6929 O.2       3 UNK        -0.5279 
     29 N          21.0627  -27.6381  -42.7835 N.am      4 UNK        -0.4463 
     30 CA         21.1844  -28.3213  -41.4889 C.3       4 UNK         0.0283 
     31 CB         19.8911  -28.1197  -40.6846 C.3       4 UNK        -0.1875 
     32 C          22.3996  -27.8773  -40.6486 C.2       4 UNK         0.4949 
     33 O          22.8148  -28.6183  -39.7582 O.2       4 UNK        -0.5039 
     34 N          22.9771  -26.7045  -40.9521 N.am      5 UNK        -0.4663 
     35 CA         24.2408  -26.2315  -40.3818 C.3       5 UNK         0.0242 
     36 CB         24.4864  -24.7815  -40.8266 C.3       5 UNK        -0.1982 
     37 C          25.4507  -27.1156  -40.7428 C.2       5 UNK         0.5017 
     38 O          26.4238  -27.1270  -39.9879 O.2       5 UNK        -0.5012 
     39 N          25.3752  -27.8663  -41.8535 N.am      6 UNK        -0.4439 
     40 CA         26.4023  -28.8102  -42.3029 C.3       6 UNK         0.0297 
     41 CB         26.3223  -28.9543  -43.8343 C.3       6 UNK        -0.2006 
     42 C          26.2925  -30.1632  -41.5693 C.2       6 UNK         0.4892 
     43 O          26.1749  -31.2059  -42.2149 O.2       6 UNK        -0.5089 
     44 N          26.3488  -30.1098  -40.2304 N.am      7 UNK        -0.4243 
     45 CA         26.3027  -31.2301  -39.2831 C.3       7 UNK         0.0196 
     46 CB         27.5708  -32.1026  -39.4103 C.3       7 UNK        -0.2007 
     47 C          24.9961  -32.0467  -39.3588 C.2       7 UNK         0.5020 
     48 O          25.0418  -33.2780  -39.3985 O.2       7 UNK        -0.5147 
     49 N          23.8552  -31.3421  -39.3432 N.am      8 UNK        -0.4734 
     50 CA         22.4884  -31.8760  -39.3641 C.3       8 UNK         0.0238 
     51 CB         22.1877  -32.6831  -38.0783 C.3       8 UNK        -0.1912 
     52 C          22.1655  -32.6139  -40.6784 C.2       8 UNK         0.5038 
     53 O          22.5490  -32.1389  -41.7489 O.2       8 UNK        -0.5046 
     54 N          21.4208  -33.7182  -40.5848 N.am      9 UNK        -0.4200 
     55 CA         20.9127  -34.5183  -41.7024 C.3       9 UNK         0.0839 
     56 C          20.4964  -35.9325  -41.2197 C.2       9 UNK         0.5513 
     57 N          20.2866  -36.8649  -42.1389 N.am      9 UNK        -0.7519 
     58 O          20.3615  -36.1953  -40.0251 O.2       9 UNK        -0.4960 
     59 C59        19.7923  -33.7918  -42.5033 C.3       10 UNK        -0.0876 
     60 S60        18.3937  -33.2082  -41.4762 S.3       10 UNK        -0.2414 
     61 C61        18.6640  -31.4070  -41.4537 C.3       10 UNK         0.0169 
     62 H62        15.4743  -23.8913  -48.2707 H         1 UNK         0.0903 
     63 H63        14.8259  -23.2560  -46.7577 H         1 UNK         0.0903 
     64 H64        16.3073  -22.5772  -47.4364 H         1 UNK         0.0903 
     65 H65        15.2331  -24.6101  -45.0276 H         1 UNK         0.3096 
     66 H66        17.1887  -26.7296  -45.1886 H         1 UNK         0.1121 
     67 H67        15.1002  -26.0243  -43.0768 H         1 UNK         0.0849 
     68 H68        16.1662  -27.3902  -42.9224 H         1 UNK         0.0849 
     69 H69        14.4112  -30.1242  -44.8784 H         1 UNK         0.0865 
     70 H70        14.3800  -29.5898  -43.2188 H         1 UNK         0.0865 
     71 H71        16.1482  -30.6139  -42.0667 H         1 UNK         0.1346 
     72 H72        20.1239  -30.6976  -43.6581 H         1 UNK         0.1412 
     73 H73        16.9033  -29.1395  -46.0238 H         1 UNK         0.1426 
     74 H74        19.2510  -30.1264  -46.9963 H         1 UNK         0.0716 
     75 H75        20.5781  -30.0056  -45.8703 H         1 UNK         0.0716 
     76 H76        21.7520  -26.8213  -47.1101 H         1 UNK         0.0695 
     77 H77        22.0730  -28.3529  -46.3740 H         1 UNK         0.0695 
     78 H78        22.8076  -26.2412  -45.0984 H         1 UNK         0.0983 
     79 H79        20.0745  -25.5726  -45.2841 H         1 UNK         0.3095 
     80 H80        19.6281  -23.6248  -42.4445 H         1 UNK         0.0454 
     81 H81        20.1215  -22.4302  -45.2281 H         1 UNK         0.0851 
     82 H82        20.9153  -21.9175  -43.7456 H         1 UNK         0.0851 
     83 H83        19.1859  -21.6851  -43.9310 H         1 UNK         0.0851 
     84 H84        18.0996  -23.8289  -44.8442 H         1 UNK         0.2976 
     85 H85        20.2346  -27.0636  -42.9068 H         1 UNK         0.3116 
     86 H86        21.3062  -29.3864  -41.6940 H         1 UNK         0.0646 
     87 H87        19.0151  -28.4435  -41.2458 H         1 UNK         0.0847 
     88 H88        19.7431  -27.0718  -40.4202 H         1 UNK         0.0847 
     89 H89        19.9135  -28.6917  -39.7562 H         1 UNK         0.0847 
     90 H90        22.5637  -26.1277  -41.6771 H         1 UNK         0.3040 
     91 H91        24.1421  -26.2463  -39.2941 H         1 UNK         0.1015 
     92 H92        25.4014  -24.3855  -40.3835 H         1 UNK         0.0786 
     93 H93        23.6692  -24.1281  -40.5202 H         1 UNK         0.0786 
     94 H94        24.5877  -24.7043  -41.9100 H         1 UNK         0.0786 
     95 H95        24.5121  -27.8627  -42.3899 H         1 UNK         0.3172 
     96 H96        27.3861  -28.3979  -42.0687 H         1 UNK         0.0595 
     97 H97        25.3858  -29.4162  -44.1488 H         1 UNK         0.0839 
     98 H98        27.1333  -29.5800  -44.2091 H         1 UNK         0.0839 
     99 H99        26.4034  -27.9875  -44.3310 H         1 UNK         0.0839 
    100 H100       26.4372  -29.1858  -39.8196 H         1 UNK         0.2998 
    101 H101       26.3168  -30.7839  -38.2875 H         1 UNK         0.0822 
    102 H102       28.4763  -31.5040  -39.3110 H         1 UNK         0.0787 
    103 H103       27.6006  -32.8645  -38.6304 H         1 UNK         0.0787 
    104 H104       27.6132  -32.6191  -40.3698 H         1 UNK         0.0787 
    105 H105       23.9055  -30.3288  -39.3826 H         1 UNK         0.3055 
    106 H106       21.8275  -31.0086  -39.3549 H         1 UNK         0.1106 
    107 H107       22.7374  -33.6245  -38.0447 H         1 UNK         0.0828 
    108 H108       21.1253  -32.9146  -37.9927 H         1 UNK         0.0828 
    109 H109       22.4557  -32.1139  -37.1881 H         1 UNK         0.0828 
    110 H110       21.1615  -34.0755  -39.6750 H         1 UNK         0.2931 
    111 H111       21.7565  -34.6778  -42.3768 H         1 UNK         0.0412 
    112 H112       20.4020  -36.6678  -43.1210 H         1 UNK         0.3472 
    113 H113       20.0139  -37.7898  -41.8438 H         1 UNK         0.3472 
    114 H114       19.3933  -34.4406  -43.2846 H         1 UNK         0.0970 
    115 H115       20.2271  -32.9485  -43.0378 H         1 UNK         0.0970 
    116 H116       18.1274  -30.9846  -40.6030 H         1 UNK         0.0612 
    117 H117       19.7177  -31.1906  -41.2823 H         1 UNK         0.0612 
@<TRIPOS>BOND
     1    1    2 1    
     2    1   62 1    
     3    1   63 1    
     4    1   64 1    
     5    2    3 2    
     6    2    4 am   BACKBONE|DICT|INTERRES
     7    4    5 1    
     8    4   65 1    
     9    5    6 1    
    10    5   25 1    
    11    5   66 1    
    12    6    7 1    
    13    6   67 1    
    14    6   68 1    
    15    7    8 1    
    16    8    9 1    
    17    8   69 1    
    18    8   70 1    
    19    9   10 ar   
    20    9   14 ar   
    21   10   11 ar   
    22   10   71 1    
    23   11   12 ar   
    24   11   61 1    
    25   12   13 ar   
    26   12   72 1    
    27   13   14 ar   
    28   13   15 1    
    29   14   73 1    
    30   15   16 1    
    31   15   74 1    
    32   15   75 1    
    33   16   17 1    
    34   17   18 1    
    35   17   76 1    
    36   17   77 1    
    37   18   19 1    
    38   18   27 1    
    39   18   78 1    
    40   19   20 am   BACKBONE|DICT|INTERRES
    41   19   79 1    
    42   20   21 2    
    43   20   22 1    
    44   22   23 1    
    45   22   24 1    
    46   22   80 1    
    47   23   81 1    
    48   23   82 1    
    49   23   83 1    
    50   24   25 am   BACKBONE|DICT|INTERRES
    51   24   84 1    
    52   25   26 2    
    53   27   28 2    
    54   27   29 am   BACKBONE|DICT|INTERRES
    55   29   30 1    
    56   29   85 1    
    57   30   31 1    
    58   30   32 1    
    59   30   86 1    
    60   31   87 1    
    61   31   88 1    
    62   31   89 1    
    63   32   33 2    
    64   32   34 am   BACKBONE|DICT|INTERRES
    65   34   35 1    
    66   34   90 1    
    67   35   36 1    
    68   35   37 1    
    69   35   91 1    
    70   36   92 1    
    71   36   93 1    
    72   36   94 1    
    73   37   38 2    
    74   37   39 am   BACKBONE|DICT|INTERRES
    75   39   40 1    
    76   39   95 1    
    77   40   41 1    
    78   40   42 1    
    79   40   96 1    
    80   41   97 1    
    81   41   98 1    
    82   41   99 1    
    83   42   43 2    
    84   42   44 am   BACKBONE|DICT|INTERRES
    85   44   45 1    
    86   44  100 1    
    87   45   46 1    
    88   45   47 1    
    89   45  101 1    
    90   46  102 1    
    91   46  103 1    
    92   46  104 1    
    93   47   48 2    
    94   47   49 am   BACKBONE|DICT|INTERRES
    95   49   50 1    
    96   49  105 1    
    97   50   51 1    
    98   50   52 1    
    99   50  106 1    
   100   51  107 1    
   101   51  108 1    
   102   51  109 1    
   103   52   53 2    
   104   52   54 am   BACKBONE|DICT|INTERRES
   105   54   55 1    
   106   54  110 1    
   107   55   56 1    
   108   55   59 1    
   109   55  111 1    
   110   56   57 am   BACKBONE|DICT|INTERRES
   111   56   58 2    
   112   57  112 1    
   113   57  113 1    
   114   59   60 1    
   115   59  114 1    
   116   59  115 1    
   117   60   61 1    
   118   61  116 1    
   119   61  117 1    
@<TRIPOS>SUBSTRUCTURE
     1 UNK         1 GROUP             0       ****    0 ROOT    
