@<TRIPOS>MOLECULE
3R8
117   119    1
SMALL
USER_CHARGES


@<TRIPOS>ATOM
      1 CA         18.5830  -31.0657  -48.5516 C.3       0 UNK        -0.2013 
      2 C          17.8519  -30.1631  -47.5694 C.2       0 UNK         0.4866 
      3 O          16.6784  -30.3976  -47.2844 O.2       0 UNK        -0.5176 
      4 N          18.5407  -29.1401  -47.0550 N.am      1 UNK        -0.4884 
      5 CA         18.0981  -28.2139  -46.0132 C.3       1 UNK         0.0853 
      6 C6         16.9361  -27.2803  -46.4708 C.3       10 UNK        -0.0849 
      7 S7         16.0364  -26.4224  -45.1243 S.3       10 UNK        -0.2776 
      8 C8         14.8032  -27.6513  -44.5769 C.3       10 UNK         0.0316 
      9 C9         15.3976  -28.6043  -43.5505 C.ar      10 UNK        -0.0863 
     10 C10        15.8029  -29.8854  -43.9331 C.ar      10 UNK        -0.1009 
     11 C11        16.4623  -30.7180  -43.0270 C.ar      10 UNK        -0.0712 
     12 C12        16.6300  -30.3025  -41.7051 C.ar      10 UNK        -0.0894 
     13 C13        16.2082  -29.0330  -41.3013 C.ar      10 UNK        -0.0745 
     14 C14        15.5901  -28.1873  -42.2283 C.ar      10 UNK        -0.0972 
     15 C15        16.4522  -28.5689  -39.8718 C.3       10 UNK         0.0209 
     16 S16        17.9167  -27.4902  -39.7322 S.3       10 UNK        -0.2568 
     17 C17        19.2948  -28.6326  -40.1196 C.3       10 UNK        -0.0983 
     18 CA         20.4875  -27.9584  -40.8425 C.3       3 UNK         0.0876 
     19 N          20.0566  -27.1455  -41.9898 N.am      3 UNK        -0.4424 
     20 C          20.8629  -26.5215  -42.8597 C.2       2 UNK         0.4918 
     21 O          22.0912  -26.5760  -42.8057 O.2       2 UNK        -0.4875 
     22 CA         20.1640  -25.6747  -43.9379 C.3       2 UNK         0.0481 
     23 CB         21.1536  -24.9769  -44.8960 C.3       2 UNK        -0.1831 
     24 N          19.1527  -26.4482  -44.6661 N.am      2 UNK        -0.4498 
     25 C          19.3537  -27.4954  -45.4772 C.2       1 UNK         0.5027 
     26 O          20.4711  -27.9121  -45.7973 O.2       1 UNK        -0.4969 
     27 C          21.4062  -27.2177  -39.8449 C.2       3 UNK         0.5005 
     28 O          22.2196  -27.8659  -39.1836 O.2       3 UNK        -0.5279 
     29 N          21.3063  -25.8807  -39.7943 N.am      4 UNK        -0.4463 
     30 CA         22.1966  -24.9907  -39.0452 C.3       4 UNK         0.0283 
     31 CB         21.6893  -23.5454  -39.1679 C.3       4 UNK        -0.1875 
     32 C          23.6730  -25.0785  -39.4781 C.2       4 UNK         0.4949 
     33 O          24.5526  -24.8485  -38.6479 O.2       4 UNK        -0.5039 
     34 N          23.9369  -25.4545  -40.7391 N.am      5 UNK        -0.4663 
     35 CA         25.2766  -25.7036  -41.2784 C.3       5 UNK         0.0242 
     36 CB         25.2696  -25.4394  -42.7960 C.3       5 UNK        -0.1982 
     37 C          25.7731  -27.1186  -40.9164 C.2       5 UNK         0.5017 
     38 O          26.1419  -27.8896  -41.8034 O.2       5 UNK        -0.5012 
     39 N          25.7676  -27.4224  -39.6101 N.am      6 UNK        -0.4439 
     40 CA         26.2428  -28.6514  -38.9647 C.3       6 UNK         0.0297 
     41 CB         27.7832  -28.7276  -39.0366 C.3       6 UNK        -0.2006 
     42 C          25.5547  -29.9331  -39.4786 C.2       6 UNK         0.4892 
     43 O          26.2409  -30.9073  -39.7938 O.2       6 UNK        -0.5089 
     44 N          24.2127  -29.9092  -39.5335 N.am      7 UNK        -0.4243 
     45 CA         23.3263  -31.0026  -39.9557 C.3       7 UNK         0.0196 
     46 CB         23.3827  -32.1774  -38.9556 C.3       7 UNK        -0.2007 
     47 C          23.5821  -31.4353  -41.4111 C.2       7 UNK         0.5020 
     48 O          23.8448  -32.6098  -41.6775 O.2       7 UNK        -0.5147 
     49 N          23.4928  -30.4627  -42.3296 N.am      8 UNK        -0.4734 
     50 CA         23.7762  -30.5928  -43.7661 C.3       8 UNK         0.0238 
     51 CB         23.5635  -29.2259  -44.4353 C.3       8 UNK        -0.1912 
     52 C          22.9878  -31.6852  -44.5181 C.2       8 UNK         0.5038 
     53 O          23.4479  -32.1299  -45.5709 O.2       8 UNK        -0.5046 
     54 N          21.8396  -32.1075  -43.9726 N.am      9 UNK        -0.4200 
     55 CA         21.0422  -33.2445  -44.4628 C.3       9 UNK         0.0839 
     56 C          21.7085  -34.6349  -44.2434 C.2       9 UNK         0.5513 
     57 N          22.7277  -34.7651  -43.4010 N.am      9 UNK        -0.7519 
     58 O          21.2898  -35.6152  -44.8536 O.2       9 UNK        -0.4960 
     59 C59        19.6022  -33.2403  -43.8843 C.3       10 UNK        -0.0876 
     60 S60        18.7373  -31.6669  -44.1818 S.3       10 UNK        -0.2414 
     61 C61        17.0887  -32.0181  -43.4966 C.3       10 UNK         0.0169 
     62 H62        18.0569  -31.0874  -49.5056 H         1 UNK         0.0903 
     63 H63        19.6035  -30.7290  -48.7339 H         1 UNK         0.0903 
     64 H64        18.6264  -32.0825  -48.1618 H         1 UNK         0.0903 
     65 H65        19.5232  -29.0226  -47.2783 H         1 UNK         0.3096 
     66 H66        17.7583  -28.8286  -45.1844 H         1 UNK         0.1121 
     67 H67        17.3152  -26.5281  -47.1648 H         1 UNK         0.0849 
     68 H68        16.1965  -27.8434  -47.0402 H         1 UNK         0.0849 
     69 H69        14.4052  -28.1946  -45.4356 H         1 UNK         0.0865 
     70 H70        13.9567  -27.1268  -44.1310 H         1 UNK         0.0865 
     71 H71        15.6790  -30.2055  -44.9581 H         1 UNK         0.1346 
     72 H72        17.1374  -30.9496  -41.0027 H         1 UNK         0.1412 
     73 H73        15.2867  -27.1932  -41.9283 H         1 UNK         0.1426 
     74 H74        16.5697  -29.4232  -39.2032 H         1 UNK         0.0716 
     75 H75        15.5781  -28.0222  -39.5149 H         1 UNK         0.0716 
     76 H76        18.9305  -29.4338  -40.7582 H         1 UNK         0.0695 
     77 H77        19.6135  -29.1256  -39.1988 H         1 UNK         0.0695 
     78 H78        21.1024  -28.7575  -41.2604 H         1 UNK         0.0983 
     79 H79        19.0570  -27.0449  -42.0946 H         1 UNK         0.3095 
     80 H80        19.6213  -24.8908  -43.4077 H         1 UNK         0.0454 
     81 H81        20.6305  -24.3829  -45.6450 H         1 UNK         0.0851 
     82 H82        21.7928  -25.6897  -45.4176 H         1 UNK         0.0851 
     83 H83        21.8115  -24.3015  -44.3476 H         1 UNK         0.0851 
     84 H84        18.1885  -26.1838  -44.4972 H         1 UNK         0.2976 
     85 H85        20.5936  -25.4416  -40.3583 H         1 UNK         0.3116 
     86 H86        22.1466  -25.2847  -37.9947 H         1 UNK         0.0646 
     87 H87        22.3182  -22.8619  -38.5955 H         1 UNK         0.0847 
     88 H88        20.6742  -23.4453  -38.7834 H         1 UNK         0.0847 
     89 H89        21.6941  -23.2013  -40.2030 H         1 UNK         0.0847 
     90 H90        23.1651  -25.6971  -41.3528 H         1 UNK         0.3040 
     91 H91        25.9782  -24.9966  -40.8294 H         1 UNK         0.1015 
     92 H92        24.9280  -24.4292  -43.0218 H         1 UNK         0.0786 
     93 H93        24.6229  -26.1372  -43.3274 H         1 UNK         0.0786 
     94 H94        26.2716  -25.5433  -43.2143 H         1 UNK         0.0786 
     95 H95        25.4130  -26.7046  -38.9857 H         1 UNK         0.3172 
     96 H96        25.9693  -28.5657  -37.9120 H         1 UNK         0.0595 
     97 H97        28.1344  -28.8418  -40.0628 H         1 UNK         0.0839 
     98 H98        28.1607  -29.5780  -38.4673 H         1 UNK         0.0839 
     99 H99        28.2456  -27.8321  -38.6216 H         1 UNK         0.0839 
    100 H100       23.7324  -29.0496  -39.2751 H         1 UNK         0.2998 
    101 H101       22.3108  -30.6054  -39.9260 H         1 UNK         0.0822 
    102 H102       24.3628  -32.6553  -38.9419 H         1 UNK         0.0787 
    103 H103       23.1569  -31.8459  -37.9421 H         1 UNK         0.0787 
    104 H104       22.6527  -32.9449  -39.2158 H         1 UNK         0.0787 
    105 H105       23.3196  -29.5230  -42.0037 H         1 UNK         0.3055 
    106 H106       24.8325  -30.8553  -43.8565 H         1 UNK         0.1106 
    107 H107       24.2091  -28.4640  -43.9982 H         1 UNK         0.0828 
    108 H108       23.7906  -29.2678  -45.5014 H         1 UNK         0.0828 
    109 H109       22.5316  -28.8877  -44.3367 H         1 UNK         0.0828 
    110 H110       21.5314  -31.6831  -43.1121 H         1 UNK         0.2931 
    111 H111       20.9530  -33.1225  -45.5443 H         1 UNK         0.0412 
    112 H112       23.1479  -35.6720  -43.2735 H         1 UNK         0.3472 
    113 H113       23.0820  -33.9690  -42.8788 H         1 UNK         0.3472 
    114 H114       19.0097  -34.0427  -44.3289 H         1 UNK         0.0970 
    115 H115       19.6218  -33.4291  -42.8092 H         1 UNK         0.0970 
    116 H116       16.4685  -32.4934  -44.2581 H         1 UNK         0.0612 
    117 H117       17.1671  -32.7211  -42.6659 H         1 UNK         0.0612 
@<TRIPOS>BOND
     1    1    2 1    
     2    1   62 1    
     3    1   63 1    
     4    1   64 1    
     5    2    3 2    
     6    2    4 am   BACKBONE|DICT|INTERRES
     7    4    5 1    
     8    4   65 1    
     9    5    6 1    
    10    5   25 1    
    11    5   66 1    
    12    6    7 1    
    13    6   67 1    
    14    6   68 1    
    15    7    8 1    
    16    8    9 1    
    17    8   69 1    
    18    8   70 1    
    19    9   10 ar   
    20    9   14 ar   
    21   10   11 ar   
    22   10   71 1    
    23   11   12 ar   
    24   11   61 1    
    25   12   13 ar   
    26   12   72 1    
    27   13   14 ar   
    28   13   15 1    
    29   14   73 1    
    30   15   16 1    
    31   15   74 1    
    32   15   75 1    
    33   16   17 1    
    34   17   18 1    
    35   17   76 1    
    36   17   77 1    
    37   18   19 1    
    38   18   27 1    
    39   18   78 1    
    40   19   20 am   BACKBONE|DICT|INTERRES
    41   19   79 1    
    42   20   21 2    
    43   20   22 1    
    44   22   23 1    
    45   22   24 1    
    46   22   80 1    
    47   23   81 1    
    48   23   82 1    
    49   23   83 1    
    50   24   25 am   BACKBONE|DICT|INTERRES
    51   24   84 1    
    52   25   26 2    
    53   27   28 2    
    54   27   29 am   BACKBONE|DICT|INTERRES
    55   29   30 1    
    56   29   85 1    
    57   30   31 1    
    58   30   32 1    
    59   30   86 1    
    60   31   87 1    
    61   31   88 1    
    62   31   89 1    
    63   32   33 2    
    64   32   34 am   BACKBONE|DICT|INTERRES
    65   34   35 1    
    66   34   90 1    
    67   35   36 1    
    68   35   37 1    
    69   35   91 1    
    70   36   92 1    
    71   36   93 1    
    72   36   94 1    
    73   37   38 2    
    74   37   39 am   BACKBONE|DICT|INTERRES
    75   39   40 1    
    76   39   95 1    
    77   40   41 1    
    78   40   42 1    
    79   40   96 1    
    80   41   97 1    
    81   41   98 1    
    82   41   99 1    
    83   42   43 2    
    84   42   44 am   BACKBONE|DICT|INTERRES
    85   44   45 1    
    86   44  100 1    
    87   45   46 1    
    88   45   47 1    
    89   45  101 1    
    90   46  102 1    
    91   46  103 1    
    92   46  104 1    
    93   47   48 2    
    94   47   49 am   BACKBONE|DICT|INTERRES
    95   49   50 1    
    96   49  105 1    
    97   50   51 1    
    98   50   52 1    
    99   50  106 1    
   100   51  107 1    
   101   51  108 1    
   102   51  109 1    
   103   52   53 2    
   104   52   54 am   BACKBONE|DICT|INTERRES
   105   54   55 1    
   106   54  110 1    
   107   55   56 1    
   108   55   59 1    
   109   55  111 1    
   110   56   57 am   BACKBONE|DICT|INTERRES
   111   56   58 2    
   112   57  112 1    
   113   57  113 1    
   114   59   60 1    
   115   59  114 1    
   116   59  115 1    
   117   60   61 1    
   118   61  116 1    
   119   61  117 1    
@<TRIPOS>SUBSTRUCTURE
     1 UNK         1 GROUP             0       ****    0 ROOT    
