@<TRIPOS>MOLECULE
3R8
117   119    1
SMALL
USER_CHARGES


@<TRIPOS>ATOM
      1 CA         16.9196  -28.3661  -49.7915 C.3       0 UNK        -0.2013 
      2 C          17.3063  -28.1942  -48.3304 C.2       0 UNK         0.4866 
      3 O          17.0773  -27.1259  -47.7622 O.2       0 UNK        -0.5176 
      4 N          17.9020  -29.2329  -47.7276 N.am      1 UNK        -0.4884 
      5 CA         18.3502  -29.3497  -46.3292 C.3       1 UNK         0.0853 
      6 C6         17.2178  -29.1764  -45.2842 C.3       10 UNK        -0.0849 
      7 S7         16.0296  -30.5644  -45.2732 S.3       10 UNK        -0.2776 
      8 C8         14.9452  -30.1376  -43.8600 C.3       10 UNK         0.0316 
      9 C9         15.7455  -29.6741  -42.6505 C.ar      10 UNK        -0.0863 
     10 C10        16.5406  -30.5784  -41.9435 C.ar      10 UNK        -0.1009 
     11 C11        17.4205  -30.1267  -40.9547 C.ar      10 UNK        -0.0712 
     12 C12        17.4569  -28.7664  -40.6307 C.ar      10 UNK        -0.0894 
     13 C13        16.6362  -27.8593  -41.3080 C.ar      10 UNK        -0.0745 
     14 C14        15.7773  -28.3198  -42.3096 C.ar      10 UNK        -0.0972 
     15 C15        16.6951  -26.3725  -41.0024 C.3       10 UNK         0.0209 
     16 S16        17.6330  -25.4834  -42.2863 S.3       10 UNK        -0.2568 
     17 C17        19.3214  -25.4450  -41.5938 C.3       10 UNK        -0.0983 
     18 CA         20.2867  -26.5368  -42.1408 C.3       3 UNK         0.0876 
     19 N          20.3239  -26.6387  -43.6093 N.am      3 UNK        -0.4424 
     20 C          20.5490  -25.6808  -44.5185 C.2       2 UNK         0.4918 
     21 O          20.8581  -24.5257  -44.2286 O.2       2 UNK        -0.4875 
     22 CA         20.4255  -26.0615  -46.0105 C.3       2 UNK         0.0481 
     23 CB         21.8136  -26.3334  -46.6209 C.3       2 UNK        -0.1831 
     24 N          19.4859  -27.1551  -46.3125 N.am      2 UNK        -0.4498 
     25 C          19.5465  -28.4465  -45.9612 C.2       1 UNK         0.5027 
     26 O          20.4729  -28.9242  -45.3070 O.2       1 UNK        -0.4969 
     27 C          21.6768  -26.3798  -41.4817 C.2       3 UNK         0.5005 
     28 O          21.7601  -26.4907  -40.2566 O.2       3 UNK        -0.5279 
     29 N          22.7275  -26.1077  -42.2730 N.am      4 UNK        -0.4463 
     30 CA         24.0823  -25.7452  -41.8432 C.3       4 UNK         0.0283 
     31 CB         24.9960  -25.6066  -43.0705 C.3       4 UNK        -0.1875 
     32 C          24.6787  -26.7199  -40.8161 C.2       4 UNK         0.4949 
     33 O          24.8909  -27.8940  -41.1347 O.2       4 UNK        -0.5039 
     34 N          24.8644  -26.2079  -39.5890 N.am      5 UNK        -0.4663 
     35 CA         25.3548  -26.8827  -38.3772 C.3       5 UNK         0.0242 
     36 CB         26.8418  -27.2576  -38.5525 C.3       5 UNK        -0.1982 
     37 C          24.5124  -28.0944  -37.9225 C.2       5 UNK         0.5017 
     38 O          24.9912  -28.8786  -37.1020 O.2       5 UNK        -0.5012 
     39 N          23.3066  -28.2604  -38.4933 N.am      6 UNK        -0.4439 
     40 CA         22.4841  -29.4780  -38.4870 C.3       6 UNK         0.0297 
     41 CB         21.8929  -29.7409  -37.0867 C.3       6 UNK        -0.2006 
     42 C          23.2204  -30.7081  -39.0698 C.2       6 UNK         0.4892 
     43 O          22.8895  -31.8410  -38.7165 O.2       6 UNK        -0.5089 
     44 N          24.2149  -30.4608  -39.9348 N.am      7 UNK        -0.4243 
     45 CA         25.0973  -31.4643  -40.5246 C.3       7 UNK         0.0196 
     46 CB         26.5587  -31.0359  -40.3140 C.3       7 UNK        -0.2007 
     47 C          24.8040  -31.6428  -42.0163 C.2       7 UNK         0.5020 
     48 O          24.8142  -32.7769  -42.4947 O.2       7 UNK        -0.5147 
     49 N          24.5171  -30.5399  -42.7270 N.am      8 UNK        -0.4734 
     50 CA         24.1901  -30.5452  -44.1608 C.3       8 UNK         0.0238 
     51 CB         24.0942  -29.1011  -44.6721 C.3       8 UNK        -0.1912 
     52 C          22.9097  -31.3265  -44.5060 C.2       8 UNK         0.5038 
     53 O          22.8170  -31.8850  -45.5999 O.2       8 UNK        -0.5046 
     54 N          21.9729  -31.3732  -43.5536 N.am      9 UNK        -0.4200 
     55 CA         20.7534  -32.1856  -43.5967 C.3       9 UNK         0.0839 
     56 C          20.9545  -33.6813  -43.2104 C.2       9 UNK         0.5513 
     57 N          22.1499  -34.1331  -42.8477 N.am      9 UNK        -0.7519 
     58 O          20.0044  -34.4581  -43.2616 O.2       9 UNK        -0.4960 
     59 C59        19.6038  -31.5110  -42.8074 C.3       10 UNK        -0.0876 
     60 S60        20.0185  -31.0709  -41.0807 S.3       10 UNK        -0.2414 
     61 C61        18.3776  -31.1030  -40.2873 C.3       10 UNK         0.0169 
     62 H62        17.1792  -29.3545  -50.1704 H         1 UNK         0.0903 
     63 H63        15.8454  -28.2286  -49.9126 H         1 UNK         0.0903 
     64 H64        17.4293  -27.6231  -50.4043 H         1 UNK         0.0903 
     65 H65        18.0719  -30.0623  -48.2805 H         1 UNK         0.3096 
     66 H66        18.7270  -30.3700  -46.2325 H         1 UNK         0.1121 
     67 H67        16.6757  -28.2407  -45.4279 H         1 UNK         0.0849 
     68 H68        17.6585  -29.1125  -44.2886 H         1 UNK         0.0849 
     69 H69        14.2419  -29.3651  -44.1750 H         1 UNK         0.0865 
     70 H70        14.3442  -31.0076  -43.5916 H         1 UNK         0.0865 
     71 H71        16.5247  -31.6244  -42.2167 H         1 UNK         0.1346 
     72 H72        18.1454  -28.4128  -39.8753 H         1 UNK         0.1412 
     73 H73        15.1758  -27.6101  -42.8617 H         1 UNK         0.1426 
     74 H74        17.1176  -26.1889  -40.0137 H         1 UNK         0.0716 
     75 H75        15.6801  -25.9733  -40.9741 H         1 UNK         0.0716 
     76 H76        19.2542  -25.5099  -40.5065 H         1 UNK         0.0695 
     77 H77        19.7251  -24.4517  -41.7976 H         1 UNK         0.0695 
     78 H78        19.9114  -27.5029  -41.7992 H         1 UNK         0.0983 
     79 H79        20.1841  -27.5729  -43.9808 H         1 UNK         0.3095 
     80 H80        20.0144  -25.1852  -46.5138 H         1 UNK         0.0454 
     81 H81        22.3009  -27.1925  -46.1618 H         1 UNK         0.0851 
     82 H82        22.4745  -25.4763  -46.4846 H         1 UNK         0.0851 
     83 H83        21.7451  -26.5207  -47.6924 H         1 UNK         0.0851 
     84 H84        18.6450  -26.8814  -46.8188 H         1 UNK         0.2976 
     85 H85        22.5381  -26.0210  -43.2601 H         1 UNK         0.3116 
     86 H86        24.0064  -24.7584  -41.3820 H         1 UNK         0.0646 
     87 H87        24.6211  -24.8551  -43.7655 H         1 UNK         0.0847 
     88 H88        26.0004  -25.3001  -42.7750 H         1 UNK         0.0847 
     89 H89        25.0925  -26.5459  -43.6112 H         1 UNK         0.0847 
     90 H90        24.5994  -25.2416  -39.4513 H         1 UNK         0.3040 
     91 H91        25.2871  -26.1534  -37.5683 H         1 UNK         0.1015 
     92 H92        26.9767  -28.0303  -39.3098 H         1 UNK         0.0786 
     93 H93        27.2666  -27.6372  -37.6223 H         1 UNK         0.0786 
     94 H94        27.4370  -26.3932  -38.8466 H         1 UNK         0.0786 
     95 H95        22.9785  -27.5323  -39.1248 H         1 UNK         0.3172 
     96 H96        21.6520  -29.2768  -39.1627 H         1 UNK         0.0595 
     97 H97        22.6632  -30.0196  -36.3672 H         1 UNK         0.0839 
     98 H98        21.1670  -30.5544  -37.1167 H         1 UNK         0.0839 
     99 H99        21.3758  -28.8616  -36.7030 H         1 UNK         0.0839 
    100 H100       24.4076  -29.4947  -40.1854 H         1 UNK         0.2998 
    101 H101       24.9527  -32.4309  -40.0372 H         1 UNK         0.0822 
    102 H102       27.2458  -31.7789  -40.7210 H         1 UNK         0.0787 
    103 H103       26.7774  -30.0853  -40.8025 H         1 UNK         0.0787 
    104 H104       26.7885  -30.9262  -39.2538 H         1 UNK         0.0787 
    105 H105       24.5641  -29.6361  -42.2682 H         1 UNK         0.3055 
    106 H106       25.0114  -31.0386  -44.6856 H         1 UNK         0.1106 
    107 H107       23.8055  -29.0789  -45.7239 H         1 UNK         0.0828 
    108 H108       23.3550  -28.5224  -44.1168 H         1 UNK         0.0828 
    109 H109       25.0572  -28.5984  -44.5947 H         1 UNK         0.0828 
    110 H110       22.1488  -30.8978  -42.6815 H         1 UNK         0.2931 
    111 H111       20.4248  -32.2124  -44.6375 H         1 UNK         0.0412 
    112 H112       22.9595  -33.5243  -42.8140 H         1 UNK         0.3472 
    113 H113       22.2512  -35.1070  -42.6102 H         1 UNK         0.3472 
    114 H114       19.3122  -30.5920  -43.3160 H         1 UNK         0.0970 
    115 H115       18.7188  -32.1480  -42.8233 H         1 UNK         0.0970 
    116 H116       18.4888  -30.8507  -39.2318 H         1 UNK         0.0612 
    117 H117       17.9793  -32.1182  -40.3219 H         1 UNK         0.0612 
@<TRIPOS>BOND
     1    1    2 1    
     2    1   62 1    
     3    1   63 1    
     4    1   64 1    
     5    2    3 2    
     6    2    4 am   BACKBONE|DICT|INTERRES
     7    4    5 1    
     8    4   65 1    
     9    5    6 1    
    10    5   25 1    
    11    5   66 1    
    12    6    7 1    
    13    6   67 1    
    14    6   68 1    
    15    7    8 1    
    16    8    9 1    
    17    8   69 1    
    18    8   70 1    
    19    9   10 ar   
    20    9   14 ar   
    21   10   11 ar   
    22   10   71 1    
    23   11   12 ar   
    24   11   61 1    
    25   12   13 ar   
    26   12   72 1    
    27   13   14 ar   
    28   13   15 1    
    29   14   73 1    
    30   15   16 1    
    31   15   74 1    
    32   15   75 1    
    33   16   17 1    
    34   17   18 1    
    35   17   76 1    
    36   17   77 1    
    37   18   19 1    
    38   18   27 1    
    39   18   78 1    
    40   19   20 am   BACKBONE|DICT|INTERRES
    41   19   79 1    
    42   20   21 2    
    43   20   22 1    
    44   22   23 1    
    45   22   24 1    
    46   22   80 1    
    47   23   81 1    
    48   23   82 1    
    49   23   83 1    
    50   24   25 am   BACKBONE|DICT|INTERRES
    51   24   84 1    
    52   25   26 2    
    53   27   28 2    
    54   27   29 am   BACKBONE|DICT|INTERRES
    55   29   30 1    
    56   29   85 1    
    57   30   31 1    
    58   30   32 1    
    59   30   86 1    
    60   31   87 1    
    61   31   88 1    
    62   31   89 1    
    63   32   33 2    
    64   32   34 am   BACKBONE|DICT|INTERRES
    65   34   35 1    
    66   34   90 1    
    67   35   36 1    
    68   35   37 1    
    69   35   91 1    
    70   36   92 1    
    71   36   93 1    
    72   36   94 1    
    73   37   38 2    
    74   37   39 am   BACKBONE|DICT|INTERRES
    75   39   40 1    
    76   39   95 1    
    77   40   41 1    
    78   40   42 1    
    79   40   96 1    
    80   41   97 1    
    81   41   98 1    
    82   41   99 1    
    83   42   43 2    
    84   42   44 am   BACKBONE|DICT|INTERRES
    85   44   45 1    
    86   44  100 1    
    87   45   46 1    
    88   45   47 1    
    89   45  101 1    
    90   46  102 1    
    91   46  103 1    
    92   46  104 1    
    93   47   48 2    
    94   47   49 am   BACKBONE|DICT|INTERRES
    95   49   50 1    
    96   49  105 1    
    97   50   51 1    
    98   50   52 1    
    99   50  106 1    
   100   51  107 1    
   101   51  108 1    
   102   51  109 1    
   103   52   53 2    
   104   52   54 am   BACKBONE|DICT|INTERRES
   105   54   55 1    
   106   54  110 1    
   107   55   56 1    
   108   55   59 1    
   109   55  111 1    
   110   56   57 am   BACKBONE|DICT|INTERRES
   111   56   58 2    
   112   57  112 1    
   113   57  113 1    
   114   59   60 1    
   115   59  114 1    
   116   59  115 1    
   117   60   61 1    
   118   61  116 1    
   119   61  117 1    
@<TRIPOS>SUBSTRUCTURE
     1 UNK         1 GROUP             0       ****    0 ROOT    
