@<TRIPOS>MOLECULE
3R8
117   119    1
SMALL
USER_CHARGES


@<TRIPOS>ATOM
      1 CA         15.5580  -25.8554  -40.1338 C.3       0 UNK        -0.2013 
      2 C          15.5500  -25.9535  -41.6521 C.2       0 UNK         0.4866 
      3 O          14.4799  -26.0141  -42.2578 O.2       0 UNK        -0.5176 
      4 N          16.7342  -25.9674  -42.2701 N.am      1 UNK        -0.4884 
      5 CA         16.9479  -26.0245  -43.7145 C.3       1 UNK         0.0853 
      6 C6         16.7257  -27.4494  -44.2820 C.3       10 UNK        -0.0849 
      7 S7         16.3288  -27.4405  -46.0641 S.3       10 UNK        -0.2776 
      8 C8         16.0363  -29.2127  -46.3721 C.3       10 UNK         0.0316 
      9 C9         17.2791  -30.0369  -46.0747 C.ar      10 UNK        -0.0863 
     10 C10        17.3816  -30.7469  -44.8746 C.ar      10 UNK        -0.1009 
     11 C11        18.5507  -31.4455  -44.5626 C.ar      10 UNK        -0.0712 
     12 C12        19.6084  -31.4593  -45.4752 C.ar      10 UNK        -0.0894 
     13 C13        19.5239  -30.7351  -46.6694 C.ar      10 UNK        -0.0745 
     14 C14        18.3494  -30.0416  -46.9731 C.ar      10 UNK        -0.0972 
     15 C15        20.7264  -30.6430  -47.5980 C.3       10 UNK         0.0209 
     16 S16        21.5508  -29.0172  -47.4809 S.3       10 UNK        -0.2568 
     17 C17        22.0596  -28.9867  -45.7271 C.3       10 UNK        -0.0983 
     18 CA         22.2444  -27.5682  -45.1350 C.3       3 UNK         0.0876 
     19 N          21.1108  -26.6802  -45.4147 N.am      3 UNK        -0.4424 
     20 C          21.1863  -25.3434  -45.3855 C.2       2 UNK         0.4918 
     21 O          22.2100  -24.7233  -45.0959 O.2       2 UNK        -0.4875 
     22 CA         19.9048  -24.5598  -45.7243 C.3       2 UNK         0.0481 
     23 CB         19.8191  -24.3127  -47.2388 C.3       2 UNK        -0.1831 
     24 N          18.6577  -25.1819  -45.2634 N.am      2 UNK        -0.4498 
     25 C          18.3664  -25.4935  -43.9935 C.2       1 UNK         0.5027 
     26 O          19.1694  -25.3839  -43.0624 O.2       1 UNK        -0.4969 
     27 C          22.5385  -27.6979  -43.6261 C.2       3 UNK         0.5005 
     28 O          23.6480  -28.1010  -43.2746 O.2       3 UNK        -0.5279 
     29 N          21.5571  -27.3952  -42.7590 N.am      4 UNK        -0.4463 
     30 CA         21.5597  -27.7058  -41.3203 C.3       4 UNK         0.0283 
     31 CB         20.1685  -27.4194  -40.7314 C.3       4 UNK        -0.1875 
     32 C          22.6564  -27.0113  -40.4902 C.2       4 UNK         0.4949 
     33 O          22.8617  -27.3800  -39.3339 O.2       4 UNK        -0.5039 
     34 N          23.3586  -26.0397  -41.0869 N.am      5 UNK        -0.4663 
     35 CA         24.5818  -25.4453  -40.5461 C.3       5 UNK         0.0242 
     36 CB         24.9145  -24.1761  -41.3472 C.3       5 UNK        -0.1982 
     37 C          25.7814  -26.4156  -40.5506 C.2       5 UNK         0.5017 
     38 O          26.7142  -26.2027  -39.7750 O.2       5 UNK        -0.5012 
     39 N          25.7466  -27.4418  -41.4141 N.am      6 UNK        -0.4439 
     40 CA         26.7895  -28.4598  -41.5564 C.3       6 UNK         0.0297 
     41 CB         27.5088  -28.2662  -42.9017 C.3       6 UNK        -0.2006 
     42 C          26.2289  -29.8865  -41.4453 C.2       6 UNK         0.4892 
     43 O          26.8765  -30.7328  -40.8274 O.2       6 UNK        -0.5089 
     44 N          25.0604  -30.1445  -42.0489 N.am      7 UNK        -0.4243 
     45 CA         24.3934  -31.4467  -42.0426 C.3       7 UNK         0.0196 
     46 CB         23.3450  -31.4867  -43.1666 C.3       7 UNK        -0.2007 
     47 C          23.7311  -31.7357  -40.6886 C.2       7 UNK         0.5020 
     48 O          23.1555  -30.8344  -40.0760 O.2       7 UNK        -0.5147 
     49 N          23.7709  -33.0052  -40.2695 N.am      8 UNK        -0.4734 
     50 CA         23.1463  -33.5027  -39.0410 C.3       8 UNK         0.0238 
     51 CB         23.9302  -34.7340  -38.5474 C.3       8 UNK        -0.1912 
     52 C          21.6487  -33.7967  -39.2549 C.2       8 UNK         0.5038 
     53 O          21.2186  -34.9429  -39.1084 O.2       8 UNK        -0.5046 
     54 N          20.8904  -32.7606  -39.6319 N.am      9 UNK        -0.4200 
     55 CA         19.4367  -32.8046  -39.8441 C.3       9 UNK         0.0839 
     56 C          18.6516  -33.1348  -38.5450 C.2       9 UNK         0.5513 
     57 N          17.5580  -33.8766  -38.6531 N.am      9 UNK        -0.7519 
     58 O          18.9986  -32.6876  -37.4534 O.2       9 UNK        -0.4960 
     59 C59        18.9085  -31.4889  -40.4701 C.3       10 UNK        -0.0876 
     60 S60        19.6726  -31.0968  -42.0783 S.3       10 UNK        -0.2414 
     61 C61        18.6929  -32.1307  -43.2138 C.3       10 UNK         0.0169 
     62 H62        15.0500  -26.7162  -39.6999 H         1 UNK         0.0903 
     63 H63        16.5709  -25.8225  -39.7326 H         1 UNK         0.0903 
     64 H64        15.0363  -24.9541  -39.8130 H         1 UNK         0.0903 
     65 H65        17.5958  -25.8542  -41.7483 H         1 UNK         0.3096 
     66 H66        16.2414  -25.3309  -44.1770 H         1 UNK         0.1121 
     67 H67        15.8899  -27.9336  -43.7747 H         1 UNK         0.0849 
     68 H68        17.5956  -28.0809  -44.0915 H         1 UNK         0.0849 
     69 H69        15.1914  -29.5521  -45.7707 H         1 UNK         0.0865 
     70 H70        15.7450  -29.3515  -47.4143 H         1 UNK         0.0865 
     71 H71        16.5670  -30.7211  -44.1636 H         1 UNK         0.1346 
     72 H72        20.5217  -31.9813  -45.2234 H         1 UNK         0.1412 
     73 H73        18.2870  -29.4660  -47.8869 H         1 UNK         0.1426 
     74 H74        21.4500  -31.4287  -47.3745 H         1 UNK         0.0716 
     75 H75        20.4043  -30.8054  -48.6276 H         1 UNK         0.0716 
     76 H76        21.3272  -29.5264  -45.1296 H         1 UNK         0.0695 
     77 H77        22.9893  -29.5527  -45.6460 H         1 UNK         0.0695 
     78 H78        23.1345  -27.1334  -45.5957 H         1 UNK         0.0983 
     79 H79        20.2454  -27.1212  -45.6905 H         1 UNK         0.3095 
     80 H80        19.9800  -23.5899  -45.2285 H         1 UNK         0.0454 
     81 H81        19.6990  -25.2439  -47.7941 H         1 UNK         0.0851 
     82 H82        18.9821  -23.6609  -47.4895 H         1 UNK         0.0851 
     83 H83        20.7244  -23.8285  -47.6078 H         1 UNK         0.0851 
     84 H84        17.9510  -25.3506  -45.9669 H         1 UNK         0.2976 
     85 H85        20.7075  -26.9800  -43.1209 H         1 UNK         0.3116 
     86 H86        21.7407  -28.7790  -41.2335 H         1 UNK         0.0646 
     87 H87        19.9469  -26.3520  -40.7265 H         1 UNK         0.0847 
     88 H88        19.3838  -27.9292  -41.2907 H         1 UNK         0.0847 
     89 H89        20.1052  -27.7673  -39.6996 H         1 UNK         0.0847 
     90 H90        23.1082  -25.7923  -42.0338 H         1 UNK         0.3040 
     91 H91        24.3955  -25.1608  -39.5080 H         1 UNK         0.1015 
     92 H92        25.0996  -24.3992  -42.3989 H         1 UNK         0.0786 
     93 H93        25.8087  -23.6898  -40.9546 H         1 UNK         0.0786 
     94 H94        24.1033  -23.4496  -41.2952 H         1 UNK         0.0786 
     95 H95        24.9276  -27.5467  -42.0084 H         1 UNK         0.3172 
     96 H96        27.5304  -28.3518  -40.7616 H         1 UNK         0.0595 
     97 H97        28.2868  -29.0181  -43.0415 H         1 UNK         0.0839 
     98 H98        27.9892  -27.2892  -42.9555 H         1 UNK         0.0839 
     99 H99        26.8196  -28.3470  -43.7434 H         1 UNK         0.0839 
    100 H100       24.5652  -29.3922  -42.5242 H         1 UNK         0.2998 
    101 H101       25.1428  -32.2158  -42.2427 H         1 UNK         0.0822 
    102 H102       22.8381  -32.4521  -43.1979 H         1 UNK         0.0787 
    103 H103       22.5782  -30.7241  -43.0274 H         1 UNK         0.0787 
    104 H104       23.8043  -31.3293  -44.1422 H         1 UNK         0.0787 
    105 H105       24.2216  -33.6960  -40.8531 H         1 UNK         0.3055 
    106 H106       23.2145  -32.7355  -38.2658 H         1 UNK         0.1106 
    107 H107       24.9742  -34.4877  -38.3529 H         1 UNK         0.0828 
    108 H108       23.5113  -35.1155  -37.6151 H         1 UNK         0.0828 
    109 H109       23.9067  -35.5483  -39.2727 H         1 UNK         0.0828 
    110 H110       21.3409  -31.8614  -39.7567 H         1 UNK         0.2931 
    111 H111       19.2502  -33.6108  -40.5568 H         1 UNK         0.0412 
    112 H112       17.2607  -34.2421  -39.5448 H         1 UNK         0.3472 
    113 H113       17.0252  -34.0884  -37.8235 H         1 UNK         0.3472 
    114 H114       17.8249  -31.5244  -40.5972 H         1 UNK         0.0970 
    115 H115       19.0990  -30.6499  -39.7978 H         1 UNK         0.0970 
    116 H116       19.1818  -33.0988  -43.3314 H         1 UNK         0.0612 
    117 H117       17.7074  -32.3308  -42.7913 H         1 UNK         0.0612 
@<TRIPOS>BOND
     1    1    2 1    
     2    1   62 1    
     3    1   63 1    
     4    1   64 1    
     5    2    3 2    
     6    2    4 am   BACKBONE|DICT|INTERRES
     7    4    5 1    
     8    4   65 1    
     9    5    6 1    
    10    5   25 1    
    11    5   66 1    
    12    6    7 1    
    13    6   67 1    
    14    6   68 1    
    15    7    8 1    
    16    8    9 1    
    17    8   69 1    
    18    8   70 1    
    19    9   10 ar   
    20    9   14 ar   
    21   10   11 ar   
    22   10   71 1    
    23   11   12 ar   
    24   11   61 1    
    25   12   13 ar   
    26   12   72 1    
    27   13   14 ar   
    28   13   15 1    
    29   14   73 1    
    30   15   16 1    
    31   15   74 1    
    32   15   75 1    
    33   16   17 1    
    34   17   18 1    
    35   17   76 1    
    36   17   77 1    
    37   18   19 1    
    38   18   27 1    
    39   18   78 1    
    40   19   20 am   BACKBONE|DICT|INTERRES
    41   19   79 1    
    42   20   21 2    
    43   20   22 1    
    44   22   23 1    
    45   22   24 1    
    46   22   80 1    
    47   23   81 1    
    48   23   82 1    
    49   23   83 1    
    50   24   25 am   BACKBONE|DICT|INTERRES
    51   24   84 1    
    52   25   26 2    
    53   27   28 2    
    54   27   29 am   BACKBONE|DICT|INTERRES
    55   29   30 1    
    56   29   85 1    
    57   30   31 1    
    58   30   32 1    
    59   30   86 1    
    60   31   87 1    
    61   31   88 1    
    62   31   89 1    
    63   32   33 2    
    64   32   34 am   BACKBONE|DICT|INTERRES
    65   34   35 1    
    66   34   90 1    
    67   35   36 1    
    68   35   37 1    
    69   35   91 1    
    70   36   92 1    
    71   36   93 1    
    72   36   94 1    
    73   37   38 2    
    74   37   39 am   BACKBONE|DICT|INTERRES
    75   39   40 1    
    76   39   95 1    
    77   40   41 1    
    78   40   42 1    
    79   40   96 1    
    80   41   97 1    
    81   41   98 1    
    82   41   99 1    
    83   42   43 2    
    84   42   44 am   BACKBONE|DICT|INTERRES
    85   44   45 1    
    86   44  100 1    
    87   45   46 1    
    88   45   47 1    
    89   45  101 1    
    90   46  102 1    
    91   46  103 1    
    92   46  104 1    
    93   47   48 2    
    94   47   49 am   BACKBONE|DICT|INTERRES
    95   49   50 1    
    96   49  105 1    
    97   50   51 1    
    98   50   52 1    
    99   50  106 1    
   100   51  107 1    
   101   51  108 1    
   102   51  109 1    
   103   52   53 2    
   104   52   54 am   BACKBONE|DICT|INTERRES
   105   54   55 1    
   106   54  110 1    
   107   55   56 1    
   108   55   59 1    
   109   55  111 1    
   110   56   57 am   BACKBONE|DICT|INTERRES
   111   56   58 2    
   112   57  112 1    
   113   57  113 1    
   114   59   60 1    
   115   59  114 1    
   116   59  115 1    
   117   60   61 1    
   118   61  116 1    
   119   61  117 1    
@<TRIPOS>SUBSTRUCTURE
     1 UNK         1 GROUP             0       ****    0 ROOT    
