@<TRIPOS>MOLECULE
3R8
117   119    1
SMALL
USER_CHARGES


@<TRIPOS>ATOM
      1 CA         19.7882  -28.4685  -48.9763 C.3       0 UNK        -0.2013 
      2 C          19.2760  -27.6836  -47.7780 C.2       0 UNK         0.4866 
      3 O          19.0976  -26.4691  -47.8759 O.2       0 UNK        -0.5176 
      4 N          19.0431  -28.3771  -46.6572 N.am      1 UNK        -0.4884 
      5 CA         18.6194  -27.8438  -45.3573 C.3       1 UNK         0.0853 
      6 C6         17.2366  -27.1156  -45.3756 C.3       10 UNK        -0.0849 
      7 S7         15.7363  -28.0235  -45.9240 S.3       10 UNK        -0.2776 
      8 C8         16.1303  -29.8094  -46.0299 C.3       10 UNK         0.0316 
      9 C9         16.3400  -30.5589  -44.7111 C.ar      10 UNK        -0.0863 
     10 C10        16.4465  -31.9527  -44.7610 C.ar      10 UNK        -0.1009 
     11 C11        16.7322  -32.6955  -43.6111 C.ar      10 UNK        -0.0712 
     12 C12        16.8952  -32.0367  -42.3905 C.ar      10 UNK        -0.0894 
     13 C13        16.8184  -30.6436  -42.3292 C.ar      10 UNK        -0.0745 
     14 C14        16.4992  -29.9156  -43.4773 C.ar      10 UNK        -0.0972 
     15 C15        17.2181  -29.9132  -41.0609 C.3       10 UNK         0.0209 
     16 S16        19.0278  -29.7370  -41.0544 S.3       10 UNK        -0.2568 
     17 C17        19.3180  -28.5827  -39.6798 C.3       10 UNK        -0.0983 
     18 CA         20.4613  -27.5995  -40.0369 C.3       3 UNK         0.0876 
     19 N          20.0975  -26.6967  -41.1399 N.am      3 UNK        -0.4424 
     20 C          20.9421  -26.0155  -41.9296 C.2       2 UNK         0.4918 
     21 O          22.1689  -26.0173  -41.7884 O.2       2 UNK        -0.4875 
     22 CA         20.2911  -25.1872  -43.0527 C.3       2 UNK         0.0481 
     23 CB         21.3178  -24.4001  -43.8964 C.3       2 UNK        -0.1831 
     24 N          19.4070  -26.0081  -43.8917 N.am      2 UNK        -0.4498 
     25 C          19.7599  -27.0181  -44.7060 C.2       1 UNK         0.5027 
     26 O          20.9311  -27.3305  -44.9321 O.2       1 UNK        -0.4969 
     27 C          21.0214  -26.8543  -38.8041 C.2       3 UNK         0.5005 
     28 O          20.4747  -26.9413  -37.7031 O.2       3 UNK        -0.5279 
     29 N          22.1275  -26.1483  -39.0323 N.am      4 UNK        -0.4463 
     30 CA         22.9963  -25.4905  -38.0658 C.3       4 UNK         0.0283 
     31 CB         22.4342  -24.1169  -37.6592 C.3       4 UNK        -0.1875 
     32 C          24.3894  -25.3773  -38.6955 C.2       4 UNK         0.4949 
     33 O          25.3753  -25.7537  -38.0629 O.2       4 UNK        -0.5039 
     34 N          24.4359  -24.9162  -39.9553 N.am      5 UNK        -0.4663 
     35 CA         25.6342  -24.9199  -40.7961 C.3       5 UNK         0.0242 
     36 CB         25.4765  -23.8716  -41.9099 C.3       5 UNK        -0.1982 
     37 C          25.9071  -26.3088  -41.3986 C.2       5 UNK         0.5017 
     38 O          27.0631  -26.7306  -41.4411 O.2       5 UNK        -0.5012 
     39 N          24.8432  -26.9897  -41.8439 N.am      6 UNK        -0.4439 
     40 CA         24.8710  -28.3177  -42.4467 C.3       6 UNK         0.0297 
     41 CB         24.5940  -28.1898  -43.9564 C.3       6 UNK        -0.2006 
     42 C          23.8283  -29.1878  -41.7366 C.2       6 UNK         0.4892 
     43 O          22.7236  -29.3685  -42.2464 O.2       6 UNK        -0.5089 
     44 N          24.1876  -29.6998  -40.5517 N.am      7 UNK        -0.4243 
     45 CA         23.3322  -30.5488  -39.7097 C.3       7 UNK         0.0196 
     46 CB         24.0567  -30.8420  -38.3868 C.3       7 UNK        -0.2007 
     47 C          22.8763  -31.8601  -40.3800 C.2       7 UNK         0.5020 
     48 O          21.8067  -32.3701  -40.0472 O.2       7 UNK        -0.5147 
     49 N          23.6717  -32.3719  -41.3281 N.am      8 UNK        -0.4734 
     50 CA         23.3750  -33.5556  -42.1375 C.3       8 UNK         0.0238 
     51 CB         24.7048  -34.1954  -42.5809 C.3       8 UNK        -0.1912 
     52 C          22.4491  -33.2227  -43.3266 C.2       8 UNK         0.5038 
     53 O          22.8166  -33.4725  -44.4765 O.2       8 UNK        -0.5046 
     54 N          21.2667  -32.6711  -43.0256 N.am      9 UNK        -0.4200 
     55 CA         20.2003  -32.3212  -43.9811 C.3       9 UNK         0.0839 
     56 C          20.5564  -31.1817  -44.9816 C.2       9 UNK         0.5513 
     57 N          21.4665  -30.2791  -44.6471 N.am      9 UNK        -0.7519 
     58 O          19.9658  -31.0710  -46.0545 O.2       9 UNK        -0.4960 
     59 C59        19.5642  -33.5718  -44.6624 C.3       10 UNK        -0.0876 
     60 S60        18.7108  -34.6476  -43.4548 S.3       10 UNK        -0.2414 
     61 C61        16.9571  -34.1987  -43.7057 C.3       10 UNK         0.0169 
     62 H62        20.7562  -28.0809  -49.2926 H         1 UNK         0.0903 
     63 H63        19.9058  -29.5281  -48.7480 H         1 UNK         0.0903 
     64 H64        19.0935  -28.3761  -49.8107 H         1 UNK         0.0903 
     65 H65        19.2936  -29.3631  -46.6327 H         1 UNK         0.3096 
     66 H66        18.5355  -28.7152  -44.7104 H         1 UNK         0.1121 
     67 H67        16.9852  -26.7661  -44.3739 H         1 UNK         0.0849 
     68 H68        17.3023  -26.2118  -45.9834 H         1 UNK         0.0849 
     69 H69        15.2937  -30.2806  -46.5481 H         1 UNK         0.0865 
     70 H70        16.9919  -29.9658  -46.6769 H         1 UNK         0.0865 
     71 H71        16.3492  -32.4599  -45.7115 H         1 UNK         0.1346 
     72 H72        17.1690  -32.6008  -41.5092 H         1 UNK         0.1412 
     73 H73        16.4457  -28.8408  -43.4055 H         1 UNK         0.1426 
     74 H74        16.8949  -30.4658  -40.1775 H         1 UNK         0.0716 
     75 H75        16.7442  -28.9314  -41.0170 H         1 UNK         0.0716 
     76 H76        18.4029  -28.0427  -39.4310 H         1 UNK         0.0695 
     77 H77        19.5741  -29.1849  -38.8059 H         1 UNK         0.0695 
     78 H78        21.2915  -28.2061  -40.3985 H         1 UNK         0.0983 
     79 H79        19.1090  -26.6199  -41.3243 H         1 UNK         0.3095 
     80 H80        19.6499  -24.4544  -42.5608 H         1 UNK         0.0454 
     81 H81        21.8683  -23.6930  -43.2750 H         1 UNK         0.0851 
     82 H82        20.8294  -23.8277  -44.6846 H         1 UNK         0.0851 
     83 H83        22.0543  -25.0543  -44.3638 H         1 UNK         0.0851 
     84 H84        18.4216  -25.8122  -43.7893 H         1 UNK         0.2976 
     85 H85        22.4498  -26.1357  -39.9966 H         1 UNK         0.3116 
     86 H86        23.0758  -26.1207  -37.1773 H         1 UNK         0.0646 
     87 H87        22.3022  -23.4596  -38.5191 H         1 UNK         0.0847 
     88 H88        21.4680  -24.2161  -37.1643 H         1 UNK         0.0847 
     89 H89        23.1047  -23.6137  -36.9614 H         1 UNK         0.0847 
     90 H90        23.5834  -24.5972  -40.3939 H         1 UNK         0.3040 
     91 H91        26.4972  -24.6438  -40.1855 H         1 UNK         0.1015 
     92 H92        26.3617  -23.8442  -42.5470 H         1 UNK         0.0786 
     93 H93        25.3453  -22.8713  -41.4967 H         1 UNK         0.0786 
     94 H94        24.6199  -24.0851  -42.5511 H         1 UNK         0.0786 
     95 H95        23.9198  -26.5649  -41.7838 H         1 UNK         0.3172 
     96 H96        25.8467  -28.7896  -42.3141 H         1 UNK         0.0595 
     97 H97        23.6383  -27.6996  -44.1510 H         1 UNK         0.0839 
     98 H98        24.5598  -29.1705  -44.4325 H         1 UNK         0.0839 
     99 H99        25.3724  -27.6117  -44.4540 H         1 UNK         0.0839 
    100 H100       25.1094  -29.4893  -40.1955 H         1 UNK         0.2998 
    101 H101       22.4285  -29.9839  -39.4782 H         1 UNK         0.0822 
    102 H102       23.4354  -31.4509  -37.7283 H         1 UNK         0.0787 
    103 H103       24.2897  -29.9225  -37.8491 H         1 UNK         0.0787 
    104 H104       24.9891  -31.3844  -38.5485 H         1 UNK         0.0787 
    105 H105       24.5153  -31.8679  -41.5590 H         1 UNK         0.3055 
    106 H106       22.8469  -34.2865  -41.5203 H         1 UNK         0.1106 
    107 H107       25.3199  -34.4678  -41.7231 H         1 UNK         0.0828 
    108 H108       24.5282  -35.1082  -43.1517 H         1 UNK         0.0828 
    109 H109       25.2869  -33.5232  -43.2125 H         1 UNK         0.0828 
    110 H110       21.0732  -32.4697  -42.0517 H         1 UNK         0.2931 
    111 H111       19.4294  -31.8648  -43.3641 H         1 UNK         0.0412 
    112 H112       21.6292  -29.4929  -45.2574 H         1 UNK         0.3472 
    113 H113       21.8900  -30.2678  -43.7244 H         1 UNK         0.3472 
    114 H114       18.8487  -33.2846  -45.4336 H         1 UNK         0.0970 
    115 H115       20.3247  -34.1569  -45.1805 H         1 UNK         0.0970 
    116 H116       16.3497  -34.7043  -42.9539 H         1 UNK         0.0612 
    117 H117       16.6292  -34.5794  -44.6742 H         1 UNK         0.0612 
@<TRIPOS>BOND
     1    1    2 1    
     2    1   62 1    
     3    1   63 1    
     4    1   64 1    
     5    2    3 2    
     6    2    4 am   BACKBONE|DICT|INTERRES
     7    4    5 1    
     8    4   65 1    
     9    5    6 1    
    10    5   25 1    
    11    5   66 1    
    12    6    7 1    
    13    6   67 1    
    14    6   68 1    
    15    7    8 1    
    16    8    9 1    
    17    8   69 1    
    18    8   70 1    
    19    9   10 ar   
    20    9   14 ar   
    21   10   11 ar   
    22   10   71 1    
    23   11   12 ar   
    24   11   61 1    
    25   12   13 ar   
    26   12   72 1    
    27   13   14 ar   
    28   13   15 1    
    29   14   73 1    
    30   15   16 1    
    31   15   74 1    
    32   15   75 1    
    33   16   17 1    
    34   17   18 1    
    35   17   76 1    
    36   17   77 1    
    37   18   19 1    
    38   18   27 1    
    39   18   78 1    
    40   19   20 am   BACKBONE|DICT|INTERRES
    41   19   79 1    
    42   20   21 2    
    43   20   22 1    
    44   22   23 1    
    45   22   24 1    
    46   22   80 1    
    47   23   81 1    
    48   23   82 1    
    49   23   83 1    
    50   24   25 am   BACKBONE|DICT|INTERRES
    51   24   84 1    
    52   25   26 2    
    53   27   28 2    
    54   27   29 am   BACKBONE|DICT|INTERRES
    55   29   30 1    
    56   29   85 1    
    57   30   31 1    
    58   30   32 1    
    59   30   86 1    
    60   31   87 1    
    61   31   88 1    
    62   31   89 1    
    63   32   33 2    
    64   32   34 am   BACKBONE|DICT|INTERRES
    65   34   35 1    
    66   34   90 1    
    67   35   36 1    
    68   35   37 1    
    69   35   91 1    
    70   36   92 1    
    71   36   93 1    
    72   36   94 1    
    73   37   38 2    
    74   37   39 am   BACKBONE|DICT|INTERRES
    75   39   40 1    
    76   39   95 1    
    77   40   41 1    
    78   40   42 1    
    79   40   96 1    
    80   41   97 1    
    81   41   98 1    
    82   41   99 1    
    83   42   43 2    
    84   42   44 am   BACKBONE|DICT|INTERRES
    85   44   45 1    
    86   44  100 1    
    87   45   46 1    
    88   45   47 1    
    89   45  101 1    
    90   46  102 1    
    91   46  103 1    
    92   46  104 1    
    93   47   48 2    
    94   47   49 am   BACKBONE|DICT|INTERRES
    95   49   50 1    
    96   49  105 1    
    97   50   51 1    
    98   50   52 1    
    99   50  106 1    
   100   51  107 1    
   101   51  108 1    
   102   51  109 1    
   103   52   53 2    
   104   52   54 am   BACKBONE|DICT|INTERRES
   105   54   55 1    
   106   54  110 1    
   107   55   56 1    
   108   55   59 1    
   109   55  111 1    
   110   56   57 am   BACKBONE|DICT|INTERRES
   111   56   58 2    
   112   57  112 1    
   113   57  113 1    
   114   59   60 1    
   115   59  114 1    
   116   59  115 1    
   117   60   61 1    
   118   61  116 1    
   119   61  117 1    
@<TRIPOS>SUBSTRUCTURE
     1 UNK         1 GROUP             0       ****    0 ROOT    
