@<TRIPOS>MOLECULE
3R8
117   119    1
SMALL
USER_CHARGES


@<TRIPOS>ATOM
      1 CA         22.5512  -22.3240  -43.7798 C.3       0 UNK        -0.2013 
      2 C          22.1982  -23.8003  -43.6836 C.2       0 UNK         0.4866 
      3 O          22.7909  -24.5154  -42.8759 O.2       0 UNK        -0.5176 
      4 N          21.2454  -24.2572  -44.5055 N.am      1 UNK        -0.4884 
      5 CA         20.7470  -25.6337  -44.5215 C.3       1 UNK         0.0853 
      6 C6         20.3807  -26.1083  -45.9535 C.3       10 UNK        -0.0849 
      7 S7         21.8536  -26.6427  -46.8819 S.3       10 UNK        -0.2776 
      8 C8         21.1680  -27.9228  -47.9899 C.3       10 UNK         0.0316 
      9 C9         20.4932  -29.0753  -47.2502 C.ar      10 UNK        -0.0863 
     10 C10        21.2325  -29.9094  -46.4051 C.ar      10 UNK        -0.1009 
     11 C11        20.6184  -30.9833  -45.7522 C.ar      10 UNK        -0.0712 
     12 C12        19.2566  -31.2263  -45.9553 C.ar      10 UNK        -0.0894 
     13 C13        18.5024  -30.3932  -46.7869 C.ar      10 UNK        -0.0745 
     14 C14        19.1279  -29.3227  -47.4341 C.ar      10 UNK        -0.0972 
     15 C15        17.0175  -30.6581  -47.0041 C.3       10 UNK         0.0209 
     16 S16        15.9661  -29.4099  -46.1916 S.3       10 UNK        -0.2568 
     17 C17        16.0534  -29.9012  -44.4338 C.3       10 UNK        -0.0983 
     18 CA         17.2469  -29.2518  -43.6859 C.3       3 UNK         0.0876 
     19 N          17.3093  -27.7945  -43.8251 N.am      3 UNK        -0.4424 
     20 C          16.5766  -26.8601  -43.2031 C.2       2 UNK         0.4918 
     21 O          15.5837  -27.1084  -42.5185 O.2       2 UNK        -0.4875 
     22 CA         17.0625  -25.3952  -43.3420 C.3       2 UNK         0.0481 
     23 CB         17.0346  -24.6638  -41.9836 C.3       2 UNK        -0.1831 
     24 N          18.3862  -25.2414  -43.9780 N.am      2 UNK        -0.4498 
     25 C          19.5512  -25.7713  -43.5655 C.2       1 UNK         0.5027 
     26 O          19.6701  -26.4272  -42.5296 O.2       1 UNK        -0.4969 
     27 C          17.3896  -29.7078  -42.2155 C.2       3 UNK         0.5005 
     28 O          16.6973  -30.6322  -41.7836 O.2       3 UNK        -0.5279 
     29 N          18.2776  -29.0330  -41.4707 N.am      4 UNK        -0.4463 
     30 CA         18.5327  -29.2748  -40.0506 C.3       4 UNK         0.0283 
     31 CB         17.5243  -28.4935  -39.1897 C.3       4 UNK        -0.1875 
     32 C          19.9734  -28.9188  -39.6645 C.2       4 UNK         0.4949 
     33 O          20.5859  -29.6568  -38.8907 O.2       4 UNK        -0.5039 
     34 N          20.4906  -27.8067  -40.2041 N.am      5 UNK        -0.4663 
     35 CA         21.8688  -27.3594  -40.0345 C.3       5 UNK         0.0242 
     36 CB         21.9048  -25.8201  -39.9924 C.3       5 UNK        -0.1982 
     37 C          22.7508  -28.0050  -41.1165 C.2       5 UNK         0.5017 
     38 O          22.8568  -29.2314  -41.1253 O.2       5 UNK        -0.5012 
     39 N          23.4006  -27.2102  -41.9804 N.am      6 UNK        -0.4439 
     40 CA         24.4331  -27.6341  -42.9362 C.3       6 UNK         0.0297 
     41 CB         23.8308  -28.5157  -44.0559 C.3       6 UNK        -0.2006 
     42 C          25.6212  -28.2844  -42.1977 C.2       6 UNK         0.4892 
     43 O          26.3547  -27.5784  -41.5050 O.2       6 UNK        -0.5089 
     44 N          25.7567  -29.6117  -42.3131 N.am      7 UNK        -0.4243 
     45 CA         26.7242  -30.4421  -41.5882 C.3       7 UNK         0.0196 
     46 CB         27.1949  -31.5687  -42.5271 C.3       7 UNK        -0.2007 
     47 C          26.1494  -31.0059  -40.2689 C.2       7 UNK         0.5020 
     48 O          26.6745  -31.9973  -39.7618 O.2       7 UNK        -0.5147 
     49 N          25.0742  -30.3880  -39.7566 N.am      8 UNK        -0.4734 
     50 CA         24.2050  -30.8241  -38.6553 C.3       8 UNK         0.0238 
     51 CB         24.9801  -30.9749  -37.3282 C.3       8 UNK        -0.1912 
     52 C          23.4071  -32.0770  -39.0570 C.2       8 UNK         0.5038 
     53 O          23.4127  -33.0751  -38.3331 O.2       8 UNK        -0.5046 
     54 N          22.7708  -32.0072  -40.2346 N.am      9 UNK        -0.4200 
     55 CA         22.0189  -33.1123  -40.8446 C.3       9 UNK         0.0839 
     56 C          20.6109  -33.3807  -40.2396 C.2       9 UNK         0.5513 
     57 N          20.0814  -32.5325  -39.3676 N.am      9 UNK        -0.7519 
     58 O          19.9978  -34.3992  -40.5493 O.2       9 UNK        -0.4960 
     59 C59        22.0104  -33.0239  -42.3929 C.3       10 UNK        -0.0876 
     60 S60        21.1460  -31.5743  -43.0906 S.3       10 UNK        -0.2414 
     61 C61        21.4271  -31.9089  -44.8573 C.3       10 UNK         0.0169 
     62 H62        23.6041  -22.2073  -44.0348 H         1 UNK         0.0903 
     63 H63        21.9596  -21.8097  -44.5370 H         1 UNK         0.0903 
     64 H64        22.3765  -21.8347  -42.8220 H         1 UNK         0.0903 
     65 H65        20.8013  -23.6159  -45.1473 H         1 UNK         0.3096 
     66 H66        21.5167  -26.3023  -44.1306 H         1 UNK         0.1121 
     67 H67        19.6847  -26.9465  -45.9139 H         1 UNK         0.0849 
     68 H68        19.8732  -25.3250  -46.5192 H         1 UNK         0.0849 
     69 H69        20.4721  -27.4475  -48.6830 H         1 UNK         0.0865 
     70 H70        21.9764  -28.3239  -48.6027 H         1 UNK         0.0865 
     71 H71        22.2886  -29.7255  -46.2647 H         1 UNK         0.1346 
     72 H72        18.7841  -32.0615  -45.4560 H         1 UNK         0.1412 
     73 H73        18.5455  -28.6844  -48.0851 H         1 UNK         0.1426 
     74 H74        16.8097  -30.6436  -48.0750 H         1 UNK         0.0716 
     75 H75        16.7400  -31.6544  -46.6563 H         1 UNK         0.0716 
     76 H76        15.1136  -29.6168  -43.9574 H         1 UNK         0.0695 
     77 H77        16.1073  -30.9898  -44.3766 H         1 UNK         0.0695 
     78 H78        18.1595  -29.6129  -44.1554 H         1 UNK         0.0983 
     79 H79        18.0733  -27.4603  -44.3896 H         1 UNK         0.3095 
     80 H80        16.3486  -24.9005  -44.0019 H         1 UNK         0.0454 
     81 H81        16.0263  -24.6446  -41.5683 H         1 UNK         0.0851 
     82 H82        17.6771  -25.1482  -41.2476 H         1 UNK         0.0851 
     83 H83        17.3604  -23.6287  -42.0831 H         1 UNK         0.0851 
     84 H84        18.3827  -24.7236  -44.8461 H         1 UNK         0.2976 
     85 H85        18.8185  -28.2986  -41.9119 H         1 UNK         0.3116 
     86 H86        18.4043  -30.3396  -39.8479 H         1 UNK         0.0646 
     87 H87        17.7142  -28.6494  -38.1270 H         1 UNK         0.0847 
     88 H88        16.5017  -28.8157  -39.3865 H         1 UNK         0.0847 
     89 H89        17.5782  -27.4208  -39.3797 H         1 UNK         0.0847 
     90 H90        19.9514  -27.2666  -40.8737 H         1 UNK         0.3040 
     91 H91        22.2522  -27.7165  -39.0762 H         1 UNK         0.1015 
     92 H92        21.3688  -25.4461  -39.1200 H         1 UNK         0.0786 
     93 H93        21.4397  -25.3745  -40.8702 H         1 UNK         0.0786 
     94 H94        22.9260  -25.4429  -39.9220 H         1 UNK         0.0786 
     95 H95        23.2235  -26.2085  -41.9565 H         1 UNK         0.3172 
     96 H96        24.8155  -26.7247  -43.4023 H         1 UNK         0.0595 
     97 H97        23.3733  -29.4306  -43.6793 H         1 UNK         0.0839 
     98 H98        24.5904  -28.7989  -44.7857 H         1 UNK         0.0839 
     99 H99        23.0593  -27.9755  -44.5990 H         1 UNK         0.0839 
    100 H100       25.0726  -30.1052  -42.8688 H         1 UNK         0.2998 
    101 H101       27.5951  -29.8389  -41.3231 H         1 UNK         0.0822 
    102 H102       27.6038  -31.1673  -43.4545 H         1 UNK         0.0787 
    103 H103       27.9814  -32.1658  -42.0636 H         1 UNK         0.0787 
    104 H104       26.3792  -32.2457  -42.7842 H         1 UNK         0.0787 
    105 H105       24.6828  -29.6365  -40.3128 H         1 UNK         0.3055 
    106 H106       23.4663  -30.0338  -38.5104 H         1 UNK         0.1106 
    107 H107       24.2949  -31.1665  -36.5017 H         1 UNK         0.0828 
    108 H108       25.6875  -31.8038  -37.3561 H         1 UNK         0.0828 
    109 H109       25.5339  -30.0678  -37.0868 H         1 UNK         0.0828 
    110 H110       22.7604  -31.1212  -40.7334 H         1 UNK         0.2931 
    111 H111       22.5828  -34.0191  -40.6161 H         1 UNK         0.0412 
    112 H112       19.1773  -32.7372  -38.9741 H         1 UNK         0.3472 
    113 H113       20.5472  -31.6619  -39.1383 H         1 UNK         0.3472 
    114 H114       21.5641  -33.9275  -42.8125 H         1 UNK         0.0970 
    115 H115       23.0393  -33.0120  -42.7561 H         1 UNK         0.0970 
    116 H116       21.1579  -32.9429  -45.0782 H         1 UNK         0.0612 
    117 H117       22.4928  -31.8151  -45.0721 H         1 UNK         0.0612 
@<TRIPOS>BOND
     1    1    2 1    
     2    1   62 1    
     3    1   63 1    
     4    1   64 1    
     5    2    3 2    
     6    2    4 am   BACKBONE|DICT|INTERRES
     7    4    5 1    
     8    4   65 1    
     9    5    6 1    
    10    5   25 1    
    11    5   66 1    
    12    6    7 1    
    13    6   67 1    
    14    6   68 1    
    15    7    8 1    
    16    8    9 1    
    17    8   69 1    
    18    8   70 1    
    19    9   10 ar   
    20    9   14 ar   
    21   10   11 ar   
    22   10   71 1    
    23   11   12 ar   
    24   11   61 1    
    25   12   13 ar   
    26   12   72 1    
    27   13   14 ar   
    28   13   15 1    
    29   14   73 1    
    30   15   16 1    
    31   15   74 1    
    32   15   75 1    
    33   16   17 1    
    34   17   18 1    
    35   17   76 1    
    36   17   77 1    
    37   18   19 1    
    38   18   27 1    
    39   18   78 1    
    40   19   20 am   BACKBONE|DICT|INTERRES
    41   19   79 1    
    42   20   21 2    
    43   20   22 1    
    44   22   23 1    
    45   22   24 1    
    46   22   80 1    
    47   23   81 1    
    48   23   82 1    
    49   23   83 1    
    50   24   25 am   BACKBONE|DICT|INTERRES
    51   24   84 1    
    52   25   26 2    
    53   27   28 2    
    54   27   29 am   BACKBONE|DICT|INTERRES
    55   29   30 1    
    56   29   85 1    
    57   30   31 1    
    58   30   32 1    
    59   30   86 1    
    60   31   87 1    
    61   31   88 1    
    62   31   89 1    
    63   32   33 2    
    64   32   34 am   BACKBONE|DICT|INTERRES
    65   34   35 1    
    66   34   90 1    
    67   35   36 1    
    68   35   37 1    
    69   35   91 1    
    70   36   92 1    
    71   36   93 1    
    72   36   94 1    
    73   37   38 2    
    74   37   39 am   BACKBONE|DICT|INTERRES
    75   39   40 1    
    76   39   95 1    
    77   40   41 1    
    78   40   42 1    
    79   40   96 1    
    80   41   97 1    
    81   41   98 1    
    82   41   99 1    
    83   42   43 2    
    84   42   44 am   BACKBONE|DICT|INTERRES
    85   44   45 1    
    86   44  100 1    
    87   45   46 1    
    88   45   47 1    
    89   45  101 1    
    90   46  102 1    
    91   46  103 1    
    92   46  104 1    
    93   47   48 2    
    94   47   49 am   BACKBONE|DICT|INTERRES
    95   49   50 1    
    96   49  105 1    
    97   50   51 1    
    98   50   52 1    
    99   50  106 1    
   100   51  107 1    
   101   51  108 1    
   102   51  109 1    
   103   52   53 2    
   104   52   54 am   BACKBONE|DICT|INTERRES
   105   54   55 1    
   106   54  110 1    
   107   55   56 1    
   108   55   59 1    
   109   55  111 1    
   110   56   57 am   BACKBONE|DICT|INTERRES
   111   56   58 2    
   112   57  112 1    
   113   57  113 1    
   114   59   60 1    
   115   59  114 1    
   116   59  115 1    
   117   60   61 1    
   118   61  116 1    
   119   61  117 1    
@<TRIPOS>SUBSTRUCTURE
     1 UNK         1 GROUP             0       ****    0 ROOT    
