@<TRIPOS>MOLECULE
3R8
117   119    1
SMALL
USER_CHARGES


@<TRIPOS>ATOM
      1 CA         18.1283  -28.3022  -42.2191 C.3       0 UNK        -0.2013 
      2 C          17.1687  -27.3910  -42.9655 C.2       0 UNK         0.4866 
      3 O          16.6974  -26.4084  -42.3939 O.2       0 UNK        -0.5176 
      4 N          16.8768  -27.7036  -44.2361 N.am      1 UNK        -0.4884 
      5 CA         15.9715  -26.9336  -45.1049 C.3       1 UNK         0.0853 
      6 C6         15.6737  -27.6637  -46.4361 C.3       10 UNK        -0.0849 
      7 S7         14.9379  -29.3123  -46.1844 S.3       10 UNK        -0.2776 
      8 C8         16.2089  -30.3992  -46.9060 C.3       10 UNK         0.0316 
      9 C9         17.3971  -30.6115  -45.9764 C.ar      10 UNK        -0.0863 
     10 C10        17.2575  -31.4297  -44.8521 C.ar      10 UNK        -0.1009 
     11 C11        18.3587  -31.7227  -44.0436 C.ar      10 UNK        -0.0712 
     12 C12        19.6063  -31.1741  -44.3561 C.ar      10 UNK        -0.0894 
     13 C13        19.7589  -30.3374  -45.4662 C.ar      10 UNK        -0.0745 
     14 C14        18.6485  -30.0599  -46.2735 C.ar      10 UNK        -0.0972 
     15 C15        21.1410  -29.8142  -45.8434 C.3       10 UNK         0.0209 
     16 S16        21.2195  -27.9986  -45.9456 S.3       10 UNK        -0.2568 
     17 C17        21.4854  -27.5235  -44.2043 C.3       10 UNK        -0.0983 
     18 CA         21.5133  -25.9818  -44.0271 C.3       3 UNK         0.0876 
     19 N          20.2506  -25.3705  -44.4334 N.am      3 UNK        -0.4424 
     20 C          20.0710  -24.5632  -45.4853 C.2       2 UNK         0.4918 
     21 O          20.9832  -24.1470  -46.2010 O.2       2 UNK        -0.4875 
     22 CA         18.6089  -24.2263  -45.8185 C.3       2 UNK         0.0481 
     23 CB         18.4235  -23.6473  -47.2355 C.3       2 UNK        -0.1831 
     24 N          17.8177  -25.4434  -45.6546 N.am      2 UNK        -0.4498 
     25 C          16.5095  -25.5175  -45.3924 C.2       1 UNK         0.5027 
     26 O          15.7533  -24.5460  -45.3502 O.2       1 UNK        -0.4969 
     27 C          21.7660  -25.5898  -42.5638 C.2       3 UNK         0.5005 
     28 O          20.8147  -25.5037  -41.7817 O.2       3 UNK        -0.5279 
     29 N          23.0350  -25.3568  -42.2199 N.am      4 UNK        -0.4463 
     30 CA         23.5019  -24.9486  -40.8988 C.3       4 UNK         0.0283 
     31 CB         23.3273  -23.4284  -40.7229 C.3       4 UNK        -0.1875 
     32 C          24.9716  -25.3580  -40.7629 C.2       4 UNK         0.4949 
     33 O          25.6205  -25.6405  -41.7735 O.2       4 UNK        -0.5039 
     34 N          25.4616  -25.4041  -39.5169 N.am      5 UNK        -0.4663 
     35 CA         26.7990  -25.8323  -39.0685 C.3       5 UNK         0.0242 
     36 CB         27.9224  -24.9974  -39.7153 C.3       5 UNK        -0.1982 
     37 C          27.0613  -27.3428  -39.2233 C.2       5 UNK         0.5017 
     38 O          27.6065  -27.9522  -38.3024 O.2       5 UNK        -0.5012 
     39 N          26.6419  -27.9246  -40.3501 N.am      6 UNK        -0.4439 
     40 CA         26.6125  -29.3559  -40.6189 C.3       6 UNK         0.0297 
     41 CB         27.8757  -29.7725  -41.3907 C.3       6 UNK        -0.2006 
     42 C          25.3429  -29.6553  -41.4224 C.2       6 UNK         0.4892 
     43 O          25.0336  -28.9249  -42.3664 O.2       6 UNK        -0.5089 
     44 N          24.6415  -30.7239  -41.0388 N.am      7 UNK        -0.4243 
     45 CA         23.4235  -31.2263  -41.6648 C.3       7 UNK         0.0196 
     46 CB         22.2244  -30.3184  -41.3208 C.3       7 UNK        -0.2007 
     47 C          23.1936  -32.6427  -41.1334 C.2       7 UNK         0.5020 
     48 O          23.4869  -32.8999  -39.9632 O.2       7 UNK        -0.5147 
     49 N          22.6351  -33.5273  -41.9699 N.am      8 UNK        -0.4734 
     50 CA         22.2964  -34.9111  -41.6005 C.3       8 UNK         0.0238 
     51 CB         21.8747  -35.6842  -42.8608 C.3       8 UNK        -0.1912 
     52 C          21.2027  -35.0087  -40.5194 C.2       8 UNK         0.5038 
     53 O          21.1848  -35.9724  -39.7533 O.2       8 UNK        -0.5046 
     54 N          20.3318  -33.9963  -40.4815 N.am      9 UNK        -0.4200 
     55 CA         19.2855  -33.7725  -39.4781 C.3       9 UNK         0.0839 
     56 C          19.7471  -32.9000  -38.2729 C.2       9 UNK         0.5513 
     57 N          21.0101  -32.4984  -38.1750 N.am      9 UNK        -0.7519 
     58 O          18.9465  -32.5989  -37.3913 O.2       9 UNK        -0.4960 
     59 C59        17.9802  -33.2514  -40.1425 C.3       10 UNK        -0.0876 
     60 S60        18.2215  -31.8292  -41.2698 S.3       10 UNK        -0.2414 
     61 C61        18.2114  -32.6854  -42.8755 C.3       10 UNK         0.0169 
     62 H62        17.6082  -28.8047  -41.4043 H         1 UNK         0.0903 
     63 H63        18.5545  -29.0627  -42.8700 H         1 UNK         0.0903 
     64 H64        18.9468  -27.7225  -41.7929 H         1 UNK         0.0903 
     65 H65        17.2505  -28.5532  -44.6399 H         1 UNK         0.3096 
     66 H66        15.0290  -26.8123  -44.5658 H         1 UNK         0.1121 
     67 H67        14.9707  -27.0824  -47.0365 H         1 UNK         0.0849 
     68 H68        16.5795  -27.7523  -47.0389 H         1 UNK         0.0849 
     69 H69        15.7536  -31.3676  -47.1191 H         1 UNK         0.0865 
     70 H70        16.5296  -30.0053  -47.8718 H         1 UNK         0.0865 
     71 H71        16.2937  -31.8670  -44.6280 H         1 UNK         0.1346 
     72 H72        20.4634  -31.4219  -43.7477 H         1 UNK         0.1412 
     73 H73        18.7719  -29.4425  -47.1533 H         1 UNK         0.1426 
     74 H74        21.4081  -30.2248  -46.8180 H         1 UNK         0.0716 
     75 H75        21.9029  -30.1674  -45.1465 H         1 UNK         0.0716 
     76 H76        22.4293  -27.9618  -43.8736 H         1 UNK         0.0695 
     77 H77        20.7019  -27.9757  -43.5949 H         1 UNK         0.0695 
     78 H78        22.3317  -25.5788  -44.6284 H         1 UNK         0.0983 
     79 H79        19.4683  -25.5654  -43.8245 H         1 UNK         0.3095 
     80 H80        18.2773  -23.4850  -45.0888 H         1 UNK         0.0454 
     81 H81        18.9993  -22.7298  -47.3619 H         1 UNK         0.0851 
     82 H82        17.3804  -23.4010  -47.4334 H         1 UNK         0.0851 
     83 H83        18.7534  -24.3499  -48.0015 H         1 UNK         0.0851 
     84 H84        18.3479  -26.3050  -45.6666 H         1 UNK         0.2976 
     85 H85        23.7861  -25.5182  -42.8819 H         1 UNK         0.3116 
     86 H86        22.9273  -25.4773  -40.1350 H         1 UNK         0.0646 
     87 H87        23.6765  -23.1010  -39.7429 H         1 UNK         0.0847 
     88 H88        22.2803  -23.1360  -40.8039 H         1 UNK         0.0847 
     89 H89        23.8892  -22.8701  -41.4727 H         1 UNK         0.0847 
     90 H90        24.8264  -25.1703  -38.7651 H         1 UNK         0.3040 
     91 H91        26.8247  -25.6276  -37.9965 H         1 UNK         0.1015 
     92 H92        28.8889  -25.2427  -39.2731 H         1 UNK         0.0786 
     93 H93        27.7595  -23.9300  -39.5662 H         1 UNK         0.0786 
     94 H94        28.0060  -25.1782  -40.7872 H         1 UNK         0.0786 
     95 H95        26.1992  -27.3385  -41.0559 H         1 UNK         0.3172 
     96 H96        26.5709  -29.9068  -39.6764 H         1 UNK         0.0595 
     97 H97        27.9586  -29.2444  -42.3416 H         1 UNK         0.0839 
     98 H98        27.8653  -30.8411  -41.6091 H         1 UNK         0.0839 
     99 H99        28.7778  -29.5672  -40.8141 H         1 UNK         0.0839 
    100 H100       24.9592  -31.2864  -40.2580 H         1 UNK         0.2998 
    101 H101       23.5658  -31.2634  -42.7470 H         1 UNK         0.0822 
    102 H102       22.3463  -29.3183  -41.7363 H         1 UNK         0.0787 
    103 H103       22.0974  -30.2158  -40.2422 H         1 UNK         0.0787 
    104 H104       21.2919  -30.7200  -41.7158 H         1 UNK         0.0787 
    105 H105       22.4387  -33.2503  -42.9214 H         1 UNK         0.3055 
    106 H106       23.1947  -35.3802  -41.1922 H         1 UNK         0.1106 
    107 H107       20.9906  -35.2485  -43.3279 H         1 UNK         0.0828 
    108 H108       22.6736  -35.7018  -43.6024 H         1 UNK         0.0828 
    109 H109       21.6374  -36.7217  -42.6205 H         1 UNK         0.0828 
    110 H110       20.4521  -33.2447  -41.1427 H         1 UNK         0.2931 
    111 H111       19.0375  -34.7382  -39.0340 H         1 UNK         0.0412 
    112 H112       21.7058  -32.7652  -38.8599 H         1 UNK         0.3472 
    113 H113       21.2829  -31.9431  -37.3798 H         1 UNK         0.3472 
    114 H114       17.5158  -34.0673  -40.6981 H         1 UNK         0.0970 
    115 H115       17.2415  -32.9737  -39.3885 H         1 UNK         0.0970 
    116 H116       17.2839  -33.2524  -42.9698 H         1 UNK         0.0612 
    117 H117       19.0200  -33.4162  -42.9082 H         1 UNK         0.0612 
@<TRIPOS>BOND
     1    1    2 1    
     2    1   62 1    
     3    1   63 1    
     4    1   64 1    
     5    2    3 2    
     6    2    4 am   BACKBONE|DICT|INTERRES
     7    4    5 1    
     8    4   65 1    
     9    5    6 1    
    10    5   25 1    
    11    5   66 1    
    12    6    7 1    
    13    6   67 1    
    14    6   68 1    
    15    7    8 1    
    16    8    9 1    
    17    8   69 1    
    18    8   70 1    
    19    9   10 ar   
    20    9   14 ar   
    21   10   11 ar   
    22   10   71 1    
    23   11   12 ar   
    24   11   61 1    
    25   12   13 ar   
    26   12   72 1    
    27   13   14 ar   
    28   13   15 1    
    29   14   73 1    
    30   15   16 1    
    31   15   74 1    
    32   15   75 1    
    33   16   17 1    
    34   17   18 1    
    35   17   76 1    
    36   17   77 1    
    37   18   19 1    
    38   18   27 1    
    39   18   78 1    
    40   19   20 am   BACKBONE|DICT|INTERRES
    41   19   79 1    
    42   20   21 2    
    43   20   22 1    
    44   22   23 1    
    45   22   24 1    
    46   22   80 1    
    47   23   81 1    
    48   23   82 1    
    49   23   83 1    
    50   24   25 am   BACKBONE|DICT|INTERRES
    51   24   84 1    
    52   25   26 2    
    53   27   28 2    
    54   27   29 am   BACKBONE|DICT|INTERRES
    55   29   30 1    
    56   29   85 1    
    57   30   31 1    
    58   30   32 1    
    59   30   86 1    
    60   31   87 1    
    61   31   88 1    
    62   31   89 1    
    63   32   33 2    
    64   32   34 am   BACKBONE|DICT|INTERRES
    65   34   35 1    
    66   34   90 1    
    67   35   36 1    
    68   35   37 1    
    69   35   91 1    
    70   36   92 1    
    71   36   93 1    
    72   36   94 1    
    73   37   38 2    
    74   37   39 am   BACKBONE|DICT|INTERRES
    75   39   40 1    
    76   39   95 1    
    77   40   41 1    
    78   40   42 1    
    79   40   96 1    
    80   41   97 1    
    81   41   98 1    
    82   41   99 1    
    83   42   43 2    
    84   42   44 am   BACKBONE|DICT|INTERRES
    85   44   45 1    
    86   44  100 1    
    87   45   46 1    
    88   45   47 1    
    89   45  101 1    
    90   46  102 1    
    91   46  103 1    
    92   46  104 1    
    93   47   48 2    
    94   47   49 am   BACKBONE|DICT|INTERRES
    95   49   50 1    
    96   49  105 1    
    97   50   51 1    
    98   50   52 1    
    99   50  106 1    
   100   51  107 1    
   101   51  108 1    
   102   51  109 1    
   103   52   53 2    
   104   52   54 am   BACKBONE|DICT|INTERRES
   105   54   55 1    
   106   54  110 1    
   107   55   56 1    
   108   55   59 1    
   109   55  111 1    
   110   56   57 am   BACKBONE|DICT|INTERRES
   111   56   58 2    
   112   57  112 1    
   113   57  113 1    
   114   59   60 1    
   115   59  114 1    
   116   59  115 1    
   117   60   61 1    
   118   61  116 1    
   119   61  117 1    
@<TRIPOS>SUBSTRUCTURE
     1 UNK         1 GROUP             0       ****    0 ROOT    
