@<TRIPOS>MOLECULE
3R8
117   119    1
SMALL
USER_CHARGES


@<TRIPOS>ATOM
      1 CA         20.6880  -26.4064  -50.6052 C.3       0 UNK        -0.2013 
      2 C          21.0270  -26.4876  -49.1242 C.2       0 UNK         0.4866 
      3 O          21.9612  -25.8248  -48.6718 O.2       0 UNK        -0.5176 
      4 N          20.2821  -27.3023  -48.3677 N.am      1 UNK        -0.4884 
      5 CA         20.4100  -27.4493  -46.9149 C.3       1 UNK         0.0853 
      6 C6         19.7541  -28.7622  -46.4019 C.3       10 UNK        -0.0849 
      7 S7         18.0435  -29.0497  -46.9899 S.3       10 UNK        -0.2776 
      8 C8         17.0270  -28.4412  -45.5934 C.3       10 UNK         0.0316 
      9 C9         17.0018  -29.3053  -44.3285 C.ar      10 UNK        -0.0863 
     10 C10        17.6644  -30.5360  -44.2249 C.ar      10 UNK        -0.1009 
     11 C11        17.6156  -31.2793  -43.0419 C.ar      10 UNK        -0.0712 
     12 C12        16.8707  -30.8018  -41.9601 C.ar      10 UNK        -0.0894 
     13 C13        16.1795  -29.5913  -42.0539 C.ar      10 UNK        -0.0745 
     14 C14        16.2586  -28.8466  -43.2350 C.ar      10 UNK        -0.0972 
     15 C15        15.3155  -29.1125  -40.8940 C.3       10 UNK         0.0209 
     16 S16        16.2909  -28.3186  -39.5769 S.3       10 UNK        -0.2568 
     17 C17        16.8197  -26.7718  -40.3849 C.3       10 UNK        -0.0983 
     18 CA         18.3112  -26.8271  -40.7966 C.3       3 UNK         0.0876 
     19 N          18.5805  -25.9938  -41.9725 N.am      3 UNK        -0.4424 
     20 C          19.7504  -25.9559  -42.6207 C.2       2 UNK         0.4918 
     21 O          20.7627  -26.5632  -42.2626 O.2       2 UNK        -0.4875 
     22 CA         19.7979  -25.1463  -43.9177 C.3       2 UNK         0.0481 
     23 CB         20.6984  -23.9086  -43.7816 C.3       2 UNK        -0.1831 
     24 N          20.3406  -26.0479  -44.9247 N.am      2 UNK        -0.4498 
     25 C          19.8625  -26.2199  -46.1600 C.2       1 UNK         0.5027 
     26 O          18.9955  -25.5043  -46.6696 O.2       1 UNK        -0.4969 
     27 C          19.2415  -26.4713  -39.6185 C.2       3 UNK         0.5005 
     28 O          19.4698  -25.2858  -39.3627 O.2       3 UNK        -0.5279 
     29 N          19.7866  -27.5016  -38.9559 N.am      4 UNK        -0.4463 
     30 CA         20.7717  -27.4778  -37.8626 C.3       4 UNK         0.0283 
     31 CB         20.2410  -26.7165  -36.6321 C.3       4 UNK        -0.1875 
     32 C          22.1723  -26.9743  -38.2654 C.2       4 UNK         0.4949 
     33 O          23.1609  -27.5147  -37.7699 O.2       4 UNK        -0.5039 
     34 N          22.2438  -25.9723  -39.1519 N.am      5 UNK        -0.4663 
     35 CA         23.4765  -25.4264  -39.7242 C.3       5 UNK         0.0242 
     36 CB         23.1531  -24.1513  -40.5178 C.3       5 UNK        -0.1982 
     37 C          24.2154  -26.4521  -40.5982 C.2       5 UNK         0.5017 
     38 O          25.4256  -26.6215  -40.4416 O.2       5 UNK        -0.5012 
     39 N          23.4697  -27.1522  -41.4641 N.am      6 UNK        -0.4439 
     40 CA         23.9325  -28.3394  -42.1768 C.3       6 UNK         0.0297 
     41 CB         23.1480  -28.4911  -43.4930 C.3       6 UNK        -0.2006 
     42 C          23.7582  -29.5499  -41.2480 C.2       6 UNK         0.4892 
     43 O          22.7045  -30.1855  -41.2568 O.2       6 UNK        -0.5089 
     44 N          24.7825  -29.8185  -40.4284 N.am      7 UNK        -0.4243 
     45 CA         24.7854  -30.8779  -39.4127 C.3       7 UNK         0.0196 
     46 CB         26.0205  -30.7066  -38.5138 C.3       7 UNK        -0.2007 
     47 C          24.7307  -32.3066  -39.9866 C.2       7 UNK         0.5020 
     48 O          24.2967  -33.2196  -39.2840 O.2       7 UNK        -0.5147 
     49 N          25.1635  -32.4742  -41.2419 N.am      8 UNK        -0.4734 
     50 CA         25.1456  -33.7331  -41.9878 C.3       8 UNK         0.0238 
     51 CB         26.5954  -34.1517  -42.3011 C.3       8 UNK        -0.1912 
     52 C          24.2782  -33.5896  -43.2505 C.2       8 UNK         0.5038 
     53 O          24.6939  -34.0116  -44.3317 O.2       8 UNK        -0.5046 
     54 N          23.0997  -32.9703  -43.0985 N.am      9 UNK        -0.4200 
     55 CA         22.0911  -32.7988  -44.1546 C.3       9 UNK         0.0839 
     56 C          21.5280  -34.1354  -44.7205 C.2       9 UNK         0.5513 
     57 N          21.0189  -34.1192  -45.9453 N.am      9 UNK        -0.7519 
     58 O          21.5182  -35.1710  -44.0574 O.2       9 UNK        -0.4960 
     59 C59        20.9619  -31.8336  -43.7074 C.3       10 UNK        -0.0876 
     60 S60        20.0200  -32.3992  -42.2441 S.3       10 UNK        -0.2414 
     61 C61        18.3491  -32.6091  -42.9343 C.3       10 UNK         0.0169 
     62 H62        21.5480  -26.7044  -51.2043 H         1 UNK         0.0903 
     63 H63        19.8512  -27.0534  -50.8680 H         1 UNK         0.0903 
     64 H64        20.4231  -25.3840  -50.8734 H         1 UNK         0.0903 
     65 H65        19.5030  -27.7992  -48.7774 H         1 UNK         0.3096 
     66 H66        21.4782  -27.5069  -46.6906 H         1 UNK         0.1121 
     67 H67        19.7855  -28.8212  -45.3120 H         1 UNK         0.0849 
     68 H68        20.3516  -29.6077  -46.7462 H         1 UNK         0.0849 
     69 H69        17.3492  -27.4335  -45.3302 H         1 UNK         0.0865 
     70 H70        16.0021  -28.3435  -45.9542 H         1 UNK         0.0865 
     71 H71        18.2192  -30.9288  -45.0630 H         1 UNK         0.1346 
     72 H72        16.8193  -31.3789  -41.0466 H         1 UNK         0.1412 
     73 H73        15.7234  -27.9097  -43.3102 H         1 UNK         0.1426 
     74 H74        14.7835  -29.9639  -40.4668 H         1 UNK         0.0716 
     75 H75        14.5448  -28.4236  -41.2436 H         1 UNK         0.0716 
     76 H76        16.6166  -25.9310  -39.7182 H         1 UNK         0.0695 
     77 H77        16.1855  -26.6068  -41.2566 H         1 UNK         0.0695 
     78 H78        18.5434  -27.8468  -41.1149 H         1 UNK         0.0983 
     79 H79        17.8121  -25.4354  -42.3126 H         1 UNK         0.3095 
     80 H80        18.7862  -24.8316  -44.1830 H         1 UNK         0.0454 
     81 H81        21.7340  -24.1826  -43.5786 H         1 UNK         0.0851 
     82 H82        20.3609  -23.2647  -42.9684 H         1 UNK         0.0851 
     83 H83        20.6869  -23.3136  -44.6948 H         1 UNK         0.0851 
     84 H84        21.0244  -26.6978  -44.5598 H         1 UNK         0.2976 
     85 H85        19.5395  -28.4306  -39.2700 H         1 UNK         0.3116 
     86 H86        20.8960  -28.5210  -37.5673 H         1 UNK         0.0646 
     87 H87        20.1219  -25.6507  -36.8285 H         1 UNK         0.0847 
     88 H88        20.9292  -26.8126  -35.7914 H         1 UNK         0.0847 
     89 H89        19.2769  -27.1082  -36.3080 H         1 UNK         0.0847 
     90 H90        21.3642  -25.5699  -39.4642 H         1 UNK         0.3040 
     91 H91        24.1400  -25.1586  -38.8988 H         1 UNK         0.1015 
     92 H92        22.4376  -24.3465  -41.3160 H         1 UNK         0.0786 
     93 H93        24.0517  -23.7348  -40.9751 H         1 UNK         0.0786 
     94 H94        22.7303  -23.3809  -39.8727 H         1 UNK         0.0786 
     95 H95        22.4751  -26.9478  -41.5340 H         1 UNK         0.3172 
     96 H96        24.9899  -28.2360  -42.4297 H         1 UNK         0.0595 
     97 H97        23.4728  -29.3784  -44.0379 H         1 UNK         0.0839 
     98 H98        23.3049  -27.6326  -44.1456 H         1 UNK         0.0839 
     99 H99        22.0765  -28.5893  -43.3187 H         1 UNK         0.0839 
    100 H100       25.5879  -29.2076  -40.4520 H         1 UNK         0.2998 
    101 H101       23.8937  -30.7441  -38.7959 H         1 UNK         0.0822 
    102 H102       26.0381  -31.4608  -37.7257 H         1 UNK         0.0787 
    103 H103       26.9482  -30.8037  -39.0792 H         1 UNK         0.0787 
    104 H104       26.0226  -29.7314  -38.0260 H         1 UNK         0.0787 
    105 H105       25.4794  -31.6582  -41.7473 H         1 UNK         0.3055 
    106 H106       24.6877  -34.5267  -41.3928 H         1 UNK         0.1106 
    107 H107       26.6239  -35.1114  -42.8190 H         1 UNK         0.0828 
    108 H108       27.0985  -33.4215  -42.9360 H         1 UNK         0.0828 
    109 H109       27.1809  -34.2620  -41.3883 H         1 UNK         0.0828 
    110 H110       22.8346  -32.6380  -42.1815 H         1 UNK         0.2931 
    111 H111       22.6129  -32.3113  -44.9809 H         1 UNK         0.0412 
    112 H112       21.0224  -33.2804  -46.5043 H         1 UNK         0.3472 
    113 H113       20.6386  -34.9715  -46.3270 H         1 UNK         0.3472 
    114 H114       20.2876  -31.6455  -44.5416 H         1 UNK         0.0970 
    115 H115       21.3877  -30.8612  -43.4652 H         1 UNK         0.0970 
    116 H116       17.7885  -33.2855  -42.2874 H         1 UNK         0.0612 
    117 H117       18.4072  -33.1007  -43.9069 H         1 UNK         0.0612 
@<TRIPOS>BOND
     1    1    2 1    
     2    1   62 1    
     3    1   63 1    
     4    1   64 1    
     5    2    3 2    
     6    2    4 am   BACKBONE|DICT|INTERRES
     7    4    5 1    
     8    4   65 1    
     9    5    6 1    
    10    5   25 1    
    11    5   66 1    
    12    6    7 1    
    13    6   67 1    
    14    6   68 1    
    15    7    8 1    
    16    8    9 1    
    17    8   69 1    
    18    8   70 1    
    19    9   10 ar   
    20    9   14 ar   
    21   10   11 ar   
    22   10   71 1    
    23   11   12 ar   
    24   11   61 1    
    25   12   13 ar   
    26   12   72 1    
    27   13   14 ar   
    28   13   15 1    
    29   14   73 1    
    30   15   16 1    
    31   15   74 1    
    32   15   75 1    
    33   16   17 1    
    34   17   18 1    
    35   17   76 1    
    36   17   77 1    
    37   18   19 1    
    38   18   27 1    
    39   18   78 1    
    40   19   20 am   BACKBONE|DICT|INTERRES
    41   19   79 1    
    42   20   21 2    
    43   20   22 1    
    44   22   23 1    
    45   22   24 1    
    46   22   80 1    
    47   23   81 1    
    48   23   82 1    
    49   23   83 1    
    50   24   25 am   BACKBONE|DICT|INTERRES
    51   24   84 1    
    52   25   26 2    
    53   27   28 2    
    54   27   29 am   BACKBONE|DICT|INTERRES
    55   29   30 1    
    56   29   85 1    
    57   30   31 1    
    58   30   32 1    
    59   30   86 1    
    60   31   87 1    
    61   31   88 1    
    62   31   89 1    
    63   32   33 2    
    64   32   34 am   BACKBONE|DICT|INTERRES
    65   34   35 1    
    66   34   90 1    
    67   35   36 1    
    68   35   37 1    
    69   35   91 1    
    70   36   92 1    
    71   36   93 1    
    72   36   94 1    
    73   37   38 2    
    74   37   39 am   BACKBONE|DICT|INTERRES
    75   39   40 1    
    76   39   95 1    
    77   40   41 1    
    78   40   42 1    
    79   40   96 1    
    80   41   97 1    
    81   41   98 1    
    82   41   99 1    
    83   42   43 2    
    84   42   44 am   BACKBONE|DICT|INTERRES
    85   44   45 1    
    86   44  100 1    
    87   45   46 1    
    88   45   47 1    
    89   45  101 1    
    90   46  102 1    
    91   46  103 1    
    92   46  104 1    
    93   47   48 2    
    94   47   49 am   BACKBONE|DICT|INTERRES
    95   49   50 1    
    96   49  105 1    
    97   50   51 1    
    98   50   52 1    
    99   50  106 1    
   100   51  107 1    
   101   51  108 1    
   102   51  109 1    
   103   52   53 2    
   104   52   54 am   BACKBONE|DICT|INTERRES
   105   54   55 1    
   106   54  110 1    
   107   55   56 1    
   108   55   59 1    
   109   55  111 1    
   110   56   57 am   BACKBONE|DICT|INTERRES
   111   56   58 2    
   112   57  112 1    
   113   57  113 1    
   114   59   60 1    
   115   59  114 1    
   116   59  115 1    
   117   60   61 1    
   118   61  116 1    
   119   61  117 1    
@<TRIPOS>SUBSTRUCTURE
     1 UNK         1 GROUP             0       ****    0 ROOT    
