@<TRIPOS>MOLECULE
3R8
117   119    1
SMALL
USER_CHARGES


@<TRIPOS>ATOM
      1 CA         19.7408  -22.7291  -43.3443 C.3       0 UNK        -0.2013 
      2 C          19.7278  -23.7434  -44.4776 C.2       0 UNK         0.4866 
      3 O          20.6315  -23.7313  -45.3128 O.2       0 UNK        -0.5176 
      4 N          18.7054  -24.6100  -44.5222 N.am      1 UNK        -0.4884 
      5 CA         18.5306  -25.6484  -45.5469 C.3       1 UNK         0.0853 
      6 C6         17.1111  -26.2711  -45.5290 C.3       10 UNK        -0.0849 
      7 S7         16.5807  -26.8963  -43.8919 S.3       10 UNK        -0.2776 
      8 C8         15.6683  -28.4103  -44.3374 C.3       10 UNK         0.0316 
      9 C9         16.4229  -29.6769  -43.9548 C.ar      10 UNK        -0.0863 
     10 C10        16.9225  -30.5434  -44.9341 C.ar      10 UNK        -0.1009 
     11 C11        17.5218  -31.7570  -44.5719 C.ar      10 UNK        -0.0712 
     12 C12        17.6441  -32.0853  -43.2178 C.ar      10 UNK        -0.0894 
     13 C13        17.1466  -31.2263  -42.2319 C.ar      10 UNK        -0.0745 
     14 C14        16.5429  -30.0238  -42.6066 C.ar      10 UNK        -0.0972 
     15 C15        17.1870  -31.6337  -40.7671 C.3       10 UNK         0.0209 
     16 S16        18.8156  -31.3576  -40.0145 S.3       10 UNK        -0.2568 
     17 C17        18.8348  -29.5596  -39.7156 C.3       10 UNK        -0.0983 
     18 CA         20.1132  -28.9089  -40.2975 C.3       3 UNK         0.0876 
     19 N          20.0534  -28.7178  -41.7566 N.am      3 UNK        -0.4424 
     20 C          21.1235  -28.4042  -42.5034 C.2       2 UNK         0.4918 
     21 O          22.2515  -28.2553  -42.0380 O.2       2 UNK        -0.4875 
     22 CA         20.9273  -28.2353  -44.0082 C.3       2 UNK         0.0481 
     23 CB         20.6275  -29.5915  -44.6595 C.3       2 UNK        -0.1831 
     24 N          19.8876  -27.2506  -44.2878 N.am      2 UNK        -0.4498 
     25 C          19.6300  -26.7261  -45.4931 C.2       1 UNK         0.5027 
     26 O          20.2250  -27.0351  -46.5269 O.2       1 UNK        -0.4969 
     27 C          20.4698  -27.6024  -39.5641 C.2       3 UNK         0.5005 
     28 O          21.3591  -27.6089  -38.7125 O.2       3 UNK        -0.5279 
     29 N          19.8404  -26.4898  -39.9673 N.am      4 UNK        -0.4463 
     30 CA         20.1462  -25.1404  -39.4763 C.3       4 UNK         0.0283 
     31 CB         19.0449  -24.1753  -39.9412 C.3       4 UNK        -0.1875 
     32 C          21.5425  -24.6270  -39.8873 C.2       4 UNK         0.4949 
     33 O          22.0680  -23.7270  -39.2332 O.2       4 UNK        -0.5039 
     34 N          22.1230  -25.2159  -40.9421 N.am      5 UNK        -0.4663 
     35 CA         23.4865  -24.9570  -41.4131 C.3       5 UNK         0.0242 
     36 CB         23.4999  -25.0545  -42.9492 C.3       5 UNK        -0.1982 
     37 C          24.5255  -25.9174  -40.7968 C.2       5 UNK         0.5017 
     38 O          25.7096  -25.7828  -41.1055 O.2       5 UNK        -0.5012 
     39 N          24.0766  -26.8732  -39.9655 N.am      6 UNK        -0.4439 
     40 CA         24.8488  -27.9368  -39.3071 C.3       6 UNK         0.0297 
     41 CB         25.9027  -27.3482  -38.3449 C.3       6 UNK        -0.2006 
     42 C          25.4452  -28.9922  -40.2649 C.2       6 UNK         0.4892 
     43 O          26.3277  -29.7473  -39.8535 O.2       6 UNK        -0.5089 
     44 N          24.9427  -29.0574  -41.5051 N.am      7 UNK        -0.4243 
     45 CA         25.2807  -30.0859  -42.4936 C.3       7 UNK         0.0196 
     46 CB         25.1293  -29.4982  -43.9063 C.3       7 UNK        -0.2007 
     47 C          24.3905  -31.3287  -42.3327 C.2       7 UNK         0.5020 
     48 O          24.8587  -32.4494  -42.5347 O.2       7 UNK        -0.5147 
     49 N          23.1167  -31.0951  -41.9831 N.am      8 UNK        -0.4734 
     50 CA         22.0669  -32.0701  -41.6512 C.3       8 UNK         0.0238 
     51 CB         22.3713  -32.7234  -40.2876 C.3       8 UNK        -0.1912 
     52 C          21.7368  -33.1136  -42.7384 C.2       8 UNK         0.5038 
     53 O          21.1343  -34.1405  -42.4219 O.2       8 UNK        -0.5046 
     54 N          22.1262  -32.8364  -43.9903 N.am      9 UNK        -0.4200 
     55 CA         22.0083  -33.7315  -45.1536 C.3       9 UNK         0.0839 
     56 C          22.8724  -35.0259  -45.0371 C.2       9 UNK         0.5513 
     57 N          23.9283  -35.0376  -44.2298 N.am      9 UNK        -0.7519 
     58 O          22.6087  -36.0216  -45.7067 O.2       9 UNK        -0.4960 
     59 C59        20.5312  -33.9994  -45.5733 C.3       10 UNK        -0.0876 
     60 S60        19.6969  -32.4814  -46.1538 S.3       10 UNK        -0.2414 
     61 C61        17.9695  -32.7433  -45.6441 C.3       10 UNK         0.0169 
     62 H62        19.9829  -21.7394  -43.7308 H         1 UNK         0.0903 
     63 H63        18.7736  -22.6630  -42.8472 H         1 UNK         0.0903 
     64 H64        20.4965  -22.9979  -42.6067 H         1 UNK         0.0903 
     65 H65        17.9791  -24.5713  -43.8204 H         1 UNK         0.3096 
     66 H66        18.6455  -25.1534  -46.5145 H         1 UNK         0.1121 
     67 H67        16.3852  -25.5188  -45.8415 H         1 UNK         0.0849 
     68 H68        17.0436  -27.0653  -46.2753 H         1 UNK         0.0849 
     69 H69        15.4129  -28.4125  -45.3978 H         1 UNK         0.0865 
     70 H70        14.7136  -28.4011  -43.8094 H         1 UNK         0.0865 
     71 H71        16.8134  -30.2932  -45.9806 H         1 UNK         0.1346 
     72 H72        18.0971  -33.0251  -42.9315 H         1 UNK         0.1412 
     73 H73        16.1318  -29.3687  -41.8502 H         1 UNK         0.1426 
     74 H74        16.9438  -32.6940  -40.6848 H         1 UNK         0.0716 
     75 H75        16.4243  -31.1060  -40.1921 H         1 UNK         0.0716 
     76 H76        18.7853  -29.4286  -38.6325 H         1 UNK         0.0695 
     77 H77        17.9368  -29.0885  -40.1175 H         1 UNK         0.0695 
     78 H78        20.9486  -29.5821  -40.0915 H         1 UNK         0.0983 
     79 H79        19.1638  -28.8922  -42.2031 H         1 UNK         0.3095 
     80 H80        21.8636  -27.8556  -44.4221 H         1 UNK         0.0454 
     81 H81        20.5292  -29.5163  -45.7417 H         1 UNK         0.0851 
     82 H82        19.7098  -30.0320  -44.2726 H         1 UNK         0.0851 
     83 H83        21.4361  -30.2932  -44.4688 H         1 UNK         0.0851 
     84 H84        19.3455  -26.9171  -43.5041 H         1 UNK         0.2976 
     85 H85        19.1098  -26.5711  -40.6591 H         1 UNK         0.3116 
     86 H86        20.1294  -25.1685  -38.3845 H         1 UNK         0.0646 
     87 H87        19.2741  -23.1466  -39.6585 H         1 UNK         0.0847 
     88 H88        18.0852  -24.4256  -39.4887 H         1 UNK         0.0847 
     89 H89        18.9184  -24.2000  -41.0221 H         1 UNK         0.0847 
     90 H90        21.6296  -25.9648  -41.4043 H         1 UNK         0.3040 
     91 H91        23.7834  -23.9432  -41.1352 H         1 UNK         0.1015 
     92 H92        22.7836  -24.3663  -43.3982 H         1 UNK         0.0786 
     93 H93        23.2617  -26.0599  -43.2959 H         1 UNK         0.0786 
     94 H94        24.4824  -24.7994  -43.3488 H         1 UNK         0.0786 
     95 H95        23.0812  -26.8999  -39.7746 H         1 UNK         0.3172 
     96 H96        24.1248  -28.4789  -38.6971 H         1 UNK         0.0595 
     97 H97        26.7132  -26.8552  -38.8821 H         1 UNK         0.0839 
     98 H98        26.3520  -28.1293  -37.7304 H         1 UNK         0.0839 
     99 H99        25.4580  -26.6214  -37.6652 H         1 UNK         0.0839 
    100 H100       24.1788  -28.4317  -41.7389 H         1 UNK         0.2998 
    101 H101       26.3199  -30.3944  -42.3596 H         1 UNK         0.0822 
    102 H102       24.1094  -29.1660  -44.1034 H         1 UNK         0.0787 
    103 H103       25.7908  -28.6435  -44.0497 H         1 UNK         0.0787 
    104 H104       25.3862  -30.2374  -44.6663 H         1 UNK         0.0787 
    105 H105       22.8524  -30.1214  -41.8768 H         1 UNK         0.3055 
    106 H106       21.1521  -31.4910  -41.5485 H         1 UNK         0.1106 
    107 H107       23.2552  -33.3602  -40.3359 H         1 UNK         0.0828 
    108 H108       22.5397  -31.9715  -39.5168 H         1 UNK         0.0828 
    109 H109       21.5390  -33.3433  -39.9514 H         1 UNK         0.0828 
    110 H110       22.6508  -31.9895  -44.1432 H         1 UNK         0.2931 
    111 H111       22.4737  -33.1869  -45.9760 H         1 UNK         0.0412 
    112 H112       24.1699  -34.2208  -43.6821 H         1 UNK         0.3472 
    113 H113       24.4911  -35.8711  -44.1652 H         1 UNK         0.3472 
    114 H114       20.4848  -34.7162  -46.3947 H         1 UNK         0.0970 
    115 H115       19.9740  -34.4490  -44.7509 H         1 UNK         0.0970 
    116 H116       17.3343  -32.6377  -46.5248 H         1 UNK         0.0612 
    117 H117       17.8230  -33.7671  -45.2977 H         1 UNK         0.0612 
@<TRIPOS>BOND
     1    1    2 1    
     2    1   62 1    
     3    1   63 1    
     4    1   64 1    
     5    2    3 2    
     6    2    4 am   BACKBONE|DICT|INTERRES
     7    4    5 1    
     8    4   65 1    
     9    5    6 1    
    10    5   25 1    
    11    5   66 1    
    12    6    7 1    
    13    6   67 1    
    14    6   68 1    
    15    7    8 1    
    16    8    9 1    
    17    8   69 1    
    18    8   70 1    
    19    9   10 ar   
    20    9   14 ar   
    21   10   11 ar   
    22   10   71 1    
    23   11   12 ar   
    24   11   61 1    
    25   12   13 ar   
    26   12   72 1    
    27   13   14 ar   
    28   13   15 1    
    29   14   73 1    
    30   15   16 1    
    31   15   74 1    
    32   15   75 1    
    33   16   17 1    
    34   17   18 1    
    35   17   76 1    
    36   17   77 1    
    37   18   19 1    
    38   18   27 1    
    39   18   78 1    
    40   19   20 am   BACKBONE|DICT|INTERRES
    41   19   79 1    
    42   20   21 2    
    43   20   22 1    
    44   22   23 1    
    45   22   24 1    
    46   22   80 1    
    47   23   81 1    
    48   23   82 1    
    49   23   83 1    
    50   24   25 am   BACKBONE|DICT|INTERRES
    51   24   84 1    
    52   25   26 2    
    53   27   28 2    
    54   27   29 am   BACKBONE|DICT|INTERRES
    55   29   30 1    
    56   29   85 1    
    57   30   31 1    
    58   30   32 1    
    59   30   86 1    
    60   31   87 1    
    61   31   88 1    
    62   31   89 1    
    63   32   33 2    
    64   32   34 am   BACKBONE|DICT|INTERRES
    65   34   35 1    
    66   34   90 1    
    67   35   36 1    
    68   35   37 1    
    69   35   91 1    
    70   36   92 1    
    71   36   93 1    
    72   36   94 1    
    73   37   38 2    
    74   37   39 am   BACKBONE|DICT|INTERRES
    75   39   40 1    
    76   39   95 1    
    77   40   41 1    
    78   40   42 1    
    79   40   96 1    
    80   41   97 1    
    81   41   98 1    
    82   41   99 1    
    83   42   43 2    
    84   42   44 am   BACKBONE|DICT|INTERRES
    85   44   45 1    
    86   44  100 1    
    87   45   46 1    
    88   45   47 1    
    89   45  101 1    
    90   46  102 1    
    91   46  103 1    
    92   46  104 1    
    93   47   48 2    
    94   47   49 am   BACKBONE|DICT|INTERRES
    95   49   50 1    
    96   49  105 1    
    97   50   51 1    
    98   50   52 1    
    99   50  106 1    
   100   51  107 1    
   101   51  108 1    
   102   51  109 1    
   103   52   53 2    
   104   52   54 am   BACKBONE|DICT|INTERRES
   105   54   55 1    
   106   54  110 1    
   107   55   56 1    
   108   55   59 1    
   109   55  111 1    
   110   56   57 am   BACKBONE|DICT|INTERRES
   111   56   58 2    
   112   57  112 1    
   113   57  113 1    
   114   59   60 1    
   115   59  114 1    
   116   59  115 1    
   117   60   61 1    
   118   61  116 1    
   119   61  117 1    
@<TRIPOS>SUBSTRUCTURE
     1 UNK         1 GROUP             0       ****    0 ROOT    
