@<TRIPOS>MOLECULE
3R8
117   119    1
SMALL
USER_CHARGES


@<TRIPOS>ATOM
      1 CA         18.4363  -26.4239  -40.0975 C.3       0 UNK        -0.2013 
      2 C          18.3876  -26.5621  -41.6115 C.2       0 UNK         0.4866 
      3 O          19.3715  -27.0023  -42.2083 O.2       0 UNK        -0.5176 
      4 N          17.2582  -26.1845  -42.2314 N.am      1 UNK        -0.4884 
      5 CA         17.0112  -26.2180  -43.6820 C.3       1 UNK         0.0853 
      6 C6         17.1097  -27.6684  -44.2388 C.3       10 UNK        -0.0849 
      7 S7         16.2619  -27.9494  -45.8356 S.3       10 UNK        -0.2776 
      8 C8         16.2436  -29.7718  -45.9628 C.3       10 UNK         0.0316 
      9 C9         17.5166  -30.4174  -45.4291 C.ar      10 UNK        -0.0863 
     10 C10        17.4686  -31.1885  -44.2655 C.ar      10 UNK        -0.1009 
     11 C11        18.6314  -31.7529  -43.7364 C.ar      10 UNK        -0.0712 
     12 C12        19.8548  -31.5328  -44.3775 C.ar      10 UNK        -0.0894 
     13 C13        19.9188  -30.7732  -45.5514 C.ar      10 UNK        -0.0745 
     14 C14        18.7402  -30.2303  -46.0794 C.ar      10 UNK        -0.0972 
     15 C15        21.2576  -30.6007  -46.2657 C.3       10 UNK         0.0209 
     16 S16        21.5466  -28.9202  -46.9133 S.3       10 UNK        -0.2568 
     17 C17        21.9419  -27.9978  -45.3919 C.3       10 UNK        -0.0983 
     18 CA         21.9080  -26.4683  -45.6352 C.3       3 UNK         0.0876 
     19 N          20.5647  -26.0165  -46.0046 N.am      3 UNK        -0.4424 
     20 C          20.2558  -24.8199  -46.5219 C.2       2 UNK         0.4918 
     21 O          21.0895  -23.9723  -46.8408 O.2       2 UNK        -0.4875 
     22 CA         18.7560  -24.5071  -46.6852 C.3       2 UNK         0.0481 
     23 CB         18.3121  -24.7552  -48.1352 C.3       2 UNK        -0.1831 
     24 N          17.9019  -25.2851  -45.7803 N.am      2 UNK        -0.4498 
     25 C          17.8995  -25.1991  -44.4431 C.2       1 UNK         0.5027 
     26 O          18.5730  -24.3684  -43.8270 O.2       1 UNK        -0.4969 
     27 C          22.4750  -25.7087  -44.4156 C.2       3 UNK         0.5005 
     28 O          23.6976  -25.6423  -44.2797 O.2       3 UNK        -0.5279 
     29 N          21.5927  -25.1445  -43.5714 N.am      4 UNK        -0.4463 
     30 CA         21.8832  -24.4560  -42.3089 C.3       4 UNK         0.0283 
     31 CB         22.6585  -23.1439  -42.5535 C.3       4 UNK        -0.1875 
     32 C          22.5677  -25.3943  -41.2978 C.2       4 UNK         0.4949 
     33 O          23.6166  -25.0563  -40.7459 O.2       4 UNK        -0.5039 
     34 N          21.9456  -26.5646  -41.0949 N.am      5 UNK        -0.4663 
     35 CA         22.4117  -27.6942  -40.2875 C.3       5 UNK         0.0242 
     36 CB         22.4862  -27.3058  -38.7914 C.3       5 UNK        -0.1982 
     37 C          23.7060  -28.3082  -40.8625 C.2       5 UNK         0.5017 
     38 O          23.8254  -28.4164  -42.0846 O.2       5 UNK        -0.5012 
     39 N          24.6292  -28.7206  -39.9801 N.am      6 UNK        -0.4439 
     40 CA         25.9396  -29.3185  -40.2715 C.3       6 UNK         0.0297 
     41 CB         26.8758  -28.2771  -40.9219 C.3       6 UNK        -0.2006 
     42 C          25.8655  -30.6375  -41.0712 C.2       6 UNK         0.4892 
     43 O          26.7500  -30.9109  -41.8855 O.2       6 UNK        -0.5089 
     44 N          24.8247  -31.4384  -40.8170 N.am      7 UNK        -0.4243 
     45 CA         24.5938  -32.7442  -41.4318 C.3       7 UNK         0.0196 
     46 CB         23.7923  -32.5609  -42.7403 C.3       7 UNK        -0.2007 
     47 C          23.9111  -33.6436  -40.3901 C.2       7 UNK         0.5020 
     48 O          24.2697  -33.5823  -39.2124 O.2       7 UNK        -0.5147 
     49 N          22.9153  -34.4359  -40.8138 N.am      8 UNK        -0.4734 
     50 CA         21.9744  -35.1150  -39.9115 C.3       8 UNK         0.0238 
     51 CB         21.1370  -36.1294  -40.7073 C.3       8 UNK        -0.1912 
     52 C          21.0623  -34.1101  -39.1806 C.2       8 UNK         0.5038 
     53 O          20.6943  -34.3400  -38.0283 O.2       8 UNK        -0.5046 
     54 N          20.7553  -33.0037  -39.8678 N.am      9 UNK        -0.4200 
     55 CA         20.1632  -31.7853  -39.3130 C.3       9 UNK         0.0839 
     56 C          21.2482  -30.9592  -38.5767 C.2       9 UNK         0.5513 
     57 N          20.9164  -30.3820  -37.4310 N.am      9 UNK        -0.7519 
     58 O          22.3697  -30.8061  -39.0585 O.2       9 UNK        -0.4960 
     59 C59        19.4820  -30.9452  -40.4253 C.3       10 UNK        -0.0876 
     60 S60        17.9621  -31.7519  -41.0283 S.3       10 UNK        -0.2414 
     61 C61        18.5446  -32.6446  -42.5061 C.3       10 UNK         0.0169 
     62 H62        18.6706  -27.3851  -39.6411 H         1 UNK         0.0903 
     63 H63        17.4882  -26.0759  -39.6880 H         1 UNK         0.0903 
     64 H64        19.2120  -25.7141  -39.8115 H         1 UNK         0.0903 
     65 H65        16.5057  -25.7951  -41.6800 H         1 UNK         0.3096 
     66 H66        15.9836  -25.8746  -43.8131 H         1 UNK         0.1121 
     67 H67        16.6668  -28.3598  -43.5196 H         1 UNK         0.0849 
     68 H68        18.1544  -27.9711  -44.3315 H         1 UNK         0.0849 
     69 H69        15.3701  -30.1473  -45.4274 H         1 UNK         0.0865 
     70 H70        16.1033  -30.0551  -47.0068 H         1 UNK         0.0865 
     71 H71        16.5245  -31.3510  -43.7634 H         1 UNK         0.1346 
     72 H72        20.7555  -31.9769  -43.9779 H         1 UNK         0.1412 
     73 H73        18.7736  -29.6463  -46.9889 H         1 UNK         0.1426 
     74 H74        22.0865  -30.8676  -45.6079 H         1 UNK         0.0716 
     75 H75        21.2900  -31.3015  -47.1008 H         1 UNK         0.0716 
     76 H76        22.9307  -28.3170  -45.0555 H         1 UNK         0.0695 
     77 H77        21.2414  -28.2793  -44.6024 H         1 UNK         0.0695 
     78 H78        22.5720  -26.2424  -46.4729 H         1 UNK         0.0983 
     79 H79        19.8144  -26.6624  -45.8124 H         1 UNK         0.3095 
     80 H80        18.6119  -23.4492  -46.4569 H         1 UNK         0.0454 
     81 H81        17.2715  -24.4682  -48.2871 H         1 UNK         0.0851 
     82 H82        18.4163  -25.8040  -48.4164 H         1 UNK         0.0851 
     83 H83        18.9126  -24.1697  -48.8328 H         1 UNK         0.0851 
     84 H84        17.3189  -25.9985  -46.2028 H         1 UNK         0.2976 
     85 H85        20.6055  -25.2499  -43.7758 H         1 UNK         0.3116 
     86 H86        20.9164  -24.1902  -41.8784 H         1 UNK         0.0646 
     87 H87        22.1352  -22.5009  -43.2610 H         1 UNK         0.0847 
     88 H88        22.7717  -22.5818  -41.6259 H         1 UNK         0.0847 
     89 H89        23.6598  -23.3278  -42.9437 H         1 UNK         0.0847 
     90 H90        21.0919  -26.7401  -41.6238 H         1 UNK         0.3040 
     91 H91        21.6474  -28.4651  -40.3917 H         1 UNK         0.1015 
     92 H92        23.2728  -26.5769  -38.5939 H         1 UNK         0.0786 
     93 H93        22.6767  -28.1732  -38.1604 H         1 UNK         0.0786 
     94 H94        21.5439  -26.8741  -38.4539 H         1 UNK         0.0786 
     95 H95        24.4035  -28.6240  -39.0000 H         1 UNK         0.3172 
     96 H96        26.3692  -29.5833  -39.3044 H         1 UNK         0.0595 
     97 H97        26.9314  -27.3658  -40.3266 H         1 UNK         0.0839 
     98 H98        26.5401  -28.0030  -41.9227 H         1 UNK         0.0839 
     99 H99        27.8912  -28.6643  -41.0142 H         1 UNK         0.0839 
    100 H100       24.1529  -31.1675  -40.1037 H         1 UNK         0.2998 
    101 H101       25.5518  -33.2131  -41.6662 H         1 UNK         0.0822 
    102 H102       23.6604  -33.5053  -43.2693 H         1 UNK         0.0787 
    103 H103       22.8070  -32.1328  -42.5529 H         1 UNK         0.0787 
    104 H104       24.3121  -31.8898  -43.4247 H         1 UNK         0.0787 
    105 H105       22.7143  -34.4747  -41.8029 H         1 UNK         0.3055 
    106 H106       22.5473  -35.6548  -39.1539 H         1 UNK         0.1106 
    107 H107       21.7690  -36.8796  -41.1827 H         1 UNK         0.0828 
    108 H108       20.4448  -36.6602  -40.0520 H         1 UNK         0.0828 
    109 H109       20.5431  -35.6473  -41.4847 H         1 UNK         0.0828 
    110 H110       21.1512  -32.9105  -40.7886 H         1 UNK         0.2931 
    111 H111       19.4026  -32.0743  -38.5842 H         1 UNK         0.0412 
    112 H112       19.9966  -30.5004  -37.0354 H         1 UNK         0.3472 
    113 H113       21.6065  -29.8415  -36.9350 H         1 UNK         0.3472 
    114 H114       19.1897  -29.9664  -40.0402 H         1 UNK         0.0970 
    115 H115       20.1623  -30.7487  -41.2563 H         1 UNK         0.0970 
    116 H116       19.5008  -33.1254  -42.3008 H         1 UNK         0.0612 
    117 H117       17.8423  -33.4527  -42.7152 H         1 UNK         0.0612 
@<TRIPOS>BOND
     1    1    2 1    
     2    1   62 1    
     3    1   63 1    
     4    1   64 1    
     5    2    3 2    
     6    2    4 am   BACKBONE|DICT|INTERRES
     7    4    5 1    
     8    4   65 1    
     9    5    6 1    
    10    5   25 1    
    11    5   66 1    
    12    6    7 1    
    13    6   67 1    
    14    6   68 1    
    15    7    8 1    
    16    8    9 1    
    17    8   69 1    
    18    8   70 1    
    19    9   10 ar   
    20    9   14 ar   
    21   10   11 ar   
    22   10   71 1    
    23   11   12 ar   
    24   11   61 1    
    25   12   13 ar   
    26   12   72 1    
    27   13   14 ar   
    28   13   15 1    
    29   14   73 1    
    30   15   16 1    
    31   15   74 1    
    32   15   75 1    
    33   16   17 1    
    34   17   18 1    
    35   17   76 1    
    36   17   77 1    
    37   18   19 1    
    38   18   27 1    
    39   18   78 1    
    40   19   20 am   BACKBONE|DICT|INTERRES
    41   19   79 1    
    42   20   21 2    
    43   20   22 1    
    44   22   23 1    
    45   22   24 1    
    46   22   80 1    
    47   23   81 1    
    48   23   82 1    
    49   23   83 1    
    50   24   25 am   BACKBONE|DICT|INTERRES
    51   24   84 1    
    52   25   26 2    
    53   27   28 2    
    54   27   29 am   BACKBONE|DICT|INTERRES
    55   29   30 1    
    56   29   85 1    
    57   30   31 1    
    58   30   32 1    
    59   30   86 1    
    60   31   87 1    
    61   31   88 1    
    62   31   89 1    
    63   32   33 2    
    64   32   34 am   BACKBONE|DICT|INTERRES
    65   34   35 1    
    66   34   90 1    
    67   35   36 1    
    68   35   37 1    
    69   35   91 1    
    70   36   92 1    
    71   36   93 1    
    72   36   94 1    
    73   37   38 2    
    74   37   39 am   BACKBONE|DICT|INTERRES
    75   39   40 1    
    76   39   95 1    
    77   40   41 1    
    78   40   42 1    
    79   40   96 1    
    80   41   97 1    
    81   41   98 1    
    82   41   99 1    
    83   42   43 2    
    84   42   44 am   BACKBONE|DICT|INTERRES
    85   44   45 1    
    86   44  100 1    
    87   45   46 1    
    88   45   47 1    
    89   45  101 1    
    90   46  102 1    
    91   46  103 1    
    92   46  104 1    
    93   47   48 2    
    94   47   49 am   BACKBONE|DICT|INTERRES
    95   49   50 1    
    96   49  105 1    
    97   50   51 1    
    98   50   52 1    
    99   50  106 1    
   100   51  107 1    
   101   51  108 1    
   102   51  109 1    
   103   52   53 2    
   104   52   54 am   BACKBONE|DICT|INTERRES
   105   54   55 1    
   106   54  110 1    
   107   55   56 1    
   108   55   59 1    
   109   55  111 1    
   110   56   57 am   BACKBONE|DICT|INTERRES
   111   56   58 2    
   112   57  112 1    
   113   57  113 1    
   114   59   60 1    
   115   59  114 1    
   116   59  115 1    
   117   60   61 1    
   118   61  116 1    
   119   61  117 1    
@<TRIPOS>SUBSTRUCTURE
     1 UNK         1 GROUP             0       ****    0 ROOT    
