@<TRIPOS>MOLECULE
3R8
117   119    1
SMALL
USER_CHARGES


@<TRIPOS>ATOM
      1 CA         13.9901  -23.6625  -46.2828 C.3       0 UNK        -0.2013 
      2 C          14.7204  -24.5592  -45.2942 C.2       0 UNK         0.4866 
      3 O          14.3061  -24.6545  -44.1389 O.2       0 UNK        -0.5176 
      4 N          15.8061  -25.2069  -45.7421 N.am      1 UNK        -0.4884 
      5 CA         16.6495  -26.1405  -44.9749 C.3       1 UNK         0.0853 
      6 C6         15.9136  -27.4469  -44.5642 C.3       10 UNK        -0.0849 
      7 S7         15.4288  -28.4181  -46.0327 S.3       10 UNK        -0.2776 
      8 C8         15.9113  -30.1156  -45.5513 C.3       10 UNK         0.0316 
      9 C9         17.4020  -30.3505  -45.2873 C.ar      10 UNK        -0.0863 
     10 C10        17.7715  -31.4745  -44.5420 C.ar      10 UNK        -0.1009 
     11 C11        19.1150  -31.7546  -44.2790 C.ar      10 UNK        -0.0712 
     12 C12        20.1024  -30.8854  -44.7520 C.ar      10 UNK        -0.0894 
     13 C13        19.7565  -29.7603  -45.5065 C.ar      10 UNK        -0.0745 
     14 C14        18.4075  -29.5097  -45.7842 C.ar      10 UNK        -0.0972 
     15 C15        20.8417  -28.8565  -46.0814 C.3       10 UNK         0.0209 
     16 S16        20.6345  -27.1076  -45.6119 S.3       10 UNK        -0.2568 
     17 C17        21.6066  -26.9808  -44.0714 C.3       10 UNK        -0.0983 
     18 CA         21.7290  -25.4994  -43.6245 C.3       3 UNK         0.0876 
     19 N          20.4161  -24.9541  -43.2848 N.am      3 UNK        -0.4424 
     20 C          20.0566  -23.6692  -43.3426 C.2       2 UNK         0.4918 
     21 O          20.8218  -22.7558  -43.6578 O.2       2 UNK        -0.4875 
     22 CA         18.5668  -23.3819  -43.0596 C.3       2 UNK         0.0481 
     23 CB         18.2105  -21.8905  -43.1999 C.3       2 UNK        -0.1831 
     24 N          17.7074  -24.1645  -43.9551 N.am      2 UNK        -0.4498 
     25 C          17.3941  -25.4606  -43.8029 C.2       1 UNK         0.5027 
     26 O          17.7328  -26.1178  -42.8164 O.2       1 UNK        -0.4969 
     27 C          22.7212  -25.3154  -42.4575 C.2       3 UNK         0.5005 
     28 O          22.3053  -25.0799  -41.3191 O.2       3 UNK        -0.5279 
     29 N          24.0204  -25.4179  -42.7723 N.am      4 UNK        -0.4463 
     30 CA         25.1331  -25.3321  -41.8222 C.3       4 UNK         0.0283 
     31 CB         26.3622  -24.7404  -42.5436 C.3       4 UNK        -0.1875 
     32 C          25.3864  -26.7063  -41.1704 C.2       4 UNK         0.4949 
     33 O          24.4608  -27.2841  -40.6027 O.2       4 UNK        -0.5039 
     34 N          26.6138  -27.2386  -41.2750 N.am      5 UNK        -0.4663 
     35 CA         27.0169  -28.5424  -40.7237 C.3       5 UNK         0.0242 
     36 CB         28.5159  -28.7619  -40.9827 C.3       5 UNK        -0.1982 
     37 C          26.1978  -29.7337  -41.2574 C.2       5 UNK         0.5017 
     38 O          26.0276  -30.7229  -40.5448 O.2       5 UNK        -0.5012 
     39 N          25.6642  -29.5936  -42.4791 N.am      6 UNK        -0.4439 
     40 CA         24.7500  -30.5386  -43.1217 C.3       6 UNK         0.0297 
     41 CB         24.5571  -30.1340  -44.5923 C.3       6 UNK        -0.2006 
     42 C          23.3879  -30.6898  -42.4152 C.2       6 UNK         0.4892 
     43 O          22.7192  -31.6931  -42.6565 O.2       6 UNK        -0.5089 
     44 N          23.0037  -29.7347  -41.5494 N.am      7 UNK        -0.4243 
     45 CA         21.7783  -29.7934  -40.7410 C.3       7 UNK         0.0196 
     46 CB         21.4825  -28.4135  -40.1341 C.3       7 UNK        -0.2007 
     47 C          21.8090  -30.8682  -39.6374 C.2       7 UNK         0.5020 
     48 O          20.7608  -31.1677  -39.0639 O.2       7 UNK        -0.5147 
     49 N          22.9791  -31.4658  -39.3682 N.am      8 UNK        -0.4734 
     50 CA         23.1234  -32.6916  -38.5802 C.3       8 UNK         0.0238 
     51 CB         24.5663  -32.7797  -38.0500 C.3       8 UNK        -0.1912 
     52 C          22.7282  -33.9091  -39.4410 C.2       8 UNK         0.5038 
     53 O          23.5893  -34.7062  -39.8181 O.2       8 UNK        -0.5046 
     54 N          21.4351  -33.9878  -39.7797 N.am      9 UNK        -0.4200 
     55 CA         20.8483  -34.9502  -40.7258 C.3       9 UNK         0.0839 
     56 C          20.8759  -36.4383  -40.2691 C.2       9 UNK         0.5513 
     57 N          21.1080  -36.7423  -38.9977 N.am      9 UNK        -0.7519 
     58 O          20.6802  -37.3330  -41.0876 O.2       9 UNK        -0.4960 
     59 C59        19.4094  -34.5427  -41.1461 C.3       10 UNK        -0.0876 
     60 S60        19.2543  -32.8175  -41.7296 S.3       10 UNK        -0.2414 
     61 C61        19.4893  -33.0197  -43.5195 C.3       10 UNK         0.0169 
     62 H62        14.4610  -23.6680  -47.2657 H         1 UNK         0.0903 
     63 H63        12.9594  -23.9962  -46.3998 H         1 UNK         0.0903 
     64 H64        13.9765  -22.6355  -45.9189 H         1 UNK         0.0903 
     65 H65        16.0800  -25.0841  -46.7078 H         1 UNK         0.3096 
     66 H66        17.4537  -26.4303  -45.6531 H         1 UNK         0.1121 
     67 H67        15.0261  -27.2296  -43.9684 H         1 UNK         0.0849 
     68 H68        16.5505  -28.0696  -43.9338 H         1 UNK         0.0849 
     69 H69        15.3369  -30.3887  -44.6644 H         1 UNK         0.0865 
     70 H70        15.5939  -30.7969  -46.3418 H         1 UNK         0.0865 
     71 H71        17.0095  -32.1467  -44.1705 H         1 UNK         0.1346 
     72 H72        21.1425  -31.1028  -44.5572 H         1 UNK         0.1412 
     73 H73        18.1511  -28.6557  -46.3939 H         1 UNK         0.1426 
     74 H74        20.8027  -28.9264  -47.1692 H         1 UNK         0.0716 
     75 H75        21.8360  -29.1981  -45.7917 H         1 UNK         0.0716 
     76 H76        22.5912  -27.4121  -44.2537 H         1 UNK         0.0695 
     77 H77        21.1344  -27.5926  -43.3007 H         1 UNK         0.0695 
     78 H78        22.1223  -24.9222  -44.4651 H         1 UNK         0.0983 
     79 H79        19.7125  -25.6249  -42.9986 H         1 UNK         0.3095 
     80 H80        18.3677  -23.6749  -42.0266 H         1 UNK         0.0454 
     81 H81        18.3923  -21.5234  -44.2107 H         1 UNK         0.0851 
     82 H82        18.8068  -21.2813  -42.5194 H         1 UNK         0.0851 
     83 H83        17.1628  -21.7090  -42.9601 H         1 UNK         0.0851 
     84 H84        17.4108  -23.7086  -44.8061 H         1 UNK         0.2976 
     85 H85        24.2692  -25.6201  -43.7302 H         1 UNK         0.3116 
     86 H86        24.8632  -24.6470  -41.0157 H         1 UNK         0.0646 
     87 H87        26.7012  -25.3689  -43.3682 H         1 UNK         0.0847 
     88 H88        27.1988  -24.6035  -41.8570 H         1 UNK         0.0847 
     89 H89        26.1344  -23.7568  -42.9552 H         1 UNK         0.0847 
     90 H90        27.3288  -26.7087  -41.7530 H         1 UNK         0.3040 
     91 H91        26.8564  -28.5054  -39.6438 H         1 UNK         0.1015 
     92 H92        28.7441  -28.7781  -42.0493 H         1 UNK         0.0786 
     93 H93        28.8491  -29.7127  -40.5638 H         1 UNK         0.0786 
     94 H94        29.1182  -27.9793  -40.5209 H         1 UNK         0.0786 
     95 H95        25.8692  -28.7427  -42.9817 H         1 UNK         0.3172 
     96 H96        25.2270  -31.5208  -43.1021 H         1 UNK         0.0595 
     97 H97        23.8794  -30.8206  -45.1019 H         1 UNK         0.0839 
     98 H98        25.5017  -30.1553  -45.1361 H         1 UNK         0.0839 
     99 H99        24.1391  -29.1325  -44.6863 H         1 UNK         0.0839 
    100 H100       23.6177  -28.9455  -41.3708 H         1 UNK         0.2998 
    101 H101       20.9542  -30.0501  -41.4108 H         1 UNK         0.0822 
    102 H102       20.5281  -28.4163  -39.6060 H         1 UNK         0.0787 
    103 H103       22.2482  -28.1150  -39.4175 H         1 UNK         0.0787 
    104 H104       21.4219  -27.6435  -40.9013 H         1 UNK         0.0787 
    105 H105       23.7962  -31.1713  -39.8885 H         1 UNK         0.3055 
    106 H106       22.4503  -32.6553  -37.7204 H         1 UNK         0.1106 
    107 H107       25.2950  -32.8168  -38.8609 H         1 UNK         0.0828 
    108 H108       24.8107  -31.9233  -37.4215 H         1 UNK         0.0828 
    109 H109       24.7053  -33.6766  -37.4451 H         1 UNK         0.0828 
    110 H110       20.8216  -33.2424  -39.4711 H         1 UNK         0.2931 
    111 H111       21.4677  -34.9042  -41.6238 H         1 UNK         0.0412 
    112 H112       21.2727  -36.0146  -38.3209 H         1 UNK         0.3472 
    113 H113       21.1254  -37.7098  -38.7149 H         1 UNK         0.3472 
    114 H114       18.7295  -34.6609  -40.3003 H         1 UNK         0.0970 
    115 H115       19.0331  -35.2131  -41.9212 H         1 UNK         0.0970 
    116 H116       18.8770  -33.8479  -43.8793 H         1 UNK         0.0612 
    117 H117       20.5278  -33.2932  -43.7130 H         1 UNK         0.0612 
@<TRIPOS>BOND
     1    1    2 1    
     2    1   62 1    
     3    1   63 1    
     4    1   64 1    
     5    2    3 2    
     6    2    4 am   BACKBONE|DICT|INTERRES
     7    4    5 1    
     8    4   65 1    
     9    5    6 1    
    10    5   25 1    
    11    5   66 1    
    12    6    7 1    
    13    6   67 1    
    14    6   68 1    
    15    7    8 1    
    16    8    9 1    
    17    8   69 1    
    18    8   70 1    
    19    9   10 ar   
    20    9   14 ar   
    21   10   11 ar   
    22   10   71 1    
    23   11   12 ar   
    24   11   61 1    
    25   12   13 ar   
    26   12   72 1    
    27   13   14 ar   
    28   13   15 1    
    29   14   73 1    
    30   15   16 1    
    31   15   74 1    
    32   15   75 1    
    33   16   17 1    
    34   17   18 1    
    35   17   76 1    
    36   17   77 1    
    37   18   19 1    
    38   18   27 1    
    39   18   78 1    
    40   19   20 am   BACKBONE|DICT|INTERRES
    41   19   79 1    
    42   20   21 2    
    43   20   22 1    
    44   22   23 1    
    45   22   24 1    
    46   22   80 1    
    47   23   81 1    
    48   23   82 1    
    49   23   83 1    
    50   24   25 am   BACKBONE|DICT|INTERRES
    51   24   84 1    
    52   25   26 2    
    53   27   28 2    
    54   27   29 am   BACKBONE|DICT|INTERRES
    55   29   30 1    
    56   29   85 1    
    57   30   31 1    
    58   30   32 1    
    59   30   86 1    
    60   31   87 1    
    61   31   88 1    
    62   31   89 1    
    63   32   33 2    
    64   32   34 am   BACKBONE|DICT|INTERRES
    65   34   35 1    
    66   34   90 1    
    67   35   36 1    
    68   35   37 1    
    69   35   91 1    
    70   36   92 1    
    71   36   93 1    
    72   36   94 1    
    73   37   38 2    
    74   37   39 am   BACKBONE|DICT|INTERRES
    75   39   40 1    
    76   39   95 1    
    77   40   41 1    
    78   40   42 1    
    79   40   96 1    
    80   41   97 1    
    81   41   98 1    
    82   41   99 1    
    83   42   43 2    
    84   42   44 am   BACKBONE|DICT|INTERRES
    85   44   45 1    
    86   44  100 1    
    87   45   46 1    
    88   45   47 1    
    89   45  101 1    
    90   46  102 1    
    91   46  103 1    
    92   46  104 1    
    93   47   48 2    
    94   47   49 am   BACKBONE|DICT|INTERRES
    95   49   50 1    
    96   49  105 1    
    97   50   51 1    
    98   50   52 1    
    99   50  106 1    
   100   51  107 1    
   101   51  108 1    
   102   51  109 1    
   103   52   53 2    
   104   52   54 am   BACKBONE|DICT|INTERRES
   105   54   55 1    
   106   54  110 1    
   107   55   56 1    
   108   55   59 1    
   109   55  111 1    
   110   56   57 am   BACKBONE|DICT|INTERRES
   111   56   58 2    
   112   57  112 1    
   113   57  113 1    
   114   59   60 1    
   115   59  114 1    
   116   59  115 1    
   117   60   61 1    
   118   61  116 1    
   119   61  117 1    
@<TRIPOS>SUBSTRUCTURE
     1 UNK         1 GROUP             0       ****    0 ROOT    
