@<TRIPOS>MOLECULE
3R8
117   119    1
SMALL
USER_CHARGES


@<TRIPOS>ATOM
      1 CA         22.8272  -24.5854  -49.4448 C.3       0 UNK        -0.2013 
      2 C          23.0614  -25.1719  -48.0605 C.2       0 UNK         0.4866 
      3 O          23.8984  -24.6619  -47.3161 O.2       0 UNK        -0.5176 
      4 N          22.3352  -26.2448  -47.7182 N.am      1 UNK        -0.4884 
      5 CA         22.3854  -26.9204  -46.4165 C.3       1 UNK         0.0853 
      6 C6         21.7441  -28.3377  -46.5036 C.3       10 UNK        -0.0849 
      7 S7         21.3319  -29.1396  -44.9107 S.3       10 UNK        -0.2776 
      8 C8         19.5528  -29.4919  -45.1305 C.3       10 UNK         0.0316 
      9 C9         18.9001  -30.0970  -43.8902 C.ar      10 UNK        -0.0863 
     10 C10        19.5487  -31.0902  -43.1496 C.ar      10 UNK        -0.1009 
     11 C11        18.9604  -31.6277  -42.0034 C.ar      10 UNK        -0.0712 
     12 C12        17.6914  -31.1930  -41.6121 C.ar      10 UNK        -0.0894 
     13 C13        17.0167  -30.2183  -42.3547 C.ar      10 UNK        -0.0745 
     14 C14        17.6265  -29.6745  -43.4912 C.ar      10 UNK        -0.0972 
     15 C15        15.6240  -29.7683  -41.9312 C.3       10 UNK         0.0209 
     16 S16        15.6761  -28.4690  -40.6527 S.3       10 UNK        -0.2568 
     17 C17        16.0653  -26.9817  -41.6358 C.3       10 UNK        -0.0983 
     18 CA         17.5810  -26.6673  -41.6334 C.3       3 UNK         0.0876 
     19 N          18.0046  -26.0340  -42.8853 N.am      3 UNK        -0.4424 
     20 C          19.2809  -25.9697  -43.2806 C.2       2 UNK         0.4918 
     21 O          20.1953  -26.5370  -42.6800 O.2       2 UNK        -0.4875 
     22 CA         19.5637  -25.0925  -44.5156 C.3       2 UNK         0.0481 
     23 CB         20.0452  -23.6889  -44.0998 C.3       2 UNK        -0.1831 
     24 N          20.4798  -25.7281  -45.4697 N.am      2 UNK        -0.4498 
     25 C          21.7803  -26.0260  -45.3139 C.2       1 UNK         0.5027 
     26 O          22.4922  -25.6466  -44.3827 O.2       1 UNK        -0.4969 
     27 C          18.0215  -25.8120  -40.4244 C.2       3 UNK         0.5005 
     28 O          18.2973  -24.6192  -40.5811 O.2       3 UNK        -0.5279 
     29 N          18.1473  -26.4510  -39.2543 N.am      4 UNK        -0.4463 
     30 CA         18.7535  -25.9544  -38.0074 C.3       4 UNK         0.0283 
     31 CB         18.1050  -24.6494  -37.5040 C.3       4 UNK        -0.1875 
     32 C          20.2893  -25.8391  -38.0771 C.2       4 UNK         0.4949 
     33 O          20.9517  -26.1942  -37.1023 O.2       4 UNK        -0.5039 
     34 N          20.8376  -25.4120  -39.2256 N.am      5 UNK        -0.4663 
     35 CA         22.2537  -25.5774  -39.5754 C.3       5 UNK         0.0242 
     36 CB         22.6070  -24.7179  -40.7991 C.3       5 UNK        -0.1982 
     37 C          22.5784  -27.0642  -39.8075 C.2       5 UNK         0.5017 
     38 O          23.5398  -27.5692  -39.2275 O.2       5 UNK        -0.5012 
     39 N          21.7045  -27.7426  -40.5699 N.am      6 UNK        -0.4439 
     40 CA         21.5317  -29.1973  -40.6422 C.3       6 UNK         0.0297 
     41 CB         21.0111  -29.7214  -39.2843 C.3       6 UNK        -0.2006 
     42 C          22.7722  -29.9587  -41.1500 C.2       6 UNK         0.4892 
     43 O          23.0986  -31.0262  -40.6278 O.2       6 UNK        -0.5089 
     44 N          23.4454  -29.3907  -42.1587 N.am      7 UNK        -0.4243 
     45 CA         24.7049  -29.8921  -42.7136 C.3       7 UNK         0.0196 
     46 CB         25.2757  -28.8476  -43.6866 C.3       7 UNK        -0.2007 
     47 C          24.5965  -31.2637  -43.4032 C.2       7 UNK         0.5020 
     48 O          25.4827  -32.1004  -43.2264 O.2       7 UNK        -0.5147 
     49 N          23.5293  -31.4695  -44.1879 N.am      8 UNK        -0.4734 
     50 CA         23.3531  -32.6424  -45.0551 C.3       8 UNK         0.0238 
     51 CB         22.2015  -32.3915  -46.0428 C.3       8 UNK        -0.1912 
     52 C          23.1401  -33.9737  -44.3148 C.2       8 UNK         0.5038 
     53 O          23.3933  -35.0242  -44.9068 O.2       8 UNK        -0.5046 
     54 N          22.6843  -33.9185  -43.0569 N.am      9 UNK        -0.4200 
     55 CA         22.4749  -35.1035  -42.2070 C.3       9 UNK         0.0839 
     56 C          23.7765  -35.6298  -41.5334 C.2       9 UNK         0.5513 
     57 N          24.9153  -34.9554  -41.6534 N.am      9 UNK        -0.7519 
     58 O          23.7537  -36.6788  -40.8948 O.2       9 UNK        -0.4960 
     59 C59        21.3403  -34.9043  -41.1656 C.3       10 UNK        -0.0876 
     60 S60        19.7856  -34.2825  -41.9032 S.3       10 UNK        -0.2414 
     61 C61        19.7376  -32.6254  -41.1625 C.3       10 UNK         0.0169 
     62 H62        22.4988  -23.5496  -49.3623 H         1 UNK         0.0903 
     63 H63        23.7515  -24.6046  -50.0216 H         1 UNK         0.0903 
     64 H64        22.0697  -25.1375  -50.0007 H         1 UNK         0.0903 
     65 H65        21.6740  -26.6174  -48.3851 H         1 UNK         0.3096 
     66 H66        23.4372  -27.0575  -46.1544 H         1 UNK         0.1121 
     67 H67        22.4174  -29.0018  -47.0475 H         1 UNK         0.0849 
     68 H68        20.8359  -28.2961  -47.1067 H         1 UNK         0.0849 
     69 H69        19.0472  -28.5645  -45.4036 H         1 UNK         0.0865 
     70 H70        19.4232  -30.1803  -45.9666 H         1 UNK         0.0865 
     71 H71        20.5300  -31.4314  -43.4449 H         1 UNK         0.1346 
     72 H72        17.2318  -31.6044  -40.7237 H         1 UNK         0.1412 
     73 H73        17.1074  -28.9174  -44.0630 H         1 UNK         0.1426 
     74 H74        15.0754  -30.6230  -41.5325 H         1 UNK         0.0716 
     75 H75        15.0504  -29.4230  -42.7927 H         1 UNK         0.0716 
     76 H76        15.7100  -27.1497  -42.6537 H         1 UNK         0.0695 
     77 H77        15.4806  -26.1398  -41.2598 H         1 UNK         0.0695 
     78 H78        18.1274  -27.6116  -41.5689 H         1 UNK         0.0983 
     79 H79        17.3056  -25.5004  -43.3806 H         1 UNK         0.3095 
     80 H80        18.6249  -24.9688  -45.0579 H         1 UNK         0.0454 
     81 H81        19.2944  -23.1878  -43.4874 H         1 UNK         0.0851 
     82 H82        20.9613  -23.7264  -43.5107 H         1 UNK         0.0851 
     83 H83        20.2307  -23.0582  -44.9690 H         1 UNK         0.0851 
     84 H84        20.0328  -26.0907  -46.2991 H         1 UNK         0.2976 
     85 H85        17.8775  -27.4259  -39.2319 H         1 UNK         0.3116 
     86 H86        18.5372  -26.7236  -37.2640 H         1 UNK         0.0646 
     87 H87        18.4598  -24.4063  -36.5017 H         1 UNK         0.0847 
     88 H88        17.0201  -24.7388  -37.4510 H         1 UNK         0.0847 
     89 H89        18.3425  -23.7968  -38.1402 H         1 UNK         0.0847 
     90 H90        20.2081  -25.0955  -39.9553 H         1 UNK         0.3040 
     91 H91        22.8570  -25.2317  -38.7328 H         1 UNK         0.1015 
     92 H92        22.4190  -23.6612  -40.6089 H         1 UNK         0.0786 
     93 H93        22.0356  -25.0049  -41.6807 H         1 UNK         0.0786 
     94 H94        23.6630  -24.8195  -41.0530 H         1 UNK         0.0786 
     95 H95        21.0457  -27.2040  -41.1293 H         1 UNK         0.3172 
     96 H96        20.7499  -29.3619  -41.3827 H         1 UNK         0.0595 
     97 H97        20.0875  -29.2200  -38.9958 H         1 UNK         0.0839 
     98 H98        21.7387  -29.5655  -38.4872 H         1 UNK         0.0839 
     99 H99        20.7997  -30.7883  -39.3130 H         1 UNK         0.0839 
    100 H100       23.0886  -28.5247  -42.5385 H         1 UNK         0.2998 
    101 H101       25.4060  -30.0008  -41.8832 H         1 UNK         0.0822 
    102 H102       26.2306  -29.1776  -44.0983 H         1 UNK         0.0787 
    103 H103       24.6029  -28.6679  -44.5260 H         1 UNK         0.0787 
    104 H104       25.4512  -27.8941  -43.1879 H         1 UNK         0.0787 
    105 H105       22.8512  -30.7229  -44.2826 H         1 UNK         0.3055 
    106 H106       24.2711  -32.7560  -45.6364 H         1 UNK         0.1106 
    107 H107       22.3857  -31.5079  -46.6532 H         1 UNK         0.0828 
    108 H108       22.0851  -33.2327  -46.7277 H         1 UNK         0.0828 
    109 H109       21.2480  -32.2585  -45.5322 H         1 UNK         0.0828 
    110 H110       22.5397  -33.0173  -42.6272 H         1 UNK         0.2931 
    111 H111       22.1427  -35.9141  -42.8588 H         1 UNK         0.0412 
    112 H112       25.7485  -35.3138  -41.2138 H         1 UNK         0.3472 
    113 H113       24.9547  -34.0921  -42.1786 H         1 UNK         0.3472 
    114 H114       21.6713  -34.2392  -40.3657 H         1 UNK         0.0970 
    115 H115       21.1124  -35.8542  -40.6784 H         1 UNK         0.0970 
    116 H116       19.3275  -32.6932  -40.1537 H         1 UNK         0.0612 
    117 H117       20.7571  -32.2572  -41.0612 H         1 UNK         0.0612 
@<TRIPOS>BOND
     1    1    2 1    
     2    1   62 1    
     3    1   63 1    
     4    1   64 1    
     5    2    3 2    
     6    2    4 am   BACKBONE|DICT|INTERRES
     7    4    5 1    
     8    4   65 1    
     9    5    6 1    
    10    5   25 1    
    11    5   66 1    
    12    6    7 1    
    13    6   67 1    
    14    6   68 1    
    15    7    8 1    
    16    8    9 1    
    17    8   69 1    
    18    8   70 1    
    19    9   10 ar   
    20    9   14 ar   
    21   10   11 ar   
    22   10   71 1    
    23   11   12 ar   
    24   11   61 1    
    25   12   13 ar   
    26   12   72 1    
    27   13   14 ar   
    28   13   15 1    
    29   14   73 1    
    30   15   16 1    
    31   15   74 1    
    32   15   75 1    
    33   16   17 1    
    34   17   18 1    
    35   17   76 1    
    36   17   77 1    
    37   18   19 1    
    38   18   27 1    
    39   18   78 1    
    40   19   20 am   BACKBONE|DICT|INTERRES
    41   19   79 1    
    42   20   21 2    
    43   20   22 1    
    44   22   23 1    
    45   22   24 1    
    46   22   80 1    
    47   23   81 1    
    48   23   82 1    
    49   23   83 1    
    50   24   25 am   BACKBONE|DICT|INTERRES
    51   24   84 1    
    52   25   26 2    
    53   27   28 2    
    54   27   29 am   BACKBONE|DICT|INTERRES
    55   29   30 1    
    56   29   85 1    
    57   30   31 1    
    58   30   32 1    
    59   30   86 1    
    60   31   87 1    
    61   31   88 1    
    62   31   89 1    
    63   32   33 2    
    64   32   34 am   BACKBONE|DICT|INTERRES
    65   34   35 1    
    66   34   90 1    
    67   35   36 1    
    68   35   37 1    
    69   35   91 1    
    70   36   92 1    
    71   36   93 1    
    72   36   94 1    
    73   37   38 2    
    74   37   39 am   BACKBONE|DICT|INTERRES
    75   39   40 1    
    76   39   95 1    
    77   40   41 1    
    78   40   42 1    
    79   40   96 1    
    80   41   97 1    
    81   41   98 1    
    82   41   99 1    
    83   42   43 2    
    84   42   44 am   BACKBONE|DICT|INTERRES
    85   44   45 1    
    86   44  100 1    
    87   45   46 1    
    88   45   47 1    
    89   45  101 1    
    90   46  102 1    
    91   46  103 1    
    92   46  104 1    
    93   47   48 2    
    94   47   49 am   BACKBONE|DICT|INTERRES
    95   49   50 1    
    96   49  105 1    
    97   50   51 1    
    98   50   52 1    
    99   50  106 1    
   100   51  107 1    
   101   51  108 1    
   102   51  109 1    
   103   52   53 2    
   104   52   54 am   BACKBONE|DICT|INTERRES
   105   54   55 1    
   106   54  110 1    
   107   55   56 1    
   108   55   59 1    
   109   55  111 1    
   110   56   57 am   BACKBONE|DICT|INTERRES
   111   56   58 2    
   112   57  112 1    
   113   57  113 1    
   114   59   60 1    
   115   59  114 1    
   116   59  115 1    
   117   60   61 1    
   118   61  116 1    
   119   61  117 1    
@<TRIPOS>SUBSTRUCTURE
     1 UNK         1 GROUP             0       ****    0 ROOT    
