@<TRIPOS>MOLECULE
3R8
117   119    1
SMALL
USER_CHARGES


@<TRIPOS>ATOM
      1 CA         16.2361  -24.8232  -47.2787 C.3       0 UNK        -0.2013 
      2 C          17.3944  -25.2782  -46.4054 C.2       0 UNK         0.4866 
      3 O          17.1690  -25.7920  -45.3099 O.2       0 UNK        -0.5176 
      4 N          18.6370  -25.0744  -46.8682 N.am      1 UNK        -0.4884 
      5 CA         19.9162  -25.5022  -46.2638 C.3       1 UNK         0.0853 
      6 C6         20.0102  -27.0429  -46.0638 C.3       10 UNK        -0.0849 
      7 S7         19.8065  -28.0177  -47.5949 S.3       10 UNK        -0.2776 
      8 C8         18.1401  -28.7498  -47.4074 C.3       10 UNK         0.0316 
      9 C9         17.9513  -29.5256  -46.1067 C.ar      10 UNK        -0.0863 
     10 C10        18.7997  -30.5881  -45.7820 C.ar      10 UNK        -0.1009 
     11 C11        18.6368  -31.2881  -44.5827 C.ar      10 UNK        -0.0712 
     12 C12        17.6090  -30.9269  -43.7064 C.ar      10 UNK        -0.0894 
     13 C13        16.7493  -29.8691  -44.0206 C.ar      10 UNK        -0.0745 
     14 C14        16.9217  -29.1787  -45.2251 C.ar      10 UNK        -0.0972 
     15 C15        15.6455  -29.4589  -43.0534 C.3       10 UNK         0.0209 
     16 S16        15.9351  -27.8104  -42.3260 S.3       10 UNK        -0.2568 
     17 C17        17.4521  -28.0819  -41.3489 C.3       10 UNK        -0.0983 
     18 CA         18.7310  -27.7308  -42.1552 C.3       3 UNK         0.0876 
     19 N          18.7665  -26.3314  -42.5938 N.am      3 UNK        -0.4424 
     20 C          19.3063  -25.2534  -41.9989 C.2       2 UNK         0.4918 
     21 O          19.8490  -25.2622  -40.8925 O.2       2 UNK        -0.4875 
     22 CA         19.2247  -23.9406  -42.8136 C.3       2 UNK         0.0481 
     23 CB         20.2340  -22.8585  -42.3774 C.3       2 UNK        -0.1831 
     24 N          19.2850  -24.1998  -44.2582 N.am      2 UNK        -0.4498 
     25 C          20.2790  -24.8014  -44.9308 C.2       1 UNK         0.5027 
     26 O          21.4331  -24.8864  -44.5104 O.2       1 UNK        -0.4969 
     27 C          20.0417  -28.1959  -41.4915 C.2       3 UNK         0.5005 
     28 O          21.0320  -28.3965  -42.1961 O.2       3 UNK        -0.5279 
     29 N          20.0352  -28.3253  -40.1557 N.am      4 UNK        -0.4463 
     30 CA         21.1369  -28.8233  -39.3259 C.3       4 UNK         0.0283 
     31 CB         20.6840  -28.8764  -37.8585 C.3       4 UNK        -0.1875 
     32 C          22.4702  -28.0638  -39.4532 C.2       4 UNK         0.4949 
     33 O          23.5052  -28.6194  -39.0818 O.2       4 UNK        -0.5039 
     34 N          22.4448  -26.8433  -40.0085 N.am      5 UNK        -0.4663 
     35 CA         23.6336  -26.0861  -40.4085 C.3       5 UNK         0.0242 
     36 CB         23.2013  -24.7136  -40.9403 C.3       5 UNK        -0.1982 
     37 C          24.4944  -26.8104  -41.4620 C.2       5 UNK         0.5017 
     38 O          25.7112  -26.6230  -41.4683 O.2       5 UNK        -0.5012 
     39 N          23.8756  -27.6601  -42.2964 N.am      6 UNK        -0.4439 
     40 CA         24.5420  -28.5106  -43.2865 C.3       6 UNK         0.0297 
     41 CB         23.5699  -28.7771  -44.4510 C.3       6 UNK        -0.2006 
     42 C          25.0934  -29.8103  -42.6606 C.2       6 UNK         0.4892 
     43 O          24.8944  -30.8895  -43.2188 O.2       6 UNK        -0.5089 
     44 N          25.7884  -29.6777  -41.5200 N.am      7 UNK        -0.4243 
     45 CA         26.4205  -30.7362  -40.7225 C.3       7 UNK         0.0196 
     46 CB         27.6156  -31.3497  -41.4835 C.3       7 UNK        -0.2007 
     47 C          25.4147  -31.7942  -40.2282 C.2       7 UNK         0.5020 
     48 O          25.6004  -32.9887  -40.4709 O.2       7 UNK        -0.5147 
     49 N          24.3562  -31.3285  -39.5499 N.am      8 UNK        -0.4734 
     50 CA         23.2397  -32.0790  -38.9536 C.3       8 UNK         0.0238 
     51 CB         23.7237  -33.1092  -37.9136 C.3       8 UNK        -0.1912 
     52 C          22.2838  -32.7188  -39.9761 C.2       8 UNK         0.5038 
     53 O          21.0749  -32.5350  -39.8428 O.2       8 UNK        -0.5046 
     54 N          22.8439  -33.4547  -40.9439 N.am      9 UNK        -0.4200 
     55 CA         22.2453  -34.1442  -42.1049 C.3       9 UNK         0.0839 
     56 C          20.9979  -35.0593  -41.9002 C.2       9 UNK         0.5513 
     57 N          20.3795  -35.1173  -40.7307 N.am      9 UNK        -0.7519 
     58 O          20.6107  -35.7741  -42.8213 O.2       9 UNK        -0.4960 
     59 C59        22.1342  -33.2335  -43.3588 C.3       10 UNK        -0.0876 
     60 S60        20.9663  -31.8371  -43.2203 S.3       10 UNK        -0.2414 
     61 C61        19.5795  -32.4288  -44.2356 C.3       10 UNK         0.0169 
     62 H62        15.6417  -24.0759  -46.7537 H         1 UNK         0.0903 
     63 H63        16.5780  -24.3886  -48.2177 H         1 UNK         0.0903 
     64 H64        15.5904  -25.6694  -47.5116 H         1 UNK         0.0903 
     65 H65        18.7403  -24.6134  -47.7623 H         1 UNK         0.3096 
     66 H66        20.6949  -25.2107  -46.9708 H         1 UNK         0.1121 
     67 H67        19.2919  -27.3760  -45.3157 H         1 UNK         0.0849 
     68 H68        20.9868  -27.3120  -45.6578 H         1 UNK         0.0849 
     69 H69        17.3953  -27.9592  -47.4975 H         1 UNK         0.0865 
     70 H70        17.9613  -29.4254  -48.2449 H         1 UNK         0.0865 
     71 H71        19.5994  -30.8588  -46.4580 H         1 UNK         0.1346 
     72 H72        17.4899  -31.4629  -42.7746 H         1 UNK         0.1412 
     73 H73        16.2634  -28.3531  -45.4607 H         1 UNK         0.1426 
     74 H74        14.6942  -29.4441  -43.5869 H         1 UNK         0.0716 
     75 H75        15.5344  -30.1911  -42.2520 H         1 UNK         0.0716 
     76 H76        17.4694  -29.1225  -41.0186 H         1 UNK         0.0695 
     77 H77        17.3839  -27.4682  -40.4491 H         1 UNK         0.0695 
     78 H78        18.6980  -28.3044  -43.0804 H         1 UNK         0.0983 
     79 H79        18.3109  -26.1751  -43.4859 H         1 UNK         0.3095 
     80 H80        18.2270  -23.5433  -42.6224 H         1 UNK         0.0454 
     81 H81        20.0486  -21.9197  -42.8985 H         1 UNK         0.0851 
     82 H82        21.2639  -23.1462  -42.5777 H         1 UNK         0.0851 
     83 H83        20.1548  -22.6540  -41.3092 H         1 UNK         0.0851 
     84 H84        18.3817  -24.2334  -44.7165 H         1 UNK         0.2976 
     85 H85        19.1880  -28.0788  -39.6649 H         1 UNK         0.3116 
     86 H86        21.3298  -29.8416  -39.6626 H         1 UNK         0.0646 
     87 H87        19.8195  -29.5285  -37.7322 H         1 UNK         0.0847 
     88 H88        21.4752  -29.2670  -37.2169 H         1 UNK         0.0847 
     89 H89        20.4203  -27.8871  -37.4826 H         1 UNK         0.0847 
     90 H90        21.5469  -26.4576  -40.2813 H         1 UNK         0.3040 
     91 H91        24.2502  -25.9396  -39.5191 H         1 UNK         0.1015 
     92 H92        22.6199  -24.8183  -41.8566 H         1 UNK         0.0786 
     93 H93        24.0673  -24.0920  -41.1720 H         1 UNK         0.0786 
     94 H94        22.5947  -24.1725  -40.2138 H         1 UNK         0.0786 
     95 H95        22.8720  -27.8027  -42.1933 H         1 UNK         0.3172 
     96 H96        25.3978  -27.9699  -43.6957 H         1 UNK         0.0595 
     97 H97        22.6955  -29.3420  -44.1249 H         1 UNK         0.0839 
     98 H98        24.0518  -29.3514  -45.2430 H         1 UNK         0.0839 
     99 H99        23.2216  -27.8447  -44.8946 H         1 UNK         0.0839 
    100 H100       25.8924  -28.7353  -41.1617 H         1 UNK         0.2998 
    101 H101       26.8164  -30.2524  -39.8283 H         1 UNK         0.0822 
    102 H102       28.1479  -32.0682  -40.8590 H         1 UNK         0.0787 
    103 H103       27.2970  -31.8763  -42.3838 H         1 UNK         0.0787 
    104 H104       28.3329  -30.5841  -41.7791 H         1 UNK         0.0787 
    105 H105       24.2724  -30.3185  -39.4469 H         1 UNK         0.3055 
    106 H106       22.6553  -31.3383  -38.4066 H         1 UNK         0.1106 
    107 H107       22.8770  -33.5720  -37.4050 H         1 UNK         0.0828 
    108 H108       24.3042  -33.9135  -38.3660 H         1 UNK         0.0828 
    109 H109       24.3419  -32.6391  -37.1489 H         1 UNK         0.0828 
    110 H110       23.8585  -33.5088  -40.9023 H         1 UNK         0.2931 
    111 H111       23.0223  -34.8683  -42.3537 H         1 UNK         0.0412 
    112 H112       19.5868  -35.7275  -40.6109 H         1 UNK         0.3472 
    113 H113       20.6082  -34.4237  -40.0290 H         1 UNK         0.3472 
    114 H114       21.8937  -33.8302  -44.2401 H         1 UNK         0.0970 
    115 H115       23.1149  -32.8081  -43.5736 H         1 UNK         0.0970 
    116 H116       19.9591  -32.8826  -45.1521 H         1 UNK         0.0612 
    117 H117       19.0458  -33.2135  -43.6973 H         1 UNK         0.0612 
@<TRIPOS>BOND
     1    1    2 1    
     2    1   62 1    
     3    1   63 1    
     4    1   64 1    
     5    2    3 2    
     6    2    4 am   BACKBONE|DICT|INTERRES
     7    4    5 1    
     8    4   65 1    
     9    5    6 1    
    10    5   25 1    
    11    5   66 1    
    12    6    7 1    
    13    6   67 1    
    14    6   68 1    
    15    7    8 1    
    16    8    9 1    
    17    8   69 1    
    18    8   70 1    
    19    9   10 ar   
    20    9   14 ar   
    21   10   11 ar   
    22   10   71 1    
    23   11   12 ar   
    24   11   61 1    
    25   12   13 ar   
    26   12   72 1    
    27   13   14 ar   
    28   13   15 1    
    29   14   73 1    
    30   15   16 1    
    31   15   74 1    
    32   15   75 1    
    33   16   17 1    
    34   17   18 1    
    35   17   76 1    
    36   17   77 1    
    37   18   19 1    
    38   18   27 1    
    39   18   78 1    
    40   19   20 am   BACKBONE|DICT|INTERRES
    41   19   79 1    
    42   20   21 2    
    43   20   22 1    
    44   22   23 1    
    45   22   24 1    
    46   22   80 1    
    47   23   81 1    
    48   23   82 1    
    49   23   83 1    
    50   24   25 am   BACKBONE|DICT|INTERRES
    51   24   84 1    
    52   25   26 2    
    53   27   28 2    
    54   27   29 am   BACKBONE|DICT|INTERRES
    55   29   30 1    
    56   29   85 1    
    57   30   31 1    
    58   30   32 1    
    59   30   86 1    
    60   31   87 1    
    61   31   88 1    
    62   31   89 1    
    63   32   33 2    
    64   32   34 am   BACKBONE|DICT|INTERRES
    65   34   35 1    
    66   34   90 1    
    67   35   36 1    
    68   35   37 1    
    69   35   91 1    
    70   36   92 1    
    71   36   93 1    
    72   36   94 1    
    73   37   38 2    
    74   37   39 am   BACKBONE|DICT|INTERRES
    75   39   40 1    
    76   39   95 1    
    77   40   41 1    
    78   40   42 1    
    79   40   96 1    
    80   41   97 1    
    81   41   98 1    
    82   41   99 1    
    83   42   43 2    
    84   42   44 am   BACKBONE|DICT|INTERRES
    85   44   45 1    
    86   44  100 1    
    87   45   46 1    
    88   45   47 1    
    89   45  101 1    
    90   46  102 1    
    91   46  103 1    
    92   46  104 1    
    93   47   48 2    
    94   47   49 am   BACKBONE|DICT|INTERRES
    95   49   50 1    
    96   49  105 1    
    97   50   51 1    
    98   50   52 1    
    99   50  106 1    
   100   51  107 1    
   101   51  108 1    
   102   51  109 1    
   103   52   53 2    
   104   52   54 am   BACKBONE|DICT|INTERRES
   105   54   55 1    
   106   54  110 1    
   107   55   56 1    
   108   55   59 1    
   109   55  111 1    
   110   56   57 am   BACKBONE|DICT|INTERRES
   111   56   58 2    
   112   57  112 1    
   113   57  113 1    
   114   59   60 1    
   115   59  114 1    
   116   59  115 1    
   117   60   61 1    
   118   61  116 1    
   119   61  117 1    
@<TRIPOS>SUBSTRUCTURE
     1 UNK         1 GROUP             0       ****    0 ROOT    
