@<TRIPOS>MOLECULE
3R8
117   119    1
SMALL
USER_CHARGES


@<TRIPOS>ATOM
      1 CA         19.4057  -26.9001  -38.9480 C.3       0 UNK        -0.2013 
      2 C          18.4006  -26.7333  -40.0782 C.2       0 UNK         0.4866 
      3 O          17.4771  -25.9265  -39.9646 O.2       0 UNK        -0.5176 
      4 N          18.5699  -27.4975  -41.1638 N.am      1 UNK        -0.4884 
      5 CA         17.7569  -27.4142  -42.3816 C.3       1 UNK         0.0853 
      6 C6         17.8263  -28.7461  -43.1669 C.3       10 UNK        -0.0849 
      7 S7         16.4086  -28.9966  -44.2918 S.3       10 UNK        -0.2776 
      8 C8         16.6549  -30.7311  -44.7961 C.3       10 UNK         0.0316 
      9 C9         18.0634  -30.9639  -45.3220 C.ar      10 UNK        -0.0863 
     10 C10        18.9849  -31.6853  -44.5601 C.ar      10 UNK        -0.1009 
     11 C11        20.3053  -31.8462  -44.9930 C.ar      10 UNK        -0.0712 
     12 C12        20.6927  -31.2738  -46.2107 C.ar      10 UNK        -0.0894 
     13 C13        19.7755  -30.5597  -46.9906 C.ar      10 UNK        -0.0745 
     14 C14        18.4578  -30.4212  -46.5460 C.ar      10 UNK        -0.0972 
     15 C15        20.2037  -29.9437  -48.3168 C.3       10 UNK         0.0209 
     16 S16        19.8863  -28.1498  -48.3926 S.3       10 UNK        -0.2568 
     17 C17        21.0650  -27.5237  -47.1520 C.3       10 UNK        -0.0983 
     18 CA         20.7800  -26.0493  -46.7726 C.3       3 UNK         0.0876 
     19 N          19.4571  -25.8914  -46.1561 N.am      3 UNK        -0.4424 
     20 C          18.8222  -24.7240  -45.9853 C.2       2 UNK         0.4918 
     21 O          19.2443  -23.6496  -46.4133 O.2       2 UNK        -0.4875 
     22 CA         17.5093  -24.7427  -45.1770 C.3       2 UNK         0.0481 
     23 CB         16.3026  -24.7105  -46.1283 C.3       2 UNK        -0.1831 
     24 N          17.3535  -25.8699  -44.2469 N.am      2 UNK        -0.4498 
     25 C          18.1851  -26.2085  -43.2505 C.2       1 UNK         0.5027 
     26 O          19.2596  -25.6389  -43.0394 O.2       1 UNK        -0.4969 
     27 C          21.9267  -25.4920  -45.8969 C.2       3 UNK         0.5005 
     28 O          23.0241  -25.2946  -46.4213 O.2       3 UNK        -0.5279 
     29 N          21.6711  -25.2602  -44.5965 N.am      4 UNK        -0.4463 
     30 CA         22.6131  -24.7835  -43.5753 C.3       4 UNK         0.0283 
     31 CB         23.0765  -23.3417  -43.8746 C.3       4 UNK        -0.1875 
     32 C          23.7817  -25.7603  -43.3390 C.2       4 UNK         0.4949 
     33 O          24.9170  -25.3311  -43.1250 O.2       4 UNK        -0.5039 
     34 N          23.4775  -27.0642  -43.3898 N.am      5 UNK        -0.4663 
     35 CA         24.4181  -28.1538  -43.1337 C.3       5 UNK         0.0242 
     36 CB         23.7745  -29.4811  -43.5699 C.3       5 UNK        -0.1982 
     37 C          24.8152  -28.2115  -41.6499 C.2       5 UNK         0.5017 
     38 O          23.9587  -28.0292  -40.7810 O.2       5 UNK        -0.5012 
     39 N          26.0931  -28.5070  -41.3835 N.am      6 UNK        -0.4439 
     40 CA         26.6498  -28.6872  -40.0405 C.3       6 UNK         0.0297 
     41 CB         28.1481  -28.3302  -40.0669 C.3       6 UNK        -0.2006 
     42 C          26.3878  -30.1183  -39.5357 C.2       6 UNK         0.4892 
     43 O          27.3299  -30.8866  -39.3320 O.2       6 UNK        -0.5089 
     44 N          25.1057  -30.4603  -39.3806 N.am      7 UNK        -0.4243 
     45 CA         24.6150  -31.7725  -38.9761 C.3       7 UNK         0.0196 
     46 CB         24.5866  -32.7124  -40.1974 C.3       7 UNK        -0.2007 
     47 C          23.2215  -31.6233  -38.3560 C.2       7 UNK         0.5020 
     48 O          22.5847  -30.5773  -38.4988 O.2       7 UNK        -0.5147 
     49 N          22.7557  -32.6936  -37.7021 N.am      8 UNK        -0.4734 
     50 CA         21.4464  -32.7797  -37.0422 C.3       8 UNK         0.0238 
     51 CB         21.4962  -33.9123  -36.0009 C.3       8 UNK        -0.1912 
     52 C          20.2565  -32.9707  -38.0070 C.2       8 UNK         0.5038 
     53 O          19.1264  -33.1112  -37.5372 O.2       8 UNK        -0.5046 
     54 N          20.5176  -32.9931  -39.3207 N.am      9 UNK        -0.4200 
     55 CA         19.5217  -33.1508  -40.3907 C.3       9 UNK         0.0839 
     56 C          18.5187  -31.9699  -40.5562 C.2       9 UNK         0.5513 
     57 N          18.7546  -30.8064  -39.9605 N.am      9 UNK        -0.7519 
     58 O          17.5005  -32.1232  -41.2250 O.2       9 UNK        -0.4960 
     59 C59        20.1991  -33.5490  -41.7288 C.3       10 UNK        -0.0876 
     60 S60        21.3261  -32.2706  -42.3975 S.3       10 UNK        -0.2414 
     61 C61        21.3155  -32.6574  -44.1817 C.3       10 UNK         0.0169 
     62 H62        20.1705  -27.6396  -39.1862 H         1 UNK         0.0903 
     63 H63        19.9038  -25.9520  -38.7471 H         1 UNK         0.0903 
     64 H64        18.8982  -27.2186  -38.0379 H         1 UNK         0.0903 
     65 H65        19.3744  -28.1060  -41.2167 H         1 UNK         0.3096 
     66 H66        16.7214  -27.2465  -42.0750 H         1 UNK         0.1121 
     67 H67        17.8238  -29.5871  -42.4722 H         1 UNK         0.0849 
     68 H68        18.7625  -28.8236  -43.7240 H         1 UNK         0.0849 
     69 H69        16.4451  -31.3823  -43.9456 H         1 UNK         0.0865 
     70 H70        15.9281  -30.9889  -45.5677 H         1 UNK         0.0865 
     71 H71        18.6691  -32.1016  -43.6170 H         1 UNK         0.1346 
     72 H72        21.7105  -31.3910  -46.5570 H         1 UNK         0.1412 
     73 H73        17.7466  -29.8604  -47.1374 H         1 UNK         0.1426 
     74 H74        19.6549  -30.4317  -49.1233 H         1 UNK         0.0716 
     75 H75        21.2622  -30.1245  -48.5106 H         1 UNK         0.0716 
     76 H76        21.0309  -28.1579  -46.2641 H         1 UNK         0.0695 
     77 H77        22.0677  -27.6322  -47.5706 H         1 UNK         0.0695 
     78 H78        20.7868  -25.4587  -47.6917 H         1 UNK         0.0983 
     79 H79        19.0208  -26.7327  -45.8098 H         1 UNK         0.3095 
     80 H80        17.4926  -23.8308  -44.5769 H         1 UNK         0.0454 
     81 H81        16.3685  -23.8666  -46.8167 H         1 UNK         0.0851 
     82 H82        16.2400  -25.6177  -46.7308 H         1 UNK         0.0851 
     83 H83        15.3659  -24.6043  -45.5809 H         1 UNK         0.0851 
     84 H84        16.5269  -26.4387  -44.3756 H         1 UNK         0.2976 
     85 H85        20.7332  -25.4453  -44.2480 H         1 UNK         0.3116 
     86 H86        22.0518  -24.7569  -42.6400 H         1 UNK         0.0646 
     87 H87        23.6590  -22.9392  -43.0450 H         1 UNK         0.0847 
     88 H88        22.2272  -22.6756  -44.0261 H         1 UNK         0.0847 
     89 H89        23.7049  -23.2928  -44.7642 H         1 UNK         0.0847 
     90 H90        22.5138  -27.3225  -43.5387 H         1 UNK         0.3040 
     91 H91        25.3118  -27.9801  -43.7374 H         1 UNK         0.1015 
     92 H92        23.5213  -29.4732  -44.6304 H         1 UNK         0.0786 
     93 H93        22.8614  -29.6876  -43.0099 H         1 UNK         0.0786 
     94 H94        24.4518  -30.3201  -43.4046 H         1 UNK         0.0786 
     95 H95        26.7221  -28.6837  -42.1541 H         1 UNK         0.3172 
     96 H96        26.1587  -27.9994  -39.3485 H         1 UNK         0.0595 
     97 H97        28.5910  -28.4345  -39.0754 H         1 UNK         0.0839 
     98 H98        28.3044  -27.2983  -40.3819 H         1 UNK         0.0839 
     99 H99        28.7089  -28.9763  -40.7435 H         1 UNK         0.0839 
    100 H100       24.3828  -29.7644  -39.5445 H         1 UNK         0.2998 
    101 H101       25.2788  -32.1831  -38.2120 H         1 UNK         0.0822 
    102 H102       25.5886  -32.8736  -40.5955 H         1 UNK         0.0787 
    103 H103       24.1834  -33.6930  -39.9422 H         1 UNK         0.0787 
    104 H104       23.9745  -32.3036  -41.0016 H         1 UNK         0.0787 
    105 H105       23.3371  -33.5188  -37.6492 H         1 UNK         0.3055 
    106 H106       21.2678  -31.8408  -36.5128 H         1 UNK         0.1106 
    107 H107       21.6536  -34.8847  -36.4693 H         1 UNK         0.0828 
    108 H108       22.2963  -33.7530  -35.2777 H         1 UNK         0.0828 
    109 H109       20.5644  -33.9706  -35.4364 H         1 UNK         0.0828 
    110 H110       21.4666  -32.8337  -39.6222 H         1 UNK         0.2931 
    111 H111       18.9052  -34.0027  -40.0970 H         1 UNK         0.0412 
    112 H112       18.0787  -30.0653  -40.0459 H         1 UNK         0.3472 
    113 H113       19.5890  -30.6793  -39.4102 H         1 UNK         0.3472 
    114 H114       19.4434  -33.8128  -42.4692 H         1 UNK         0.0970 
    115 H115       20.7802  -34.4611  -41.5841 H         1 UNK         0.0970 
    116 H116       21.1254  -33.7210  -44.3300 H         1 UNK         0.0612 
    117 H117       22.3236  -32.4747  -44.5568 H         1 UNK         0.0612 
@<TRIPOS>BOND
     1    1    2 1    
     2    1   62 1    
     3    1   63 1    
     4    1   64 1    
     5    2    3 2    
     6    2    4 am   BACKBONE|DICT|INTERRES
     7    4    5 1    
     8    4   65 1    
     9    5    6 1    
    10    5   25 1    
    11    5   66 1    
    12    6    7 1    
    13    6   67 1    
    14    6   68 1    
    15    7    8 1    
    16    8    9 1    
    17    8   69 1    
    18    8   70 1    
    19    9   10 ar   
    20    9   14 ar   
    21   10   11 ar   
    22   10   71 1    
    23   11   12 ar   
    24   11   61 1    
    25   12   13 ar   
    26   12   72 1    
    27   13   14 ar   
    28   13   15 1    
    29   14   73 1    
    30   15   16 1    
    31   15   74 1    
    32   15   75 1    
    33   16   17 1    
    34   17   18 1    
    35   17   76 1    
    36   17   77 1    
    37   18   19 1    
    38   18   27 1    
    39   18   78 1    
    40   19   20 am   BACKBONE|DICT|INTERRES
    41   19   79 1    
    42   20   21 2    
    43   20   22 1    
    44   22   23 1    
    45   22   24 1    
    46   22   80 1    
    47   23   81 1    
    48   23   82 1    
    49   23   83 1    
    50   24   25 am   BACKBONE|DICT|INTERRES
    51   24   84 1    
    52   25   26 2    
    53   27   28 2    
    54   27   29 am   BACKBONE|DICT|INTERRES
    55   29   30 1    
    56   29   85 1    
    57   30   31 1    
    58   30   32 1    
    59   30   86 1    
    60   31   87 1    
    61   31   88 1    
    62   31   89 1    
    63   32   33 2    
    64   32   34 am   BACKBONE|DICT|INTERRES
    65   34   35 1    
    66   34   90 1    
    67   35   36 1    
    68   35   37 1    
    69   35   91 1    
    70   36   92 1    
    71   36   93 1    
    72   36   94 1    
    73   37   38 2    
    74   37   39 am   BACKBONE|DICT|INTERRES
    75   39   40 1    
    76   39   95 1    
    77   40   41 1    
    78   40   42 1    
    79   40   96 1    
    80   41   97 1    
    81   41   98 1    
    82   41   99 1    
    83   42   43 2    
    84   42   44 am   BACKBONE|DICT|INTERRES
    85   44   45 1    
    86   44  100 1    
    87   45   46 1    
    88   45   47 1    
    89   45  101 1    
    90   46  102 1    
    91   46  103 1    
    92   46  104 1    
    93   47   48 2    
    94   47   49 am   BACKBONE|DICT|INTERRES
    95   49   50 1    
    96   49  105 1    
    97   50   51 1    
    98   50   52 1    
    99   50  106 1    
   100   51  107 1    
   101   51  108 1    
   102   51  109 1    
   103   52   53 2    
   104   52   54 am   BACKBONE|DICT|INTERRES
   105   54   55 1    
   106   54  110 1    
   107   55   56 1    
   108   55   59 1    
   109   55  111 1    
   110   56   57 am   BACKBONE|DICT|INTERRES
   111   56   58 2    
   112   57  112 1    
   113   57  113 1    
   114   59   60 1    
   115   59  114 1    
   116   59  115 1    
   117   60   61 1    
   118   61  116 1    
   119   61  117 1    
@<TRIPOS>SUBSTRUCTURE
     1 UNK         1 GROUP             0       ****    0 ROOT    
