@<TRIPOS>MOLECULE
3R8
117   119    1
SMALL
USER_CHARGES


@<TRIPOS>ATOM
      1 CA         18.6293  -26.7808  -38.8932 C.3       0 UNK        -0.2013 
      2 C          17.8874  -26.7136  -40.2192 C.2       0 UNK         0.4866 
      3 O          16.7221  -27.1030  -40.2935 O.2       0 UNK        -0.5176 
      4 N          18.5539  -26.2132  -41.2633 N.am      1 UNK        -0.4884 
      5 CA         18.0289  -26.0236  -42.6140 C.3       1 UNK         0.0853 
      6 C6         17.8052  -27.3645  -43.3687 C.3       10 UNK        -0.0849 
      7 S7         16.5330  -27.2162  -44.6710 S.3       10 UNK        -0.2776 
      8 C8         16.0087  -28.9505  -44.8690 C.3       10 UNK         0.0316 
      9 C9         17.1720  -29.8613  -45.2374 C.ar      10 UNK        -0.0863 
     10 C10        17.5076  -30.9433  -44.4189 C.ar      10 UNK        -0.1009 
     11 C11        18.5868  -31.7705  -44.7436 C.ar      10 UNK        -0.0712 
     12 C12        19.3420  -31.4989  -45.8896 C.ar      10 UNK        -0.0894 
     13 C13        19.0129  -30.4224  -46.7205 C.ar      10 UNK        -0.0745 
     14 C14        17.9145  -29.6205  -46.3967 C.ar      10 UNK        -0.0972 
     15 C15        19.8303  -30.1416  -47.9771 C.3       10 UNK         0.0209 
     16 S16        20.3761  -28.4049  -48.1046 S.3       10 UNK        -0.2568 
     17 C17        21.5310  -28.2913  -46.7010 C.3       10 UNK        -0.0983 
     18 CA         21.9565  -26.8303  -46.4088 C.3       3 UNK         0.0876 
     19 N          20.8104  -26.0005  -46.0279 N.am      3 UNK        -0.4424 
     20 C          20.8063  -24.6616  -45.9938 C.2       2 UNK         0.4918 
     21 O          21.7666  -23.9655  -46.3263 O.2       2 UNK        -0.4875 
     22 CA         19.5060  -23.9751  -45.5331 C.3       2 UNK         0.0481 
     23 CB         18.6609  -23.5659  -46.7500 C.3       2 UNK        -0.1831 
     24 N          18.6920  -24.8074  -44.6421 N.am      2 UNK        -0.4498 
     25 C          18.9790  -25.0627  -43.3593 C.2       1 UNK         0.5027 
     26 O          19.9451  -24.5727  -42.7669 O.2       1 UNK        -0.4969 
     27 C          23.0372  -26.8158  -45.3110 C.2       3 UNK         0.5005 
     28 O          22.7111  -26.7073  -44.1273 O.2       3 UNK        -0.5279 
     29 N          24.3014  -27.0266  -45.7089 N.am      4 UNK        -0.4463 
     30 CA         25.4554  -27.1723  -44.8067 C.3       4 UNK         0.0283 
     31 CB         26.7438  -27.2547  -45.6411 C.3       4 UNK        -0.1875 
     32 C          25.3577  -28.3783  -43.8489 C.2       4 UNK         0.4949 
     33 O          26.0298  -28.3937  -42.8181 O.2       4 UNK        -0.5039 
     34 N          24.4940  -29.3452  -44.1874 N.am      5 UNK        -0.4663 
     35 CA         24.1251  -30.5021  -43.3718 C.3       5 UNK         0.0242 
     36 CB         23.3868  -31.5123  -44.2652 C.3       5 UNK        -0.1982 
     37 C          23.2826  -30.1623  -42.1247 C.2       5 UNK         0.5017 
     38 O          23.0385  -31.0662  -41.3264 O.2       5 UNK        -0.5012 
     39 N          22.8671  -28.8947  -41.9532 N.am      6 UNK        -0.4439 
     40 CA         22.0718  -28.3621  -40.8348 C.3       6 UNK         0.0297 
     41 CB         22.0261  -26.8307  -40.9349 C.3       6 UNK        -0.2006 
     42 C          22.5328  -28.7668  -39.4224 C.2       6 UNK         0.4892 
     43 O          21.6873  -28.9172  -38.5413 O.2       6 UNK        -0.5089 
     44 N          23.8453  -28.9675  -39.2371 N.am      7 UNK        -0.4243 
     45 CA         24.4483  -29.4691  -37.9983 C.3       7 UNK         0.0196 
     46 CB         25.9790  -29.4099  -38.1249 C.3       7 UNK        -0.2007 
     47 C          23.9950  -30.8924  -37.6150 C.2       7 UNK         0.5020 
     48 O          23.9799  -31.2141  -36.4265 O.2       7 UNK        -0.5147 
     49 N          23.6326  -31.7094  -38.6126 N.am      8 UNK        -0.4734 
     50 CA         23.0669  -33.0468  -38.4371 C.3       8 UNK         0.0238 
     51 CB         23.7322  -34.0134  -39.4314 C.3       8 UNK        -0.1912 
     52 C          21.5441  -33.0354  -38.6394 C.2       8 UNK         0.5038 
     53 O          20.8375  -33.7113  -37.8903 O.2       8 UNK        -0.5046 
     54 N          21.0687  -32.2880  -39.6456 N.am      9 UNK        -0.4200 
     55 CA         19.6475  -32.1887  -40.0167 C.3       9 UNK         0.0839 
     56 C          18.7579  -31.4328  -38.9901 C.2       9 UNK         0.5513 
     57 N          19.2950  -30.5398  -38.1688 N.am      9 UNK        -0.7519 
     58 O          17.5548  -31.6725  -38.9337 O.2       9 UNK        -0.4960 
     59 C59        19.4579  -31.6083  -41.4419 C.3       10 UNK        -0.0876 
     60 S60        20.2812  -32.6202  -42.7189 S.3       10 UNK        -0.2414 
     61 C61        18.9227  -32.9738  -43.8737 C.3       10 UNK         0.0169 
     62 H62        19.3999  -26.0137  -38.8246 H         1 UNK         0.0903 
     63 H63        17.9393  -26.6360  -38.0624 H         1 UNK         0.0903 
     64 H64        19.1029  -27.7548  -38.7778 H         1 UNK         0.0903 
     65 H65        19.4870  -25.8338  -41.1516 H         1 UNK         0.3096 
     66 H66        17.0733  -25.5041  -42.5105 H         1 UNK         0.1121 
     67 H67        18.7343  -27.7463  -43.7975 H         1 UNK         0.0849 
     68 H68        17.4666  -28.1366  -42.6766 H         1 UNK         0.0849 
     69 H69        15.5262  -29.2825  -43.9483 H         1 UNK         0.0865 
     70 H70        15.2503  -29.0063  -45.6510 H         1 UNK         0.0865 
     71 H71        16.9245  -31.1463  -43.5312 H         1 UNK         0.1346 
     72 H72        20.1812  -32.1349  -46.1362 H         1 UNK         0.1412 
     73 H73        17.6503  -28.7894  -47.0366 H         1 UNK         0.1426 
     74 H74        19.2211  -30.3817  -48.8494 H         1 UNK         0.0716 
     75 H75        20.7071  -30.7893  -48.0251 H         1 UNK         0.0716 
     76 H76        21.0675  -28.7372  -45.8182 H         1 UNK         0.0695 
     77 H77        22.3970  -28.9109  -46.9418 H         1 UNK         0.0695 
     78 H78        22.3911  -26.4040  -47.3160 H         1 UNK         0.0983 
     79 H79        19.9826  -26.4943  -45.7336 H         1 UNK         0.3095 
     80 H80        19.7853  -23.0670  -44.9945 H         1 UNK         0.0454 
     81 H81        19.2298  -22.9206  -47.4208 H         1 UNK         0.0851 
     82 H82        18.3380  -24.4325  -47.3285 H         1 UNK         0.0851 
     83 H83        17.7717  -23.0121  -46.4485 H         1 UNK         0.0851 
     84 H84        17.8800  -25.2575  -45.0465 H         1 UNK         0.2976 
     85 H85        24.4920  -27.1181  -46.6973 H         1 UNK         0.3116 
     86 H86        25.5051  -26.2741  -44.1876 H         1 UNK         0.0646 
     87 H87        27.6212  -27.3324  -44.9973 H         1 UNK         0.0847 
     88 H88        26.8771  -26.3657  -46.2577 H         1 UNK         0.0847 
     89 H89        26.7456  -28.1252  -46.2983 H         1 UNK         0.0847 
     90 H90        24.0004  -29.2404  -45.0607 H         1 UNK         0.3040 
     91 H91        25.0453  -30.9686  -43.0132 H         1 UNK         0.1015 
     92 H92        23.9865  -31.7946  -45.1305 H         1 UNK         0.0786 
     93 H93        22.4372  -31.1143  -44.6263 H         1 UNK         0.0786 
     94 H94        23.1673  -32.4293  -43.7165 H         1 UNK         0.0786 
     95 H95        23.0809  -28.2285  -42.6883 H         1 UNK         0.3172 
     96 H96        21.0547  -28.7346  -40.9572 H         1 UNK         0.0595 
     97 H97        21.5092  -26.5125  -41.8384 H         1 UNK         0.0839 
     98 H98        23.0270  -26.3978  -40.9545 H         1 UNK         0.0839 
     99 H99        21.4989  -26.3904  -40.0881 H         1 UNK         0.0839 
    100 H100       24.4648  -28.8202  -40.0212 H         1 UNK         0.2998 
    101 H101       24.1434  -28.8022  -37.1890 H         1 UNK         0.0822 
    102 H102       26.3239  -28.3919  -38.3076 H         1 UNK         0.0787 
    103 H103       26.4601  -29.7536  -37.2080 H         1 UNK         0.0787 
    104 H104       26.3409  -30.0395  -38.9389 H         1 UNK         0.0787 
    105 H105       23.6361  -31.3491  -39.5633 H         1 UNK         0.3055 
    106 H106       23.2642  -33.4120  -37.4266 H         1 UNK         0.1106 
    107 H107       23.5687  -33.7089  -40.4662 H         1 UNK         0.0828 
    108 H108       24.8080  -34.0711  -39.2662 H         1 UNK         0.0828 
    109 H109       23.3326  -35.0224  -39.3211 H         1 UNK         0.0828 
    110 H110       21.7246  -31.7996  -40.2485 H         1 UNK         0.2931 
    111 H111       19.2638  -33.2110  -40.0403 H         1 UNK         0.0412 
    112 H112       18.7029  -30.0764  -37.4990 H         1 UNK         0.3472 
    113 H113       20.2681  -30.2650  -38.2497 H         1 UNK         0.3472 
    114 H114       19.8510  -30.5940  -41.5027 H         1 UNK         0.0970 
    115 H115       18.3955  -31.5322  -41.6765 H         1 UNK         0.0970 
    116 H116       18.0459  -33.3126  -43.3195 H         1 UNK         0.0612 
    117 H117       19.2180  -33.8086  -44.5110 H         1 UNK         0.0612 
@<TRIPOS>BOND
     1    1    2 1    
     2    1   62 1    
     3    1   63 1    
     4    1   64 1    
     5    2    3 2    
     6    2    4 am   BACKBONE|DICT|INTERRES
     7    4    5 1    
     8    4   65 1    
     9    5    6 1    
    10    5   25 1    
    11    5   66 1    
    12    6    7 1    
    13    6   67 1    
    14    6   68 1    
    15    7    8 1    
    16    8    9 1    
    17    8   69 1    
    18    8   70 1    
    19    9   10 ar   
    20    9   14 ar   
    21   10   11 ar   
    22   10   71 1    
    23   11   12 ar   
    24   11   61 1    
    25   12   13 ar   
    26   12   72 1    
    27   13   14 ar   
    28   13   15 1    
    29   14   73 1    
    30   15   16 1    
    31   15   74 1    
    32   15   75 1    
    33   16   17 1    
    34   17   18 1    
    35   17   76 1    
    36   17   77 1    
    37   18   19 1    
    38   18   27 1    
    39   18   78 1    
    40   19   20 am   BACKBONE|DICT|INTERRES
    41   19   79 1    
    42   20   21 2    
    43   20   22 1    
    44   22   23 1    
    45   22   24 1    
    46   22   80 1    
    47   23   81 1    
    48   23   82 1    
    49   23   83 1    
    50   24   25 am   BACKBONE|DICT|INTERRES
    51   24   84 1    
    52   25   26 2    
    53   27   28 2    
    54   27   29 am   BACKBONE|DICT|INTERRES
    55   29   30 1    
    56   29   85 1    
    57   30   31 1    
    58   30   32 1    
    59   30   86 1    
    60   31   87 1    
    61   31   88 1    
    62   31   89 1    
    63   32   33 2    
    64   32   34 am   BACKBONE|DICT|INTERRES
    65   34   35 1    
    66   34   90 1    
    67   35   36 1    
    68   35   37 1    
    69   35   91 1    
    70   36   92 1    
    71   36   93 1    
    72   36   94 1    
    73   37   38 2    
    74   37   39 am   BACKBONE|DICT|INTERRES
    75   39   40 1    
    76   39   95 1    
    77   40   41 1    
    78   40   42 1    
    79   40   96 1    
    80   41   97 1    
    81   41   98 1    
    82   41   99 1    
    83   42   43 2    
    84   42   44 am   BACKBONE|DICT|INTERRES
    85   44   45 1    
    86   44  100 1    
    87   45   46 1    
    88   45   47 1    
    89   45  101 1    
    90   46  102 1    
    91   46  103 1    
    92   46  104 1    
    93   47   48 2    
    94   47   49 am   BACKBONE|DICT|INTERRES
    95   49   50 1    
    96   49  105 1    
    97   50   51 1    
    98   50   52 1    
    99   50  106 1    
   100   51  107 1    
   101   51  108 1    
   102   51  109 1    
   103   52   53 2    
   104   52   54 am   BACKBONE|DICT|INTERRES
   105   54   55 1    
   106   54  110 1    
   107   55   56 1    
   108   55   59 1    
   109   55  111 1    
   110   56   57 am   BACKBONE|DICT|INTERRES
   111   56   58 2    
   112   57  112 1    
   113   57  113 1    
   114   59   60 1    
   115   59  114 1    
   116   59  115 1    
   117   60   61 1    
   118   61  116 1    
   119   61  117 1    
@<TRIPOS>SUBSTRUCTURE
     1 UNK         1 GROUP             0       ****    0 ROOT    
