@<TRIPOS>MOLECULE
3R8
117   119    1
SMALL
USER_CHARGES


@<TRIPOS>ATOM
      1 CA         12.1246  -25.3846  -41.3028 C.3       0 UNK        -0.2013 
      2 C          13.2202  -25.0785  -42.3132 C.2       0 UNK         0.4866 
      3 O          13.6216  -23.9221  -42.4461 O.2       0 UNK        -0.5176 
      4 N          13.6925  -26.1047  -43.0307 N.am      1 UNK        -0.4884 
      5 CA         14.7874  -26.0354  -44.0010 C.3       1 UNK         0.0853 
      6 C6         14.5401  -26.9792  -45.2114 C.3       10 UNK        -0.0849 
      7 S7         14.1542  -28.7157  -44.7720 S.3       10 UNK        -0.2776 
      8 C8         14.8059  -29.6210  -46.2097 C.3       10 UNK         0.0316 
      9 C9         16.3282  -29.6297  -46.2538 C.ar      10 UNK        -0.0863 
     10 C10        17.0526  -30.5128  -45.4470 C.ar      10 UNK        -0.1009 
     11 C11        18.4476  -30.5716  -45.5333 C.ar      10 UNK        -0.0712 
     12 C12        19.1165  -29.7372  -46.4337 C.ar      10 UNK        -0.0894 
     13 C13        18.4053  -28.8304  -47.2239 C.ar      10 UNK        -0.0745 
     14 C14        17.0117  -28.7862  -47.1345 C.ar      10 UNK        -0.0972 
     15 C15        19.1325  -27.9126  -48.1942 C.3       10 UNK         0.0209 
     16 S16        19.5109  -26.3001  -47.4383 S.3       10 UNK        -0.2568 
     17 C17        20.9839  -26.6918  -46.4348 C.3       10 UNK        -0.0983 
     18 CA         20.7801  -26.4266  -44.9230 C.3       3 UNK         0.0876 
     19 N          19.6393  -27.1717  -44.3669 N.am      3 UNK        -0.4424 
     20 C          19.1683  -27.0470  -43.1178 C.2       2 UNK         0.4918 
     21 O          19.6461  -26.2847  -42.2758 O.2       2 UNK        -0.4875 
     22 CA         17.9521  -27.9217  -42.7664 C.3       2 UNK         0.0481 
     23 CB         17.7621  -28.0912  -41.2452 C.3       2 UNK        -0.1831 
     24 N          16.7164  -27.4443  -43.3946 N.am      2 UNK        -0.4498 
     25 C          16.1327  -26.2423  -43.2697 C.2       1 UNK         0.5027 
     26 O          16.5945  -25.3187  -42.5981 O.2       1 UNK        -0.4969 
     27 C          22.1067  -26.6627  -44.1638 C.2       3 UNK         0.5005 
     28 O          22.9447  -25.7591  -44.1402 O.2       3 UNK        -0.5279 
     29 N          22.2458  -27.8473  -43.5449 N.am      4 UNK        -0.4463 
     30 CA         23.3509  -28.3161  -42.6998 C.3       4 UNK         0.0283 
     31 CB         23.6187  -27.3318  -41.5388 C.3       4 UNK        -0.1875 
     32 C          24.6410  -28.6371  -43.4754 C.2       4 UNK         0.4949 
     33 O          24.7927  -28.2782  -44.6450 O.2       4 UNK        -0.5039 
     34 N          25.5502  -29.3292  -42.7849 N.am      5 UNK        -0.4663 
     35 CA         26.8968  -29.6634  -43.2393 C.3       5 UNK         0.0242 
     36 CB         26.9083  -31.1017  -43.8000 C.3       5 UNK        -0.1982 
     37 C          27.8443  -29.4227  -42.0547 C.2       5 UNK         0.5017 
     38 O          27.9031  -28.2959  -41.5595 O.2       5 UNK        -0.5012 
     39 N          28.5316  -30.4734  -41.5835 N.am      6 UNK        -0.4439 
     40 CA         29.3274  -30.4636  -40.3478 C.3       6 UNK         0.0297 
     41 CB         30.2056  -31.7246  -40.3018 C.3       6 UNK        -0.2006 
     42 C          28.4646  -30.3605  -39.0721 C.2       6 UNK         0.4892 
     43 O          28.9699  -29.9441  -38.0291 O.2       6 UNK        -0.5089 
     44 N          27.1850  -30.7292  -39.1873 N.am      7 UNK        -0.4243 
     45 CA         26.1315  -30.5800  -38.1922 C.3       7 UNK         0.0196 
     46 CB         26.0273  -31.8707  -37.3595 C.3       7 UNK        -0.2007 
     47 C          24.8239  -30.2807  -38.9400 C.2       7 UNK         0.5020 
     48 O          24.7944  -30.3433  -40.1745 O.2       7 UNK        -0.5147 
     49 N          23.7628  -29.9626  -38.1884 N.am      8 UNK        -0.4734 
     50 CA         22.4111  -29.7614  -38.7168 C.3       8 UNK         0.0238 
     51 CB         21.5127  -29.1597  -37.6238 C.3       8 UNK        -0.1912 
     52 C          21.8272  -31.0823  -39.2453 C.2       8 UNK         0.5038 
     53 O          21.7631  -32.0575  -38.4926 O.2       8 UNK        -0.5046 
     54 N          21.4373  -31.0898  -40.5234 N.am      9 UNK        -0.4200 
     55 CA         20.8506  -32.2444  -41.2125 C.3       9 UNK         0.0839 
     56 C          19.3459  -32.4521  -40.8803 C.2       9 UNK         0.5513 
     57 N          18.8054  -33.6250  -41.1820 N.am      9 UNK        -0.7519 
     58 O          18.6619  -31.5655  -40.3725 O.2       9 UNK        -0.4960 
     59 C59        21.1392  -32.1863  -42.7359 C.3       10 UNK        -0.0876 
     60 S60        20.4209  -30.7366  -43.5845 S.3       10 UNK        -0.2414 
     61 C61        19.2299  -31.5633  -44.6852 C.3       10 UNK         0.0169 
     62 H62        11.2292  -24.8079  -41.5336 H         1 UNK         0.0903 
     63 H63        11.8554  -26.4408  -41.2992 H         1 UNK         0.0903 
     64 H64        12.4541  -25.1156  -40.2995 H         1 UNK         0.0903 
     65 H65        13.3263  -27.0339  -42.8734 H         1 UNK         0.3096 
     66 H66        14.8308  -25.0217  -44.4068 H         1 UNK         0.1121 
     67 H67        15.3897  -26.9358  -45.8929 H         1 UNK         0.0849 
     68 H68        13.6950  -26.5997  -45.7880 H         1 UNK         0.0849 
     69 H69        14.4424  -30.6491  -46.1699 H         1 UNK         0.0865 
     70 H70        14.3930  -29.1932  -47.1249 H         1 UNK         0.0865 
     71 H71        16.5257  -31.1678  -44.7661 H         1 UNK         0.1346 
     72 H72        20.1932  -29.7976  -46.5145 H         1 UNK         0.1412 
     73 H73        16.4592  -28.1013  -47.7636 H         1 UNK         0.1426 
     74 H74        18.5114  -27.7460  -49.0757 H         1 UNK         0.0716 
     75 H75        20.0487  -28.3803  -48.5582 H         1 UNK         0.0716 
     76 H76        21.8006  -26.0757  -46.8164 H         1 UNK         0.0695 
     77 H77        21.2905  -27.7245  -46.6050 H         1 UNK         0.0695 
     78 H78        20.5434  -25.3672  -44.8010 H         1 UNK         0.0983 
     79 H79        19.1651  -27.7950  -45.0065 H         1 UNK         0.3095 
     80 H80        18.1385  -28.9134  -43.1764 H         1 UNK         0.0454 
     81 H81        17.5511  -27.1430  -40.7500 H         1 UNK         0.0851 
     82 H82        18.6607  -28.5062  -40.7867 H         1 UNK         0.0851 
     83 H83        16.9439  -28.7760  -41.0233 H         1 UNK         0.0851 
     84 H84        16.2345  -28.1221  -43.9736 H         1 UNK         0.2976 
     85 H85        21.5044  -28.5208  -43.6857 H         1 UNK         0.3116 
     86 H86        23.0076  -29.2566  -42.2676 H         1 UNK         0.0646 
     87 H87        22.6978  -27.0660  -41.0198 H         1 UNK         0.0847 
     88 H88        24.0815  -26.4085  -41.8876 H         1 UNK         0.0847 
     89 H89        24.2960  -27.7605  -40.8005 H         1 UNK         0.0847 
     90 H90        25.3321  -29.5893  -41.8240 H         1 UNK         0.3040 
     91 H91        27.2080  -28.9765  -44.0298 H         1 UNK         0.1015 
     92 H92        26.5822  -31.8344  -43.0605 H         1 UNK         0.0786 
     93 H93        27.9024  -31.3861  -44.1479 H         1 UNK         0.0786 
     94 H94        26.2394  -31.1865  -44.6568 H         1 UNK         0.0786 
     95 H95        28.4364  -31.3603  -42.0578 H         1 UNK         0.3172 
     96 H96        29.9835  -29.5908  -40.3718 H         1 UNK         0.0595 
     97 H97        29.6062  -32.6357  -40.2826 H         1 UNK         0.0839 
     98 H98        30.8327  -31.7298  -39.4090 H         1 UNK         0.0839 
     99 H99        30.8724  -31.7772  -41.1628 H         1 UNK         0.0839 
    100 H100       26.8410  -30.9993  -40.0993 H         1 UNK         0.2998 
    101 H101       26.3553  -29.7318  -37.5415 H         1 UNK         0.0822 
    102 H102       26.9702  -32.0959  -36.8605 H         1 UNK         0.0787 
    103 H103       25.2660  -31.7829  -36.5837 H         1 UNK         0.0787 
    104 H104       25.7648  -32.7287  -37.9800 H         1 UNK         0.0787 
    105 H105       23.8601  -29.9595  -37.1831 H         1 UNK         0.3055 
    106 H106       22.4697  -29.0445  -39.5369 H         1 UNK         0.1106 
    107 H107       21.4293  -29.8194  -36.7591 H         1 UNK         0.0828 
    108 H108       20.5032  -28.9891  -38.0009 H         1 UNK         0.0828 
    109 H109       21.8952  -28.1990  -37.2787 H         1 UNK         0.0828 
    110 H110       21.4755  -30.2391  -41.0619 H         1 UNK         0.2931 
    111 H111       21.3653  -33.1313  -40.8364 H         1 UNK         0.0412 
    112 H112       17.8296  -33.7784  -40.9801 H         1 UNK         0.3472 
    113 H113       19.3530  -34.3655  -41.5917 H         1 UNK         0.3472 
    114 H114       20.8036  -33.1056  -43.2187 H         1 UNK         0.0970 
    115 H115       22.2182  -32.1612  -42.8971 H         1 UNK         0.0970 
    116 H116       19.7638  -32.2489  -45.3446 H         1 UNK         0.0612 
    117 H117       18.5542  -32.1708  -44.0807 H         1 UNK         0.0612 
@<TRIPOS>BOND
     1    1    2 1    
     2    1   62 1    
     3    1   63 1    
     4    1   64 1    
     5    2    3 2    
     6    2    4 am   BACKBONE|DICT|INTERRES
     7    4    5 1    
     8    4   65 1    
     9    5    6 1    
    10    5   25 1    
    11    5   66 1    
    12    6    7 1    
    13    6   67 1    
    14    6   68 1    
    15    7    8 1    
    16    8    9 1    
    17    8   69 1    
    18    8   70 1    
    19    9   10 ar   
    20    9   14 ar   
    21   10   11 ar   
    22   10   71 1    
    23   11   12 ar   
    24   11   61 1    
    25   12   13 ar   
    26   12   72 1    
    27   13   14 ar   
    28   13   15 1    
    29   14   73 1    
    30   15   16 1    
    31   15   74 1    
    32   15   75 1    
    33   16   17 1    
    34   17   18 1    
    35   17   76 1    
    36   17   77 1    
    37   18   19 1    
    38   18   27 1    
    39   18   78 1    
    40   19   20 am   BACKBONE|DICT|INTERRES
    41   19   79 1    
    42   20   21 2    
    43   20   22 1    
    44   22   23 1    
    45   22   24 1    
    46   22   80 1    
    47   23   81 1    
    48   23   82 1    
    49   23   83 1    
    50   24   25 am   BACKBONE|DICT|INTERRES
    51   24   84 1    
    52   25   26 2    
    53   27   28 2    
    54   27   29 am   BACKBONE|DICT|INTERRES
    55   29   30 1    
    56   29   85 1    
    57   30   31 1    
    58   30   32 1    
    59   30   86 1    
    60   31   87 1    
    61   31   88 1    
    62   31   89 1    
    63   32   33 2    
    64   32   34 am   BACKBONE|DICT|INTERRES
    65   34   35 1    
    66   34   90 1    
    67   35   36 1    
    68   35   37 1    
    69   35   91 1    
    70   36   92 1    
    71   36   93 1    
    72   36   94 1    
    73   37   38 2    
    74   37   39 am   BACKBONE|DICT|INTERRES
    75   39   40 1    
    76   39   95 1    
    77   40   41 1    
    78   40   42 1    
    79   40   96 1    
    80   41   97 1    
    81   41   98 1    
    82   41   99 1    
    83   42   43 2    
    84   42   44 am   BACKBONE|DICT|INTERRES
    85   44   45 1    
    86   44  100 1    
    87   45   46 1    
    88   45   47 1    
    89   45  101 1    
    90   46  102 1    
    91   46  103 1    
    92   46  104 1    
    93   47   48 2    
    94   47   49 am   BACKBONE|DICT|INTERRES
    95   49   50 1    
    96   49  105 1    
    97   50   51 1    
    98   50   52 1    
    99   50  106 1    
   100   51  107 1    
   101   51  108 1    
   102   51  109 1    
   103   52   53 2    
   104   52   54 am   BACKBONE|DICT|INTERRES
   105   54   55 1    
   106   54  110 1    
   107   55   56 1    
   108   55   59 1    
   109   55  111 1    
   110   56   57 am   BACKBONE|DICT|INTERRES
   111   56   58 2    
   112   57  112 1    
   113   57  113 1    
   114   59   60 1    
   115   59  114 1    
   116   59  115 1    
   117   60   61 1    
   118   61  116 1    
   119   61  117 1    
@<TRIPOS>SUBSTRUCTURE
     1 UNK         1 GROUP             0       ****    0 ROOT    
