@<TRIPOS>MOLECULE
3R8
117   119    1
SMALL
USER_CHARGES


@<TRIPOS>ATOM
      1 CA         16.1857  -28.0344  -41.3365 C.3       0 UNK        -0.2013 
      2 C          16.4597  -26.8852  -42.2927 C.2       0 UNK         0.4866 
      3 O          16.2810  -25.7245  -41.9208 O.2       0 UNK        -0.5176 
      4 N          16.8726  -27.2017  -43.5256 N.am      1 UNK        -0.4884 
      5 CA         17.1824  -26.2297  -44.5831 C.3       1 UNK         0.0853 
      6 C6         16.9213  -26.7993  -46.0064 C.3       10 UNK        -0.0849 
      7 S7         15.3497  -27.7409  -46.1254 S.3       10 UNK        -0.2776 
      8 C8         15.8648  -29.4398  -46.5661 C.3       10 UNK         0.0316 
      9 C9         16.9628  -29.9985  -45.6675 C.ar      10 UNK        -0.0863 
     10 C10        16.6654  -30.6185  -44.4500 C.ar      10 UNK        -0.1009 
     11 C11        17.6931  -31.1387  -43.6537 C.ar      10 UNK        -0.0712 
     12 C12        19.0246  -30.9906  -44.0617 C.ar      10 UNK        -0.0894 
     13 C13        19.3384  -30.3611  -45.2704 C.ar      10 UNK        -0.0745 
     14 C14        18.2920  -29.9140  -46.0838 C.ar      10 UNK        -0.0972 
     15 C15        20.8041  -30.1835  -45.6745 C.3       10 UNK         0.0209 
     16 S16        21.0825  -28.7776  -46.8122 S.3       10 UNK        -0.2568 
     17 C17        22.7465  -28.1797  -46.3609 C.3       10 UNK        -0.0983 
     18 CA         22.7507  -27.0523  -45.2908 C.3       3 UNK         0.0876 
     19 N          21.6683  -26.0820  -45.4920 N.am      3 UNK        -0.4424 
     20 C          21.6090  -24.8598  -44.9511 C.2       2 UNK         0.4918 
     21 O          22.4999  -24.3828  -44.2475 O.2       2 UNK        -0.4875 
     22 CA         20.3294  -24.0359  -45.2150 C.3       2 UNK         0.0481 
     23 CB         20.5036  -23.1835  -46.4819 C.3       2 UNK        -0.1831 
     24 N          19.0675  -24.7935  -45.3091 N.am      2 UNK        -0.4498 
     25 C          18.6208  -25.6830  -44.4080 C.2       1 UNK         0.5027 
     26 O          19.3098  -26.0688  -43.4630 O.2       1 UNK        -0.4969 
     27 C          22.7977  -27.6466  -43.8683 C.2       3 UNK         0.5005 
     28 O          23.8679  -28.0999  -43.4566 O.2       3 UNK        -0.5279 
     29 N          21.6747  -27.6464  -43.1310 N.am      4 UNK        -0.4463 
     30 CA         21.5370  -28.2828  -41.8136 C.3       4 UNK         0.0283 
     31 CB         20.0749  -28.2240  -41.3522 C.3       4 UNK        -0.1875 
     32 C          22.4547  -27.6969  -40.7288 C.2       4 UNK         0.4949 
     33 O          22.7509  -28.3916  -39.7589 O.2       4 UNK        -0.5039 
     34 N          22.9327  -26.4613  -40.9295 N.am      5 UNK        -0.4663 
     35 CA         23.9504  -25.8118  -40.1000 C.3       5 UNK         0.0242 
     36 CB         24.1069  -24.3524  -40.5567 C.3       5 UNK        -0.1982 
     37 C          25.3153  -26.5303  -40.1133 C.2       5 UNK         0.5017 
     38 O          26.0760  -26.3719  -39.1577 O.2       5 UNK        -0.5012 
     39 N          25.5970  -27.2976  -41.1764 N.am      6 UNK        -0.4439 
     40 CA         26.8071  -28.1050  -41.3319 C.3       6 UNK         0.0297 
     41 CB         27.5448  -27.6709  -42.6097 C.3       6 UNK        -0.2006 
     42 C          26.4818  -29.6055  -41.3851 C.2       6 UNK         0.4892 
     43 O          27.1849  -30.3942  -40.7529 O.2       6 UNK        -0.5089 
     44 N          25.4472  -29.9800  -42.1500 N.am      7 UNK        -0.4243 
     45 CA         25.0904  -31.3713  -42.4360 C.3       7 UNK         0.0196 
     46 CB         24.2886  -31.4138  -43.7478 C.3       7 UNK        -0.2007 
     47 C          24.2955  -32.0635  -41.3166 C.2       7 UNK         0.5020 
     48 O          24.3187  -33.2937  -41.2576 O.2       7 UNK        -0.5147 
     49 N          23.5945  -31.2798  -40.4813 N.am      8 UNK        -0.4734 
     50 CA         22.5897  -31.7011  -39.4912 C.3       8 UNK         0.0238 
     51 CB         23.2117  -32.6312  -38.4251 C.3       8 UNK        -0.1912 
     52 C          21.3254  -32.3093  -40.1386 C.2       8 UNK         0.5038 
     53 O          21.2326  -32.4050  -41.3652 O.2       8 UNK        -0.5046 
     54 N          20.3623  -32.6905  -39.2927 N.am      9 UNK        -0.4200 
     55 CA         19.1194  -33.3812  -39.6637 C.3       9 UNK         0.0839 
     56 C          18.8829  -34.5787  -38.7098 C.2       9 UNK         0.5513 
     57 N          18.1967  -35.6140  -39.1730 N.am      9 UNK        -0.7519 
     58 O          19.2874  -34.5670  -37.5481 O.2       9 UNK        -0.4960 
     59 C59        17.8859  -32.4356  -39.6722 C.3       10 UNK        -0.0876 
     60 S60        18.0181  -31.0888  -40.8930 S.3       10 UNK        -0.2414 
     61 C61        17.3720  -31.9105  -42.3805 C.3       10 UNK         0.0169 
     62 H62        16.1074  -28.9845  -41.8637 H         1 UNK         0.0903 
     63 H63        16.9878  -28.1122  -40.6031 H         1 UNK         0.0903 
     64 H64        15.2496  -27.8696  -40.8039 H         1 UNK         0.0903 
     65 H65        17.0174  -28.1702  -43.7771 H         1 UNK         0.3096 
     66 H66        16.5142  -25.3753  -44.4536 H         1 UNK         0.1121 
     67 H67        16.8579  -25.9801  -46.7244 H         1 UNK         0.0849 
     68 H68        17.7580  -27.4043  -46.3461 H         1 UNK         0.0849 
     69 H69        14.9916  -30.0925  -46.5229 H         1 UNK         0.0865 
     70 H70        16.1894  -29.4484  -47.6080 H         1 UNK         0.0865 
     71 H71        15.6345  -30.7173  -44.1374 H         1 UNK         0.1346 
     72 H72        19.8175  -31.3749  -43.4332 H         1 UNK         0.1412 
     73 H73        18.5049  -29.4666  -47.0439 H         1 UNK         0.1426 
     74 H74        21.1617  -31.0998  -46.1456 H         1 UNK         0.0716 
     75 H75        21.4029  -30.0404  -44.7758 H         1 UNK         0.0716 
     76 H76        23.3801  -29.0229  -46.0761 H         1 UNK         0.0695 
     77 H77        23.1913  -27.7884  -47.2771 H         1 UNK         0.0695 
     78 H78        23.6908  -26.5074  -45.4041 H         1 UNK         0.0983 
     79 H79        20.8926  -26.4068  -46.0514 H         1 UNK         0.3095 
     80 H80        20.2175  -23.3549  -44.3690 H         1 UNK         0.0454 
     81 H81        21.4185  -22.5910  -46.4328 H         1 UNK         0.0851 
     82 H82        20.5641  -23.8010  -47.3789 H         1 UNK         0.0851 
     83 H83        19.6771  -22.4842  -46.6093 H         1 UNK         0.0851 
     84 H84        18.4545  -24.5308  -46.0676 H         1 UNK         0.2976 
     85 H85        20.8446  -27.1775  -43.4871 H         1 UNK         0.3116 
     86 H86        21.8062  -29.3340  -41.9367 H         1 UNK         0.0646 
     87 H87        19.9359  -28.7948  -40.4334 H         1 UNK         0.0847 
     88 H88        19.4035  -28.6436  -42.1015 H         1 UNK         0.0847 
     89 H89        19.7547  -27.2020  -41.1479 H         1 UNK         0.0847 
     90 H90        22.6299  -25.9643  -41.7559 H         1 UNK         0.3040 
     91 H91        23.5931  -25.8165  -39.0678 H         1 UNK         0.1015 
     92 H92        23.1683  -23.8051  -40.4663 H         1 UNK         0.0786 
     93 H93        24.4342  -24.2877  -41.5955 H         1 UNK         0.0786 
     94 H94        24.8454  -23.8287  -39.9479 H         1 UNK         0.0786 
     95 H95        24.8988  -27.3813  -41.9089 H         1 UNK         0.3172 
     96 H96        27.4823  -27.9499  -40.4878 H         1 UNK         0.0595 
     97 H97        28.4476  -28.2644  -42.7608 H         1 UNK         0.0839 
     98 H98        27.8504  -26.6261  -42.5526 H         1 UNK         0.0839 
     99 H99        26.9229  -27.7887  -43.4983 H         1 UNK         0.0839 
    100 H100       24.9150  -29.2705  -42.6520 H         1 UNK         0.2998 
    101 H101       26.0111  -31.9402  -42.5843 H         1 UNK         0.0822 
    102 H102       23.3401  -30.8852  -43.6509 H         1 UNK         0.0787 
    103 H103       24.8432  -30.9631  -44.5710 H         1 UNK         0.0787 
    104 H104       24.0593  -32.4414  -44.0329 H         1 UNK         0.0787 
    105 H105       23.6599  -30.2785  -40.6113 H         1 UNK         0.3055 
    106 H106       22.2637  -30.7920  -38.9850 H         1 UNK         0.1106 
    107 H107       23.4183  -33.6261  -38.8206 H         1 UNK         0.0828 
    108 H108       24.1471  -32.2233  -38.0419 H         1 UNK         0.0828 
    109 H109       22.5471  -32.7572  -37.5701 H         1 UNK         0.0828 
    110 H110       20.5188  -32.6211  -38.2969 H         1 UNK         0.2931 
    111 H111       19.2357  -33.8024  -40.6644 H         1 UNK         0.0412 
    112 H112       18.0224  -36.3982  -38.5632 H         1 UNK         0.3472 
    113 H113       17.8554  -35.6336  -40.1218 H         1 UNK         0.3472 
    114 H114       17.7497  -31.9848  -38.6875 H         1 UNK         0.0970 
    115 H115       16.9698  -32.9941  -39.8742 H         1 UNK         0.0970 
    116 H116       17.8088  -32.9066  -42.4619 H         1 UNK         0.0612 
    117 H117       16.2958  -32.0505  -42.2687 H         1 UNK         0.0612 
@<TRIPOS>BOND
     1    1    2 1    
     2    1   62 1    
     3    1   63 1    
     4    1   64 1    
     5    2    3 2    
     6    2    4 am   BACKBONE|DICT|INTERRES
     7    4    5 1    
     8    4   65 1    
     9    5    6 1    
    10    5   25 1    
    11    5   66 1    
    12    6    7 1    
    13    6   67 1    
    14    6   68 1    
    15    7    8 1    
    16    8    9 1    
    17    8   69 1    
    18    8   70 1    
    19    9   10 ar   
    20    9   14 ar   
    21   10   11 ar   
    22   10   71 1    
    23   11   12 ar   
    24   11   61 1    
    25   12   13 ar   
    26   12   72 1    
    27   13   14 ar   
    28   13   15 1    
    29   14   73 1    
    30   15   16 1    
    31   15   74 1    
    32   15   75 1    
    33   16   17 1    
    34   17   18 1    
    35   17   76 1    
    36   17   77 1    
    37   18   19 1    
    38   18   27 1    
    39   18   78 1    
    40   19   20 am   BACKBONE|DICT|INTERRES
    41   19   79 1    
    42   20   21 2    
    43   20   22 1    
    44   22   23 1    
    45   22   24 1    
    46   22   80 1    
    47   23   81 1    
    48   23   82 1    
    49   23   83 1    
    50   24   25 am   BACKBONE|DICT|INTERRES
    51   24   84 1    
    52   25   26 2    
    53   27   28 2    
    54   27   29 am   BACKBONE|DICT|INTERRES
    55   29   30 1    
    56   29   85 1    
    57   30   31 1    
    58   30   32 1    
    59   30   86 1    
    60   31   87 1    
    61   31   88 1    
    62   31   89 1    
    63   32   33 2    
    64   32   34 am   BACKBONE|DICT|INTERRES
    65   34   35 1    
    66   34   90 1    
    67   35   36 1    
    68   35   37 1    
    69   35   91 1    
    70   36   92 1    
    71   36   93 1    
    72   36   94 1    
    73   37   38 2    
    74   37   39 am   BACKBONE|DICT|INTERRES
    75   39   40 1    
    76   39   95 1    
    77   40   41 1    
    78   40   42 1    
    79   40   96 1    
    80   41   97 1    
    81   41   98 1    
    82   41   99 1    
    83   42   43 2    
    84   42   44 am   BACKBONE|DICT|INTERRES
    85   44   45 1    
    86   44  100 1    
    87   45   46 1    
    88   45   47 1    
    89   45  101 1    
    90   46  102 1    
    91   46  103 1    
    92   46  104 1    
    93   47   48 2    
    94   47   49 am   BACKBONE|DICT|INTERRES
    95   49   50 1    
    96   49  105 1    
    97   50   51 1    
    98   50   52 1    
    99   50  106 1    
   100   51  107 1    
   101   51  108 1    
   102   51  109 1    
   103   52   53 2    
   104   52   54 am   BACKBONE|DICT|INTERRES
   105   54   55 1    
   106   54  110 1    
   107   55   56 1    
   108   55   59 1    
   109   55  111 1    
   110   56   57 am   BACKBONE|DICT|INTERRES
   111   56   58 2    
   112   57  112 1    
   113   57  113 1    
   114   59   60 1    
   115   59  114 1    
   116   59  115 1    
   117   60   61 1    
   118   61  116 1    
   119   61  117 1    
@<TRIPOS>SUBSTRUCTURE
     1 UNK         1 GROUP             0       ****    0 ROOT    
