@<TRIPOS>MOLECULE
3R8
117   119    1
SMALL
USER_CHARGES


@<TRIPOS>ATOM
      1 CA         12.7109  -24.7784  -46.3470 C.3       0 UNK        -0.2013 
      2 C          13.7449  -25.8762  -46.1460 C.2       0 UNK         0.4866 
      3 O          13.4964  -27.0267  -46.5085 O.2       0 UNK        -0.5176 
      4 N          14.9024  -25.5308  -45.5760 N.am      1 UNK        -0.4884 
      5 CA         16.0167  -26.4363  -45.2982 C.3       1 UNK         0.0853 
      6 C6         15.7924  -27.3116  -44.0371 C.3       10 UNK        -0.0849 
      7 S7         15.3159  -26.3787  -42.5377 S.3       10 UNK        -0.2776 
      8 C8         15.4452  -27.6702  -41.2610 C.3       10 UNK         0.0316 
      9 C9         16.8884  -28.1015  -41.0545 C.ar      10 UNK        -0.0863 
     10 C10        17.3328  -29.3418  -41.5222 C.ar      10 UNK        -0.1009 
     11 C11        18.6691  -29.7182  -41.3635 C.ar      10 UNK        -0.0712 
     12 C12        19.5543  -28.8589  -40.7073 C.ar      10 UNK        -0.0894 
     13 C13        19.1321  -27.5973  -40.2795 C.ar      10 UNK        -0.0745 
     14 C14        17.7912  -27.2361  -40.4319 C.ar      10 UNK        -0.0972 
     15 C15        20.1206  -26.5954  -39.7019 C.3       10 UNK         0.0209 
     16 S16        20.4654  -25.2591  -40.8966 S.3       10 UNK        -0.2568 
     17 C17        21.9264  -25.8763  -41.8026 C.3       10 UNK        -0.0983 
     18 CA         21.6160  -26.9644  -42.8710 C.3       3 UNK         0.0876 
     19 N          20.6001  -26.5722  -43.8654 N.am      3 UNK        -0.4424 
     20 C          20.7393  -25.6095  -44.7907 C.2       2 UNK         0.4918 
     21 O          21.6787  -24.8139  -44.8211 O.2       2 UNK        -0.4875 
     22 CA         19.6989  -25.5373  -45.9207 C.3       2 UNK         0.0481 
     23 CB         20.3007  -26.1330  -47.2060 C.3       2 UNK        -0.1831 
     24 N          18.4361  -26.2287  -45.6389 N.am      2 UNK        -0.4498 
     25 C          17.3138  -25.6072  -45.2502 C.2       1 UNK         0.5027 
     26 O          17.2642  -24.4188  -44.9174 O.2       1 UNK        -0.4969 
     27 C          22.8805  -27.4862  -43.5922 C.2       3 UNK         0.5005 
     28 O          23.9560  -26.8930  -43.4844 O.2       3 UNK        -0.5279 
     29 N          22.6827  -28.5355  -44.4065 N.am      4 UNK        -0.4463 
     30 CA         23.6101  -28.9862  -45.4475 C.3       4 UNK         0.0283 
     31 CB         22.9238  -30.0442  -46.3261 C.3       4 UNK        -0.1875 
     32 C          24.9779  -29.4833  -44.9509 C.2       4 UNK         0.4949 
     33 O          25.9689  -29.2528  -45.6453 O.2       4 UNK        -0.5039 
     34 N          25.0225  -30.1399  -43.7837 N.am      5 UNK        -0.4663 
     35 CA         26.2740  -30.5398  -43.1307 C.3       5 UNK         0.0242 
     36 CB         26.2729  -32.0512  -42.8395 C.3       5 UNK        -0.1982 
     37 C          26.4875  -29.7142  -41.8564 C.2       5 UNK         0.5017 
     38 O          27.5513  -29.1148  -41.6963 O.2       5 UNK        -0.5012 
     39 N          25.4662  -29.6755  -40.9946 N.am      6 UNK        -0.4439 
     40 CA         25.3944  -28.8940  -39.7624 C.3       6 UNK         0.0297 
     41 CB         26.3767  -29.4408  -38.6985 C.3       6 UNK        -0.2006 
     42 C          23.9209  -28.9196  -39.3372 C.2       6 UNK         0.4892 
     43 O          23.0619  -28.6074  -40.1605 O.2       6 UNK        -0.5089 
     44 N          23.6350  -29.3658  -38.1055 N.am      7 UNK        -0.4243 
     45 CA         22.2935  -29.7829  -37.6784 C.3       7 UNK         0.0196 
     46 CB         22.2813  -29.9788  -36.1542 C.3       7 UNK        -0.2007 
     47 C          21.8259  -31.0660  -38.3969 C.2       7 UNK         0.5020 
     48 O          20.6226  -31.2902  -38.5194 O.2       7 UNK        -0.5147 
     49 N          22.7866  -31.8702  -38.8717 N.am      8 UNK        -0.4734 
     50 CA         22.5744  -32.9715  -39.8059 C.3       8 UNK         0.0238 
     51 CB         23.6967  -34.0049  -39.6129 C.3       8 UNK        -0.1912 
     52 C          22.5770  -32.4504  -41.2524 C.2       8 UNK         0.5038 
     53 O          23.1972  -31.4212  -41.5399 O.2       8 UNK        -0.5046 
     54 N          21.9196  -33.2022  -42.1370 N.am      9 UNK        -0.4200 
     55 CA         21.8642  -32.9665  -43.5824 C.3       9 UNK         0.0839 
     56 C          22.1973  -34.2841  -44.3245 C.2       9 UNK         0.5513 
     57 N          22.9006  -34.2079  -45.4453 N.am      9 UNK        -0.7519 
     58 O          21.7967  -35.3704  -43.9098 O.2       9 UNK        -0.4960 
     59 C59        20.4790  -32.4230  -44.0229 C.3       10 UNK        -0.0876 
     60 S60        20.1585  -30.7226  -43.4462 S.3       10 UNK        -0.2414 
     61 C61        19.1728  -31.0283  -41.9444 C.3       10 UNK         0.0169 
     62 H62        13.0633  -23.8146  -45.9797 H         1 UNK         0.0903 
     63 H63        12.4758  -24.6729  -47.4058 H         1 UNK         0.0903 
     64 H64        11.7921  -25.0274  -45.8166 H         1 UNK         0.0903 
     65 H65        15.0897  -24.5705  -45.3127 H         1 UNK         0.3096 
     66 H66        16.1122  -27.1056  -46.1568 H         1 UNK         0.1121 
     67 H67        15.0028  -28.0372  -44.2387 H         1 UNK         0.0849 
     68 H68        16.6865  -27.9017  -43.8329 H         1 UNK         0.0849 
     69 H69        14.8165  -28.5188  -41.5354 H         1 UNK         0.0865 
     70 H70        15.0457  -27.2842  -40.3221 H         1 UNK         0.0865 
     71 H71        16.6457  -30.0023  -42.0333 H         1 UNK         0.1346 
     72 H72        20.5874  -29.1547  -40.5875 H         1 UNK         0.1412 
     73 H73        17.4588  -26.2597  -40.1055 H         1 UNK         0.1426 
     74 H74        21.0491  -27.0797  -39.4006 H         1 UNK         0.0716 
     75 H75        19.6969  -26.1576  -38.7970 H         1 UNK         0.0716 
     76 H76        22.6490  -26.2465  -41.0753 H         1 UNK         0.0695 
     77 H77        22.4035  -25.0137  -42.2698 H         1 UNK         0.0695 
     78 H78        21.2227  -27.8304  -42.3495 H         1 UNK         0.0983 
     79 H79        19.7726  -27.1485  -43.8989 H         1 UNK         0.3095 
     80 H80        19.5060  -24.4792  -46.1113 H         1 UNK         0.0454 
     81 H81        19.6173  -26.0313  -48.0492 H         1 UNK         0.0851 
     82 H82        20.5389  -27.1912  -47.0910 H         1 UNK         0.0851 
     83 H83        21.2246  -25.6214  -47.4801 H         1 UNK         0.0851 
     84 H84        18.3916  -27.2055  -45.8939 H         1 UNK         0.2976 
     85 H85        21.7756  -28.9818  -44.3953 H         1 UNK         0.3116 
     86 H86        23.8077  -28.1183  -46.0806 H         1 UNK         0.0646 
     87 H87        23.5910  -30.3868  -47.1184 H         1 UNK         0.0847 
     88 H88        22.0332  -29.6421  -46.8093 H         1 UNK         0.0847 
     89 H89        22.6253  -30.9186  -45.7511 H         1 UNK         0.0847 
     90 H90        24.1662  -30.2777  -43.2604 H         1 UNK         0.3040 
     91 H91        27.1284  -30.3414  -43.7818 H         1 UNK         0.1015 
     92 H92        26.1188  -32.6280  -43.7514 H         1 UNK         0.0786 
     93 H93        25.5015  -32.3409  -42.1287 H         1 UNK         0.0786 
     94 H94        27.2295  -32.3620  -42.4177 H         1 UNK         0.0786 
     95 H95        24.6111  -30.1827  -41.2212 H         1 UNK         0.3172 
     96 H96        25.6500  -27.8571  -39.9887 H         1 UNK         0.0595 
     97 H97        26.1898  -30.4905  -38.4689 H         1 UNK         0.0839 
     98 H98        26.3143  -28.8726  -37.7695 H         1 UNK         0.0839 
     99 H99        27.4102  -29.3623  -39.0352 H         1 UNK         0.0839 
    100 H100       24.3985  -29.5770  -37.4793 H         1 UNK         0.2998 
    101 H101       21.5875  -28.9890  -37.9301 H         1 UNK         0.0822 
    102 H102       22.9732  -30.7616  -35.8407 H         1 UNK         0.0787 
    103 H103       22.5529  -29.0601  -35.6338 H         1 UNK         0.0787 
    104 H104       21.2872  -30.2644  -35.8073 H         1 UNK         0.0787 
    105 H105       23.7435  -31.5793  -38.7441 H         1 UNK         0.3055 
    106 H106       21.6114  -33.4440  -39.5979 H         1 UNK         0.1106 
    107 H107       23.5604  -34.8619  -40.2739 H         1 UNK         0.0828 
    108 H108       24.6790  -33.5818  -39.8281 H         1 UNK         0.0828 
    109 H109       23.7127  -34.3861  -38.5917 H         1 UNK         0.0828 
    110 H110       21.4988  -34.0711  -41.8382 H         1 UNK         0.2931 
    111 H111       22.6301  -32.2391  -43.8567 H         1 UNK         0.0412 
    112 H112       23.2321  -33.3252  -45.8000 H         1 UNK         0.3472 
    113 H113       23.1136  -35.0574  -45.9452 H         1 UNK         0.3472 
    114 H114       20.4120  -32.4009  -45.1124 H         1 UNK         0.0970 
    115 H115       19.6776  -33.0856  -43.6908 H         1 UNK         0.0970 
    116 H116       18.3369  -31.6868  -42.1849 H         1 UNK         0.0612 
    117 H117       19.7767  -31.5477  -41.2008 H         1 UNK         0.0612 
@<TRIPOS>BOND
     1    1    2 1    
     2    1   62 1    
     3    1   63 1    
     4    1   64 1    
     5    2    3 2    
     6    2    4 am   BACKBONE|DICT|INTERRES
     7    4    5 1    
     8    4   65 1    
     9    5    6 1    
    10    5   25 1    
    11    5   66 1    
    12    6    7 1    
    13    6   67 1    
    14    6   68 1    
    15    7    8 1    
    16    8    9 1    
    17    8   69 1    
    18    8   70 1    
    19    9   10 ar   
    20    9   14 ar   
    21   10   11 ar   
    22   10   71 1    
    23   11   12 ar   
    24   11   61 1    
    25   12   13 ar   
    26   12   72 1    
    27   13   14 ar   
    28   13   15 1    
    29   14   73 1    
    30   15   16 1    
    31   15   74 1    
    32   15   75 1    
    33   16   17 1    
    34   17   18 1    
    35   17   76 1    
    36   17   77 1    
    37   18   19 1    
    38   18   27 1    
    39   18   78 1    
    40   19   20 am   BACKBONE|DICT|INTERRES
    41   19   79 1    
    42   20   21 2    
    43   20   22 1    
    44   22   23 1    
    45   22   24 1    
    46   22   80 1    
    47   23   81 1    
    48   23   82 1    
    49   23   83 1    
    50   24   25 am   BACKBONE|DICT|INTERRES
    51   24   84 1    
    52   25   26 2    
    53   27   28 2    
    54   27   29 am   BACKBONE|DICT|INTERRES
    55   29   30 1    
    56   29   85 1    
    57   30   31 1    
    58   30   32 1    
    59   30   86 1    
    60   31   87 1    
    61   31   88 1    
    62   31   89 1    
    63   32   33 2    
    64   32   34 am   BACKBONE|DICT|INTERRES
    65   34   35 1    
    66   34   90 1    
    67   35   36 1    
    68   35   37 1    
    69   35   91 1    
    70   36   92 1    
    71   36   93 1    
    72   36   94 1    
    73   37   38 2    
    74   37   39 am   BACKBONE|DICT|INTERRES
    75   39   40 1    
    76   39   95 1    
    77   40   41 1    
    78   40   42 1    
    79   40   96 1    
    80   41   97 1    
    81   41   98 1    
    82   41   99 1    
    83   42   43 2    
    84   42   44 am   BACKBONE|DICT|INTERRES
    85   44   45 1    
    86   44  100 1    
    87   45   46 1    
    88   45   47 1    
    89   45  101 1    
    90   46  102 1    
    91   46  103 1    
    92   46  104 1    
    93   47   48 2    
    94   47   49 am   BACKBONE|DICT|INTERRES
    95   49   50 1    
    96   49  105 1    
    97   50   51 1    
    98   50   52 1    
    99   50  106 1    
   100   51  107 1    
   101   51  108 1    
   102   51  109 1    
   103   52   53 2    
   104   52   54 am   BACKBONE|DICT|INTERRES
   105   54   55 1    
   106   54  110 1    
   107   55   56 1    
   108   55   59 1    
   109   55  111 1    
   110   56   57 am   BACKBONE|DICT|INTERRES
   111   56   58 2    
   112   57  112 1    
   113   57  113 1    
   114   59   60 1    
   115   59  114 1    
   116   59  115 1    
   117   60   61 1    
   118   61  116 1    
   119   61  117 1    
@<TRIPOS>SUBSTRUCTURE
     1 UNK         1 GROUP             0       ****    0 ROOT    
