@<TRIPOS>MOLECULE
3R8
117   119    1
SMALL
USER_CHARGES


@<TRIPOS>ATOM
      1 CA         18.9962  -23.5732  -39.4119 C.3       0 UNK        -0.2013 
      2 C          18.4297  -24.2839  -40.6323 C.2       0 UNK         0.4866 
      3 O          17.2402  -24.1428  -40.9180 O.2       0 UNK        -0.5176 
      4 N          19.2677  -25.0403  -41.3483 N.am      1 UNK        -0.4884 
      5 CA         18.9100  -25.7923  -42.5519 C.3       1 UNK         0.0853 
      6 C6         18.9210  -27.3214  -42.3010 C.3       10 UNK        -0.0849 
      7 S7         17.4137  -27.9015  -41.4548 S.3       10 UNK        -0.2776 
      8 C8         16.4121  -28.5222  -42.8495 C.3       10 UNK         0.0316 
      9 C9         16.9960  -29.7854  -43.4720 C.ar      10 UNK        -0.0863 
     10 C10        16.7808  -31.0307  -42.8730 C.ar      10 UNK        -0.1009 
     11 C11        17.3145  -32.1983  -43.4302 C.ar      10 UNK        -0.0712 
     12 C12        18.0575  -32.1036  -44.6147 C.ar      10 UNK        -0.0894 
     13 C13        18.3103  -30.8638  -45.2042 C.ar      10 UNK        -0.0745 
     14 C14        17.7517  -29.7115  -44.6462 C.ar      10 UNK        -0.0972 
     15 C15        19.2152  -30.7726  -46.4256 C.3       10 UNK         0.0209 
     16 S16        20.9602  -31.1174  -46.0084 S.3       10 UNK        -0.2568 
     17 C17        21.3862  -29.7046  -44.9370 C.3       10 UNK        -0.0983 
     18 CA         22.2543  -28.6428  -45.6728 C.3       3 UNK         0.0876 
     19 N          21.6586  -27.3124  -45.6090 N.am      3 UNK        -0.4424 
     20 C          20.7668  -26.8086  -46.4646 C.2       2 UNK         0.4918 
     21 O          20.3325  -27.4183  -47.4425 O.2       2 UNK        -0.4875 
     22 CA         20.2381  -25.4008  -46.1302 C.3       2 UNK         0.0481 
     23 CB         19.3983  -24.7965  -47.2707 C.3       2 UNK        -0.1831 
     24 N          19.4238  -25.4580  -44.9151 N.am      2 UNK        -0.4498 
     25 C          19.9093  -25.4515  -43.6665 C.2       1 UNK         0.5027 
     26 O          21.0995  -25.2734  -43.3983 O.2       1 UNK        -0.4969 
     27 C          23.6711  -28.5453  -45.0849 C.2       3 UNK         0.5005 
     28 O          23.9686  -27.5914  -44.3592 O.2       3 UNK        -0.5279 
     29 N          24.5137  -29.5447  -45.3810 N.am      4 UNK        -0.4463 
     30 CA         25.9311  -29.6060  -44.9945 C.3       4 UNK         0.0283 
     31 CB         26.5667  -30.8649  -45.6064 C.3       4 UNK        -0.1875 
     32 C          26.1988  -29.5579  -43.4775 C.2       4 UNK         0.4949 
     33 O          27.2730  -29.1158  -43.0701 O.2       4 UNK        -0.5039 
     34 N          25.2225  -29.9954  -42.6722 N.am      5 UNK        -0.4663 
     35 CA         25.2654  -29.9454  -41.2093 C.3       5 UNK         0.0242 
     36 CB         24.2941  -30.9988  -40.6537 C.3       5 UNK        -0.1982 
     37 C          24.9392  -28.5582  -40.6233 C.2       5 UNK         0.5017 
     38 O          25.1072  -28.3785  -39.4176 O.2       5 UNK        -0.5012 
     39 N          24.4387  -27.6233  -41.4484 N.am      6 UNK        -0.4439 
     40 CA         23.9669  -26.2649  -41.1269 C.3       6 UNK         0.0297 
     41 CB         25.0762  -25.4111  -40.4818 C.3       6 UNK        -0.2006 
     42 C          22.6627  -26.2003  -40.3055 C.2       6 UNK         0.4892 
     43 O          21.9614  -25.1922  -40.3820 O.2       6 UNK        -0.5089 
     44 N          22.3323  -27.2621  -39.5681 N.am      7 UNK        -0.4243 
     45 CA         21.0628  -27.4878  -38.8922 C.3       7 UNK         0.0196 
     46 CB         21.1303  -26.9764  -37.4439 C.3       7 UNK        -0.2007 
     47 C          20.8041  -28.9951  -38.9551 C.2       7 UNK         0.5020 
     48 O          21.7138  -29.7705  -38.6523 O.2       7 UNK        -0.5147 
     49 N          19.5862  -29.3720  -39.3641 N.am      8 UNK        -0.4734 
     50 CA         19.1490  -30.7329  -39.7037 C.3       8 UNK         0.0238 
     51 CB         19.2120  -31.6611  -38.4687 C.3       8 UNK        -0.1912 
     52 C          19.8880  -31.3049  -40.9346 C.2       8 UNK         0.5038 
     53 O          20.5460  -30.5613  -41.6663 O.2       8 UNK        -0.5046 
     54 N          19.7220  -32.6138  -41.1610 N.am      9 UNK        -0.4200 
     55 CA         20.3373  -33.3667  -42.2608 C.3       9 UNK         0.0839 
     56 C          21.8765  -33.4604  -42.0854 C.2       9 UNK         0.5513 
     57 N          22.6426  -33.1592  -43.1257 N.am      9 UNK        -0.7519 
     58 O          22.3713  -33.8607  -41.0340 O.2       9 UNK        -0.4960 
     59 C59        19.7167  -34.7872  -42.3920 C.3       10 UNK        -0.0876 
     60 S60        18.1024  -34.9401  -43.2483 S.3       10 UNK        -0.2414 
     61 C61        17.0646  -33.5293  -42.7158 C.3       10 UNK         0.0169 
     62 H62        20.0533  -23.7901  -39.2637 H         1 UNK         0.0903 
     63 H63        18.8841  -22.4947  -39.5198 H         1 UNK         0.0903 
     64 H64        18.4603  -23.8842  -38.5156 H         1 UNK         0.0903 
     65 H65        20.2593  -25.0644  -41.1064 H         1 UNK         0.3096 
     66 H66        17.9194  -25.4929  -42.9018 H         1 UNK         0.1121 
     67 H67        19.7929  -27.6087  -41.7115 H         1 UNK         0.0849 
     68 H68        19.0281  -27.8743  -43.2316 H         1 UNK         0.0849 
     69 H69        16.3062  -27.7364  -43.5989 H         1 UNK         0.0865 
     70 H70        15.4033  -28.7306  -42.4899 H         1 UNK         0.0865 
     71 H71        16.2010  -31.0884  -41.9617 H         1 UNK         0.1346 
     72 H72        18.4860  -32.9851  -45.0687 H         1 UNK         0.1412 
     73 H73        17.9315  -28.7531  -45.1134 H         1 UNK         0.1426 
     74 H74        19.1435  -29.7898  -46.8929 H         1 UNK         0.0716 
     75 H75        18.8820  -31.4926  -47.1742 H         1 UNK         0.0716 
     76 H76        21.8812  -30.1060  -44.0502 H         1 UNK         0.0695 
     77 H77        20.4707  -29.2597  -44.5504 H         1 UNK         0.0695 
     78 H78        22.3706  -28.9060  -46.7269 H         1 UNK         0.0983 
     79 H79        22.0007  -26.7352  -44.8468 H         1 UNK         0.3095 
     80 H80        21.0982  -24.7477  -45.9671 H         1 UNK         0.0454 
     81 H81        18.5108  -25.3933  -47.4845 H         1 UNK         0.0851 
     82 H82        19.9796  -24.7361  -48.1917 H         1 UNK         0.0851 
     83 H83        19.0717  -23.7850  -47.0289 H         1 UNK         0.0851 
     84 H84        18.4393  -25.6356  -45.0545 H         1 UNK         0.2976 
     85 H85        24.1752  -30.3009  -45.9602 H         1 UNK         0.3116 
     86 H86        26.4209  -28.7328  -45.4307 H         1 UNK         0.0646 
     87 H87        26.0947  -31.7762  -45.2369 H         1 UNK         0.0847 
     88 H88        27.6279  -30.9261  -45.3602 H         1 UNK         0.0847 
     89 H89        26.4904  -30.8623  -46.6938 H         1 UNK         0.0847 
     90 H90        24.3746  -30.3470  -43.0928 H         1 UNK         0.3040 
     91 H91        26.2737  -30.2035  -40.8772 H         1 UNK         0.1015 
     92 H92        24.5648  -32.0017  -40.9832 H         1 UNK         0.0786 
     93 H93        23.2665  -30.8065  -40.9659 H         1 UNK         0.0786 
     94 H94        24.3015  -31.0079  -39.5628 H         1 UNK         0.0786 
     95 H95        24.3387  -27.8684  -42.4302 H         1 UNK         0.3172 
     96 H96        23.7317  -25.8133  -42.0922 H         1 UNK         0.0595 
     97 H97        25.3375  -25.7637  -39.4839 H         1 UNK         0.0839 
     98 H98        24.7548  -24.3736  -40.3809 H         1 UNK         0.0839 
     99 H99        25.9817  -25.4123  -41.0884 H         1 UNK         0.0839 
    100 H100       22.9784  -28.0427  -39.5243 H         1 UNK         0.2998 
    101 H101       20.2647  -26.9616  -39.4193 H         1 UNK         0.0822 
    102 H102       21.3204  -25.9034  -37.4126 H         1 UNK         0.0787 
    103 H103       20.1889  -27.1565  -36.9236 H         1 UNK         0.0787 
    104 H104       21.9193  -27.4737  -36.8783 H         1 UNK         0.0787 
    105 H105       18.9298  -28.6483  -39.6283 H         1 UNK         0.3055 
    106 H106       18.1027  -30.6415  -39.9998 H         1 UNK         0.1106 
    107 H107       18.6537  -32.5832  -38.6316 H         1 UNK         0.0828 
    108 H108       18.7770  -31.1816  -37.5918 H         1 UNK         0.0828 
    109 H109       20.2372  -31.9389  -38.2210 H         1 UNK         0.0828 
    110 H110       19.1924  -33.1567  -40.4978 H         1 UNK         0.2931 
    111 H111       20.1530  -32.8203  -43.1848 H         1 UNK         0.0412 
    112 H112       22.2347  -32.8501  -43.9947 H         1 UNK         0.3472 
    113 H113       23.6414  -33.2573  -43.0421 H         1 UNK         0.3472 
    114 H114       20.3910  -35.4360  -42.9554 H         1 UNK         0.0970 
    115 H115       19.6333  -35.2565  -41.4101 H         1 UNK         0.0970 
    116 H116       16.0246  -33.8047  -42.8946 H         1 UNK         0.0612 
    117 H117       17.1592  -33.4053  -41.6368 H         1 UNK         0.0612 
@<TRIPOS>BOND
     1    1    2 1    
     2    1   62 1    
     3    1   63 1    
     4    1   64 1    
     5    2    3 2    
     6    2    4 am   BACKBONE|DICT|INTERRES
     7    4    5 1    
     8    4   65 1    
     9    5    6 1    
    10    5   25 1    
    11    5   66 1    
    12    6    7 1    
    13    6   67 1    
    14    6   68 1    
    15    7    8 1    
    16    8    9 1    
    17    8   69 1    
    18    8   70 1    
    19    9   10 ar   
    20    9   14 ar   
    21   10   11 ar   
    22   10   71 1    
    23   11   12 ar   
    24   11   61 1    
    25   12   13 ar   
    26   12   72 1    
    27   13   14 ar   
    28   13   15 1    
    29   14   73 1    
    30   15   16 1    
    31   15   74 1    
    32   15   75 1    
    33   16   17 1    
    34   17   18 1    
    35   17   76 1    
    36   17   77 1    
    37   18   19 1    
    38   18   27 1    
    39   18   78 1    
    40   19   20 am   BACKBONE|DICT|INTERRES
    41   19   79 1    
    42   20   21 2    
    43   20   22 1    
    44   22   23 1    
    45   22   24 1    
    46   22   80 1    
    47   23   81 1    
    48   23   82 1    
    49   23   83 1    
    50   24   25 am   BACKBONE|DICT|INTERRES
    51   24   84 1    
    52   25   26 2    
    53   27   28 2    
    54   27   29 am   BACKBONE|DICT|INTERRES
    55   29   30 1    
    56   29   85 1    
    57   30   31 1    
    58   30   32 1    
    59   30   86 1    
    60   31   87 1    
    61   31   88 1    
    62   31   89 1    
    63   32   33 2    
    64   32   34 am   BACKBONE|DICT|INTERRES
    65   34   35 1    
    66   34   90 1    
    67   35   36 1    
    68   35   37 1    
    69   35   91 1    
    70   36   92 1    
    71   36   93 1    
    72   36   94 1    
    73   37   38 2    
    74   37   39 am   BACKBONE|DICT|INTERRES
    75   39   40 1    
    76   39   95 1    
    77   40   41 1    
    78   40   42 1    
    79   40   96 1    
    80   41   97 1    
    81   41   98 1    
    82   41   99 1    
    83   42   43 2    
    84   42   44 am   BACKBONE|DICT|INTERRES
    85   44   45 1    
    86   44  100 1    
    87   45   46 1    
    88   45   47 1    
    89   45  101 1    
    90   46  102 1    
    91   46  103 1    
    92   46  104 1    
    93   47   48 2    
    94   47   49 am   BACKBONE|DICT|INTERRES
    95   49   50 1    
    96   49  105 1    
    97   50   51 1    
    98   50   52 1    
    99   50  106 1    
   100   51  107 1    
   101   51  108 1    
   102   51  109 1    
   103   52   53 2    
   104   52   54 am   BACKBONE|DICT|INTERRES
   105   54   55 1    
   106   54  110 1    
   107   55   56 1    
   108   55   59 1    
   109   55  111 1    
   110   56   57 am   BACKBONE|DICT|INTERRES
   111   56   58 2    
   112   57  112 1    
   113   57  113 1    
   114   59   60 1    
   115   59  114 1    
   116   59  115 1    
   117   60   61 1    
   118   61  116 1    
   119   61  117 1    
@<TRIPOS>SUBSTRUCTURE
     1 UNK         1 GROUP             0       ****    0 ROOT    
