@<TRIPOS>MOLECULE
3R8
117   119    1
SMALL
USER_CHARGES


@<TRIPOS>ATOM
      1 CA         19.5864  -31.4102  -48.6203 C.3       0 UNK        -0.2013 
      2 C          19.0051  -30.0387  -48.3118 C.2       0 UNK         0.4866 
      3 O          19.0773  -29.1419  -49.1518 O.2       0 UNK        -0.5176 
      4 N          18.4373  -29.8749  -47.1094 N.am      1 UNK        -0.4884 
      5 CA         17.8811  -28.6272  -46.5698 C.3       1 UNK         0.0853 
      6 C6         16.6793  -28.0911  -47.3988 C.3       10 UNK        -0.0849 
      7 S7         15.5617  -26.9609  -46.4961 S.3       10 UNK        -0.2776 
      8 C8         14.5197  -28.0977  -45.5247 C.3       10 UNK         0.0316 
      9 C9         15.1802  -28.4873  -44.2087 C.ar      10 UNK        -0.0863 
     10 C10        15.5650  -29.8089  -43.9706 C.ar      10 UNK        -0.1009 
     11 C11        16.1770  -30.1665  -42.7648 C.ar      10 UNK        -0.0712 
     12 C12        16.3689  -29.1939  -41.7769 C.ar      10 UNK        -0.0894 
     13 C13        15.9851  -27.8651  -41.9995 C.ar      10 UNK        -0.0745 
     14 C14        15.3925  -27.5234  -43.2189 C.ar      10 UNK        -0.0972 
     15 C15        16.1468  -26.7913  -40.9242 C.3       10 UNK         0.0209 
     16 S16        17.7434  -26.8295  -40.0413 S.3       10 UNK        -0.2568 
     17 C17        18.9489  -26.5223  -41.3793 C.3       10 UNK        -0.0983 
     18 CA         19.7667  -27.7981  -41.7294 C.3       3 UNK         0.0876 
     19 N          20.1729  -27.8377  -43.1349 N.am      3 UNK        -0.4424 
     20 C          21.0460  -27.0340  -43.7577 C.2       2 UNK         0.4918 
     21 O          21.6641  -26.1249  -43.2034 O.2       2 UNK        -0.4875 
     22 CA         21.2458  -27.2778  -45.2684 C.3       2 UNK         0.0481 
     23 CB         22.5860  -27.9738  -45.5407 C.3       2 UNK        -0.1831 
     24 N          20.1637  -28.0827  -45.8465 N.am      2 UNK        -0.4498 
     25 C          18.9809  -27.5881  -46.2433 C.2       1 UNK         0.5027 
     26 O          18.7480  -26.3806  -46.3124 O.2       1 UNK        -0.4969 
     27 C          20.9295  -28.1134  -40.7575 C.2       3 UNK         0.5005 
     28 O          21.8916  -28.7855  -41.1380 O.2       3 UNK        -0.5279 
     29 N          20.7951  -27.6771  -39.5000 N.am      4 UNK        -0.4463 
     30 CA         21.6972  -27.9637  -38.3806 C.3       4 UNK         0.0283 
     31 CB         20.9402  -27.7105  -37.0656 C.3       4 UNK        -0.1875 
     32 C          23.0248  -27.1822  -38.4054 C.2       4 UNK         0.4949 
     33 O          23.8314  -27.3491  -37.4892 O.2       4 UNK        -0.5039 
     34 N          23.2482  -26.3493  -39.4307 N.am      5 UNK        -0.4663 
     35 CA         24.4629  -25.5597  -39.6495 C.3       5 UNK         0.0242 
     36 CB         24.1446  -24.4421  -40.6603 C.3       5 UNK        -0.1982 
     37 C          25.6434  -26.4434  -40.0995 C.2       5 UNK         0.5017 
     38 O          26.0794  -26.3544  -41.2479 O.2       5 UNK        -0.5012 
     39 N          26.0952  -27.3271  -39.1983 N.am      6 UNK        -0.4439 
     40 CA         27.1685  -28.3285  -39.3146 C.3       6 UNK         0.0297 
     41 CB         28.5233  -27.6629  -39.6256 C.3       6 UNK        -0.2006 
     42 C          26.8878  -29.4872  -40.2931 C.2       6 UNK         0.4892 
     43 O          27.4147  -30.5808  -40.0868 O.2       6 UNK        -0.5089 
     44 N          26.0723  -29.2430  -41.3250 N.am      7 UNK        -0.4243 
     45 CA         25.6989  -30.1943  -42.3719 C.3       7 UNK         0.0196 
     46 CB         25.0002  -29.4227  -43.4998 C.3       7 UNK        -0.2007 
     47 C          24.8015  -31.3482  -41.8932 C.2       7 UNK         0.5020 
     48 O          24.7974  -32.3975  -42.5373 O.2       7 UNK        -0.5147 
     49 N          24.0431  -31.1308  -40.8064 N.am      8 UNK        -0.4734 
     50 CA         23.0684  -32.0562  -40.2078 C.3       8 UNK         0.0238 
     51 CB         23.7853  -33.2627  -39.5653 C.3       8 UNK        -0.1912 
     52 C          21.9772  -32.4673  -41.2163 C.2       8 UNK         0.5038 
     53 O          21.7781  -33.6554  -41.4739 O.2       8 UNK        -0.5046 
     54 N          21.3338  -31.4475  -41.7955 N.am      9 UNK        -0.4200 
     55 CA         20.3940  -31.4865  -42.9254 C.3       9 UNK         0.0839 
     56 C          21.0893  -31.4658  -44.3155 C.2       9 UNK         0.5513 
     57 N          22.3390  -31.8893  -44.4512 N.am      9 UNK        -0.7519 
     58 O          20.5050  -30.9784  -45.2787 O.2       9 UNK        -0.4960 
     59 C59        19.2860  -32.5698  -42.8032 C.3       10 UNK        -0.0876 
     60 S60        17.7874  -32.1911  -43.7785 S.3       10 UNK        -0.2414 
     61 C61        16.5950  -31.6114  -42.5241 C.3       10 UNK         0.0169 
     62 H62        19.0918  -31.8423  -49.4897 H         1 UNK         0.0903 
     63 H63        20.6505  -31.3247  -48.8385 H         1 UNK         0.0903 
     64 H64        19.4691  -32.0994  -47.7838 H         1 UNK         0.0903 
     65 H65        18.4763  -30.6461  -46.4534 H         1 UNK         0.3096 
     66 H66        17.4974  -28.9113  -45.5927 H         1 UNK         0.1121 
     67 H67        16.0797  -28.9257  -47.7655 H         1 UNK         0.0849 
     68 H68        17.0370  -27.5752  -48.2914 H         1 UNK         0.0849 
     69 H69        13.5725  -27.6023  -45.3066 H         1 UNK         0.0865 
     70 H70        14.2702  -28.9767  -46.1210 H         1 UNK         0.0865 
     71 H71        15.4003  -30.5631  -44.7284 H         1 UNK         0.1346 
     72 H72        16.8112  -29.4712  -40.8300 H         1 UNK         0.1412 
     73 H73        15.0845  -26.5024  -43.4011 H         1 UNK         0.1426 
     74 H74        15.3460  -26.9143  -40.1940 H         1 UNK         0.0716 
     75 H75        16.0190  -25.7958  -41.3525 H         1 UNK         0.0716 
     76 H76        19.6015  -25.6910  -41.1056 H         1 UNK         0.0695 
     77 H77        18.3973  -26.1791  -42.2565 H         1 UNK         0.0695 
     78 H78        19.0970  -28.6517  -41.6296 H         1 UNK         0.0983 
     79 H79        19.7301  -28.5493  -43.6942 H         1 UNK         0.3095 
     80 H80        21.2716  -26.3019  -45.7575 H         1 UNK         0.0454 
     81 H81        22.6158  -28.9715  -45.1049 H         1 UNK         0.0851 
     82 H82        23.4154  -27.4032  -45.1207 H         1 UNK         0.0851 
     83 H83        22.7704  -28.0721  -46.6105 H         1 UNK         0.0851 
     84 H84        20.2912  -29.0916  -45.8491 H         1 UNK         0.2976 
     85 H85        19.9600  -27.1471  -39.2810 H         1 UNK         0.3116 
     86 H86        21.9571  -29.0235  -38.4206 H         1 UNK         0.0646 
     87 H87        20.6583  -26.6623  -36.9581 H         1 UNK         0.0847 
     88 H88        21.5518  -27.9730  -36.2011 H         1 UNK         0.0847 
     89 H89        20.0319  -28.3106  -37.0071 H         1 UNK         0.0847 
     90 H90        22.5522  -26.3107  -40.1616 H         1 UNK         0.3040 
     91 H91        24.7498  -25.0871  -38.7072 H         1 UNK         0.1015 
     92 H92        23.8194  -24.8457  -41.6206 H         1 UNK         0.0786 
     93 H93        25.0221  -23.8215  -40.8467 H         1 UNK         0.0786 
     94 H94        23.3575  -23.7849  -40.2902 H         1 UNK         0.0786 
     95 H95        25.5668  -27.3661  -38.3291 H         1 UNK         0.3172 
     96 H96        27.2473  -28.7807  -38.3247 H         1 UNK         0.0595 
     97 H97        28.5365  -27.2055  -40.6154 H         1 UNK         0.0839 
     98 H98        29.3310  -28.3955  -39.5991 H         1 UNK         0.0839 
     99 H99        28.7636  -26.8905  -38.8951 H         1 UNK         0.0839 
    100 H100       25.7577  -28.2855  -41.4419 H         1 UNK         0.2998 
    101 H101       26.6161  -30.6347  -42.7685 H         1 UNK         0.0822 
    102 H102       25.6429  -28.6423  -43.9079 H         1 UNK         0.0787 
    103 H103       24.7353  -30.0874  -44.3230 H         1 UNK         0.0787 
    104 H104       24.0817  -28.9520  -43.1455 H         1 UNK         0.0787 
    105 H105       24.0835  -30.2073  -40.3975 H         1 UNK         0.3055 
    106 H106       22.5611  -31.5105  -39.4103 H         1 UNK         0.1106 
    107 H107       24.2934  -33.8780  -40.3085 H         1 UNK         0.0828 
    108 H108       23.0751  -33.9054  -39.0435 H         1 UNK         0.0828 
    109 H109       24.5275  -32.9395  -38.8354 H         1 UNK         0.0828 
    110 H110       21.6326  -30.5081  -41.5356 H         1 UNK         0.2931 
    111 H111       19.8836  -30.5289  -42.8520 H         1 UNK         0.0412 
    112 H112       22.7698  -31.8492  -45.3605 H         1 UNK         0.3472 
    113 H113       22.8550  -32.2656  -43.6674 H         1 UNK         0.3472 
    114 H114       19.0063  -32.7053  -41.7582 H         1 UNK         0.0970 
    115 H115       19.6671  -33.5400  -43.1270 H         1 UNK         0.0970 
    116 H116       17.0012  -31.7325  -41.5195 H         1 UNK         0.0612 
    117 H117       15.7081  -32.2448  -42.5704 H         1 UNK         0.0612 
@<TRIPOS>BOND
     1    1    2 1    
     2    1   62 1    
     3    1   63 1    
     4    1   64 1    
     5    2    3 2    
     6    2    4 am   BACKBONE|DICT|INTERRES
     7    4    5 1    
     8    4   65 1    
     9    5    6 1    
    10    5   25 1    
    11    5   66 1    
    12    6    7 1    
    13    6   67 1    
    14    6   68 1    
    15    7    8 1    
    16    8    9 1    
    17    8   69 1    
    18    8   70 1    
    19    9   10 ar   
    20    9   14 ar   
    21   10   11 ar   
    22   10   71 1    
    23   11   12 ar   
    24   11   61 1    
    25   12   13 ar   
    26   12   72 1    
    27   13   14 ar   
    28   13   15 1    
    29   14   73 1    
    30   15   16 1    
    31   15   74 1    
    32   15   75 1    
    33   16   17 1    
    34   17   18 1    
    35   17   76 1    
    36   17   77 1    
    37   18   19 1    
    38   18   27 1    
    39   18   78 1    
    40   19   20 am   BACKBONE|DICT|INTERRES
    41   19   79 1    
    42   20   21 2    
    43   20   22 1    
    44   22   23 1    
    45   22   24 1    
    46   22   80 1    
    47   23   81 1    
    48   23   82 1    
    49   23   83 1    
    50   24   25 am   BACKBONE|DICT|INTERRES
    51   24   84 1    
    52   25   26 2    
    53   27   28 2    
    54   27   29 am   BACKBONE|DICT|INTERRES
    55   29   30 1    
    56   29   85 1    
    57   30   31 1    
    58   30   32 1    
    59   30   86 1    
    60   31   87 1    
    61   31   88 1    
    62   31   89 1    
    63   32   33 2    
    64   32   34 am   BACKBONE|DICT|INTERRES
    65   34   35 1    
    66   34   90 1    
    67   35   36 1    
    68   35   37 1    
    69   35   91 1    
    70   36   92 1    
    71   36   93 1    
    72   36   94 1    
    73   37   38 2    
    74   37   39 am   BACKBONE|DICT|INTERRES
    75   39   40 1    
    76   39   95 1    
    77   40   41 1    
    78   40   42 1    
    79   40   96 1    
    80   41   97 1    
    81   41   98 1    
    82   41   99 1    
    83   42   43 2    
    84   42   44 am   BACKBONE|DICT|INTERRES
    85   44   45 1    
    86   44  100 1    
    87   45   46 1    
    88   45   47 1    
    89   45  101 1    
    90   46  102 1    
    91   46  103 1    
    92   46  104 1    
    93   47   48 2    
    94   47   49 am   BACKBONE|DICT|INTERRES
    95   49   50 1    
    96   49  105 1    
    97   50   51 1    
    98   50   52 1    
    99   50  106 1    
   100   51  107 1    
   101   51  108 1    
   102   51  109 1    
   103   52   53 2    
   104   52   54 am   BACKBONE|DICT|INTERRES
   105   54   55 1    
   106   54  110 1    
   107   55   56 1    
   108   55   59 1    
   109   55  111 1    
   110   56   57 am   BACKBONE|DICT|INTERRES
   111   56   58 2    
   112   57  112 1    
   113   57  113 1    
   114   59   60 1    
   115   59  114 1    
   116   59  115 1    
   117   60   61 1    
   118   61  116 1    
   119   61  117 1    
@<TRIPOS>SUBSTRUCTURE
     1 UNK         1 GROUP             0       ****    0 ROOT    
