@<TRIPOS>MOLECULE
3R8
117   119    1
SMALL
USER_CHARGES


@<TRIPOS>ATOM
      1 CA         17.7783  -26.2566  -48.0014 C.3       0 UNK        -0.2013 
      2 C          17.6088  -24.8821  -47.3618 C.2       0 UNK         0.4866 
      3 O          17.5341  -23.8888  -48.0821 O.2       0 UNK        -0.5176 
      4 N          17.5501  -24.7586  -46.0292 N.am      1 UNK        -0.4884 
      5 CA         17.6440  -25.8256  -45.0212 C.3       1 UNK         0.0853 
      6 C6         16.3112  -26.0148  -44.2473 C.3       10 UNK        -0.0849 
      7 S7         15.0375  -26.7776  -45.3112 S.3       10 UNK        -0.2776 
      8 C8         14.6937  -28.3618  -44.4625 C.3       10 UNK         0.0316 
      9 C9         15.9314  -29.2112  -44.1745 C.ar      10 UNK        -0.0863 
     10 C10        16.0688  -29.8298  -42.9272 C.ar      10 UNK        -0.1009 
     11 C11        17.1880  -30.6154  -42.6320 C.ar      10 UNK        -0.0712 
     12 C12        18.1963  -30.7479  -43.5940 C.ar      10 UNK        -0.0894 
     13 C13        18.0657  -30.1548  -44.8515 C.ar      10 UNK        -0.0745 
     14 C14        16.9230  -29.4040  -45.1421 C.ar      10 UNK        -0.0972 
     15 C15        19.1398  -30.3472  -45.9107 C.3       10 UNK         0.0209 
     16 S16        20.1254  -28.8354  -46.1431 S.3       10 UNK        -0.2568 
     17 C17        21.7348  -29.2305  -45.3605 C.3       10 UNK        -0.0983 
     18 CA         22.1115  -28.3342  -44.1482 C.3       3 UNK         0.0876 
     19 N          21.6937  -26.9428  -44.3440 N.am      3 UNK        -0.4424 
     20 C          21.9126  -25.8962  -43.5377 C.2       2 UNK         0.4918 
     21 O          22.6194  -25.9397  -42.5309 O.2       2 UNK        -0.4875 
     22 CA         21.1412  -24.6051  -43.8737 C.3       2 UNK         0.0481 
     23 CB         22.0180  -23.6656  -44.7148 C.3       2 UNK        -0.1831 
     24 N          19.8652  -24.8434  -44.5679 N.am      2 UNK        -0.4498 
     25 C          18.8502  -25.5855  -44.0907 C.2       1 UNK         0.5027 
     26 O          18.8786  -26.1161  -42.9809 O.2       1 UNK        -0.4969 
     27 C          21.6630  -28.9537  -42.8064 C.2       3 UNK         0.5005 
     28 O          22.3357  -29.8696  -42.3293 O.2       3 UNK        -0.5279 
     29 N          20.6043  -28.4201  -42.1760 N.am      4 UNK        -0.4463 
     30 CA         20.1866  -28.7803  -40.8178 C.3       4 UNK         0.0283 
     31 CB         18.8724  -28.0615  -40.4745 C.3       4 UNK        -0.1875 
     32 C          21.2468  -28.4668  -39.7473 C.2       4 UNK         0.4949 
     33 O          21.3100  -29.1754  -38.7436 O.2       4 UNK        -0.5039 
     34 N          22.0607  -27.4306  -39.9873 N.am      5 UNK        -0.4663 
     35 CA         23.1891  -27.0448  -39.1440 C.3       5 UNK         0.0242 
     36 CB         23.1521  -25.5258  -38.9057 C.3       5 UNK        -0.1982 
     37 C          24.5149  -27.4618  -39.7929 C.2       5 UNK         0.5017 
     38 O          25.3300  -28.1063  -39.1342 O.2       5 UNK        -0.5012 
     39 N          24.7046  -27.0991  -41.0705 N.am      6 UNK        -0.4439 
     40 CA         25.9586  -27.2572  -41.8147 C.3       6 UNK         0.0297 
     41 CB         25.8718  -26.4752  -43.1355 C.3       6 UNK        -0.2006 
     42 C          26.3690  -28.7155  -42.0780 C.2       6 UNK         0.4892 
     43 O          27.5672  -28.9954  -42.1272 O.2       6 UNK        -0.5089 
     44 N          25.3844  -29.6094  -42.2332 N.am      7 UNK        -0.4243 
     45 CA         25.5834  -31.0503  -42.4105 C.3       7 UNK         0.0196 
     46 CB         25.0230  -31.4665  -43.7835 C.3       7 UNK        -0.2007 
     47 C          24.9282  -31.8518  -41.2725 C.2       7 UNK         0.5020 
     48 O          24.8481  -33.0760  -41.3747 O.2       7 UNK        -0.5147 
     49 N          24.4402  -31.1612  -40.2281 N.am      8 UNK        -0.4734 
     50 CA         23.7057  -31.6906  -39.0691 C.3       8 UNK         0.0238 
     51 CB         24.6614  -32.4826  -38.1518 C.3       8 UNK        -0.1912 
     52 C          22.4425  -32.4989  -39.4428 C.2       8 UNK         0.5038 
     53 O          22.0633  -33.4093  -38.7035 O.2       8 UNK        -0.5046 
     54 N          21.8305  -32.1727  -40.5910 N.am      9 UNK        -0.4200 
     55 CA         20.7398  -32.9249  -41.2298 C.3       9 UNK         0.0839 
     56 C          21.1584  -34.3261  -41.7817 C.2       9 UNK         0.5513 
     57 N          22.4425  -34.6269  -41.9386 N.am      9 UNK        -0.7519 
     58 O          20.3109  -35.1544  -42.1030 O.2       9 UNK        -0.4960 
     59 C59        19.4447  -32.9486  -40.3624 C.3       10 UNK        -0.0876 
     60 S60        17.9031  -33.0108  -41.3471 S.3       10 UNK        -0.2414 
     61 C61        17.2908  -31.2927  -41.2660 C.3       10 UNK         0.0169 
     62 H62        16.9953  -26.9404  -47.6761 H         1 UNK         0.0903 
     63 H63        17.7182  -26.1826  -49.0871 H         1 UNK         0.0903 
     64 H64        18.7497  -26.6813  -47.7523 H         1 UNK         0.0903 
     65 H65        17.4283  -23.8304  -45.6466 H         1 UNK         0.3096 
     66 H66        17.8830  -26.7783  -45.4918 H         1 UNK         0.1121 
     67 H67        15.9396  -25.0571  -43.8795 H         1 UNK         0.0849 
     68 H68        16.4431  -26.6411  -43.3633 H         1 UNK         0.0849 
     69 H69        14.1613  -28.1392  -43.5363 H         1 UNK         0.0865 
     70 H70        14.0063  -28.9453  -45.0762 H         1 UNK         0.0865 
     71 H71        15.2957  -29.7040  -42.1812 H         1 UNK         0.1346 
     72 H72        19.0756  -31.3324  -43.3767 H         1 UNK         0.1412 
     73 H73        16.8147  -28.9555  -46.1198 H         1 UNK         0.1426 
     74 H74        18.6611  -30.5957  -46.8590 H         1 UNK         0.0716 
     75 H75        19.7807  -31.1961  -45.6698 H         1 UNK         0.0716 
     76 H76        22.4884  -29.0914  -46.1372 H         1 UNK         0.0695 
     77 H77        21.7911  -30.2910  -45.1082 H         1 UNK         0.0695 
     78 H78        23.2013  -28.3149  -44.0957 H         1 UNK         0.0983 
     79 H79        21.0912  -26.8012  -45.1417 H         1 UNK         0.3095 
     80 H80        20.9137  -24.1075  -42.9289 H         1 UNK         0.0454 
     81 H81        22.9624  -23.4574  -44.2096 H         1 UNK         0.0851 
     82 H82        21.5264  -22.7074  -44.8831 H         1 UNK         0.0851 
     83 H83        22.2577  -24.0967  -45.6876 H         1 UNK         0.0851 
     84 H84        19.7632  -24.4383  -45.4880 H         1 UNK         0.2976 
     85 H85        20.0895  -27.6637  -42.6170 H         1 UNK         0.3116 
     86 H86        20.0158  -29.8569  -40.8060 H         1 UNK         0.0646 
     87 H87        18.1043  -28.2476  -41.2248 H         1 UNK         0.0847 
     88 H88        19.0106  -26.9817  -40.4060 H         1 UNK         0.0847 
     89 H89        18.4815  -28.4001  -39.5143 H         1 UNK         0.0847 
     90 H90        21.9467  -26.9175  -40.8541 H         1 UNK         0.3040 
     91 H91        23.1263  -27.5386  -38.1713 H         1 UNK         0.1015 
     92 H92        23.9964  -25.2057  -38.2935 H         1 UNK         0.0786 
     93 H93        22.2428  -25.2331  -38.3804 H         1 UNK         0.0786 
     94 H94        23.1922  -24.9627  -39.8392 H         1 UNK         0.0786 
     95 H95        23.9639  -26.5856  -41.5455 H         1 UNK         0.3172 
     96 H96        26.7492  -26.8054  -41.2117 H         1 UNK         0.0595 
     97 H97        25.0918  -26.8646  -43.7893 H         1 UNK         0.0839 
     98 H98        26.8131  -26.5308  -43.6842 H         1 UNK         0.0839 
     99 H99        25.6635  -25.4196  -42.9594 H         1 UNK         0.0839 
    100 H100       24.4199  -29.3055  -42.1745 H         1 UNK         0.2998 
    101 H101       26.6463  -31.2989  -42.3881 H         1 UNK         0.0822 
    102 H102       25.4806  -30.8918  -44.5888 H         1 UNK         0.0787 
    103 H103       25.2233  -32.5195  -43.9855 H         1 UNK         0.0787 
    104 H104       23.9437  -31.3257  -43.8421 H         1 UNK         0.0787 
    105 H105       24.5905  -30.1617  -40.2226 H         1 UNK         0.3055 
    106 H106       23.3533  -30.8257  -38.5059 H         1 UNK         0.1106 
    107 H107       25.0102  -33.3995  -38.6281 H         1 UNK         0.0828 
    108 H108       24.1685  -32.7664  -37.2212 H         1 UNK         0.0828 
    109 H109       25.5358  -31.8895  -37.8838 H         1 UNK         0.0828 
    110 H110       22.2052  -31.4039  -41.1403 H         1 UNK         0.2931 
    111 H111       20.5310  -32.3376  -42.1211 H         1 UNK         0.0412 
    112 H112       23.1783  -33.9749  -41.6822 H         1 UNK         0.3472 
    113 H113       22.6891  -35.5323  -42.3048 H         1 UNK         0.3472 
    114 H114       19.4097  -32.0768  -39.7085 H         1 UNK         0.0970 
    115 H115       19.4575  -33.8048  -39.6854 H         1 UNK         0.0970 
    116 H116       17.9126  -30.6890  -40.6103 H         1 UNK         0.0612 
    117 H117       16.3083  -31.3241  -40.7927 H         1 UNK         0.0612 
@<TRIPOS>BOND
     1    1    2 1    
     2    1   62 1    
     3    1   63 1    
     4    1   64 1    
     5    2    3 2    
     6    2    4 am   BACKBONE|DICT|INTERRES
     7    4    5 1    
     8    4   65 1    
     9    5    6 1    
    10    5   25 1    
    11    5   66 1    
    12    6    7 1    
    13    6   67 1    
    14    6   68 1    
    15    7    8 1    
    16    8    9 1    
    17    8   69 1    
    18    8   70 1    
    19    9   10 ar   
    20    9   14 ar   
    21   10   11 ar   
    22   10   71 1    
    23   11   12 ar   
    24   11   61 1    
    25   12   13 ar   
    26   12   72 1    
    27   13   14 ar   
    28   13   15 1    
    29   14   73 1    
    30   15   16 1    
    31   15   74 1    
    32   15   75 1    
    33   16   17 1    
    34   17   18 1    
    35   17   76 1    
    36   17   77 1    
    37   18   19 1    
    38   18   27 1    
    39   18   78 1    
    40   19   20 am   BACKBONE|DICT|INTERRES
    41   19   79 1    
    42   20   21 2    
    43   20   22 1    
    44   22   23 1    
    45   22   24 1    
    46   22   80 1    
    47   23   81 1    
    48   23   82 1    
    49   23   83 1    
    50   24   25 am   BACKBONE|DICT|INTERRES
    51   24   84 1    
    52   25   26 2    
    53   27   28 2    
    54   27   29 am   BACKBONE|DICT|INTERRES
    55   29   30 1    
    56   29   85 1    
    57   30   31 1    
    58   30   32 1    
    59   30   86 1    
    60   31   87 1    
    61   31   88 1    
    62   31   89 1    
    63   32   33 2    
    64   32   34 am   BACKBONE|DICT|INTERRES
    65   34   35 1    
    66   34   90 1    
    67   35   36 1    
    68   35   37 1    
    69   35   91 1    
    70   36   92 1    
    71   36   93 1    
    72   36   94 1    
    73   37   38 2    
    74   37   39 am   BACKBONE|DICT|INTERRES
    75   39   40 1    
    76   39   95 1    
    77   40   41 1    
    78   40   42 1    
    79   40   96 1    
    80   41   97 1    
    81   41   98 1    
    82   41   99 1    
    83   42   43 2    
    84   42   44 am   BACKBONE|DICT|INTERRES
    85   44   45 1    
    86   44  100 1    
    87   45   46 1    
    88   45   47 1    
    89   45  101 1    
    90   46  102 1    
    91   46  103 1    
    92   46  104 1    
    93   47   48 2    
    94   47   49 am   BACKBONE|DICT|INTERRES
    95   49   50 1    
    96   49  105 1    
    97   50   51 1    
    98   50   52 1    
    99   50  106 1    
   100   51  107 1    
   101   51  108 1    
   102   51  109 1    
   103   52   53 2    
   104   52   54 am   BACKBONE|DICT|INTERRES
   105   54   55 1    
   106   54  110 1    
   107   55   56 1    
   108   55   59 1    
   109   55  111 1    
   110   56   57 am   BACKBONE|DICT|INTERRES
   111   56   58 2    
   112   57  112 1    
   113   57  113 1    
   114   59   60 1    
   115   59  114 1    
   116   59  115 1    
   117   60   61 1    
   118   61  116 1    
   119   61  117 1    
@<TRIPOS>SUBSTRUCTURE
     1 UNK         1 GROUP             0       ****    0 ROOT    
