@<TRIPOS>MOLECULE
3R8
117   119    1
SMALL
USER_CHARGES


@<TRIPOS>ATOM
      1 CA         12.3318  -24.1287  -43.5026 C.3       0 UNK        -0.2013 
      2 C          13.7127  -24.0738  -44.1392 C.2       0 UNK         0.4866 
      3 O          14.2551  -22.9845  -44.3269 O.2       0 UNK        -0.5176 
      4 N          14.2734  -25.2397  -44.4815 N.am      1 UNK        -0.4884 
      5 CA         15.6165  -25.4102  -45.0403 C.3       1 UNK         0.0853 
      6 C6         15.6619  -26.5698  -46.0743 C.3       10 UNK        -0.0849 
      7 S7         14.9711  -28.1632  -45.4872 S.3       10 UNK        -0.2776 
      8 C8         15.9621  -29.3755  -46.4170 C.3       10 UNK         0.0316 
      9 C9         17.4095  -29.4119  -45.9486 C.ar      10 UNK        -0.0863 
     10 C10        17.7558  -30.0961  -44.7796 C.ar      10 UNK        -0.1009 
     11 C11        19.0865  -30.1404  -44.3525 C.ar      10 UNK        -0.0712 
     12 C12        20.0740  -29.5017  -45.1075 C.ar      10 UNK        -0.0894 
     13 C13        19.7373  -28.8032  -46.2709 C.ar      10 UNK        -0.0745 
     14 C14        18.4055  -28.7710  -46.6906 C.ar      10 UNK        -0.0972 
     15 C15        20.8031  -28.0844  -47.0845 C.3       10 UNK         0.0209 
     16 S16        21.0272  -26.3625  -46.5292 S.3       10 UNK        -0.2568 
     17 C17        22.0931  -26.5897  -45.0662 C.3       10 UNK        -0.0983 
     18 CA         21.4525  -26.1180  -43.7345 C.3       3 UNK         0.0876 
     19 N          20.1131  -26.6749  -43.5146 N.am      3 UNK        -0.4424 
     20 C          19.3158  -26.3830  -42.4780 C.2       2 UNK         0.4918 
     21 O          19.6038  -25.5702  -41.5969 O.2       2 UNK        -0.4875 
     22 CA         17.9579  -27.1091  -42.4449 C.3       2 UNK         0.0481 
     23 CB         17.2189  -26.9309  -41.1021 C.3       2 UNK        -0.1831 
     24 N          17.0812  -26.7365  -43.5620 N.am      2 UNK        -0.4498 
     25 C          16.6406  -25.5109  -43.8873 C.2       1 UNK         0.5027 
     26 O          16.9832  -24.4813  -43.3039 O.2       1 UNK        -0.4969 
     27 C          22.3967  -26.4708  -42.5672 C.2       3 UNK         0.5005 
     28 O          22.5837  -27.6570  -42.2857 O.2       3 UNK        -0.5279 
     29 N          23.0082  -25.4546  -41.9407 N.am      4 UNK        -0.4463 
     30 CA         23.9349  -25.6094  -40.8105 C.3       4 UNK         0.0283 
     31 CB         24.3354  -24.2241  -40.2793 C.3       4 UNK        -0.1875 
     32 C          25.1872  -26.4395  -41.1443 C.2       4 UNK         0.4949 
     33 O          25.6963  -27.1462  -40.2750 O.2       4 UNK        -0.5039 
     34 N          25.6260  -26.3809  -42.4097 N.am      5 UNK        -0.4663 
     35 CA         26.7372  -27.1622  -42.9595 C.3       5 UNK         0.0242 
     36 CB         27.0508  -26.6539  -44.3762 C.3       5 UNK        -0.1982 
     37 C          26.4906  -28.6832  -42.9784 C.2       5 UNK         0.5017 
     38 O          27.4613  -29.4400  -43.0095 O.2       5 UNK        -0.5012 
     39 N          25.2179  -29.1081  -42.9496 N.am      6 UNK        -0.4439 
     40 CA         24.8229  -30.5167  -42.8690 C.3       6 UNK         0.0297 
     41 CB         23.4425  -30.6915  -43.5204 C.3       6 UNK        -0.2006 
     42 C          24.8158  -31.0538  -41.4253 C.2       6 UNK         0.4892 
     43 O          24.6883  -32.2668  -41.2500 O.2       6 UNK        -0.5089 
     44 N          24.9462  -30.1642  -40.4259 N.am      7 UNK        -0.4243 
     45 CA         24.9570  -30.4366  -38.9852 C.3       7 UNK         0.0196 
     46 CB         26.2711  -31.1434  -38.5808 C.3       7 UNK        -0.2007 
     47 C          23.6805  -31.1726  -38.5363 C.2       7 UNK         0.5020 
     48 O          22.6119  -30.5618  -38.5094 O.2       7 UNK        -0.5147 
     49 N          23.8048  -32.4664  -38.2129 N.am      8 UNK        -0.4734 
     50 CA         22.6971  -33.3521  -37.8430 C.3       8 UNK         0.0238 
     51 CB         23.2694  -34.5978  -37.1456 C.3       8 UNK        -0.1912 
     52 C          21.7997  -33.7620  -39.0278 C.2       8 UNK         0.5038 
     53 O          20.7113  -34.2864  -38.7883 O.2       8 UNK        -0.5046 
     54 N          22.2575  -33.5315  -40.2676 N.am      9 UNK        -0.4200 
     55 CA         21.5707  -33.8786  -41.5227 C.3       9 UNK         0.0839 
     56 C          21.5331  -35.4070  -41.8350 C.2       9 UNK         0.5513 
     57 N          22.3720  -36.2255  -41.2103 N.am      9 UNK        -0.7519 
     58 O          20.7544  -35.8623  -42.6686 O.2       9 UNK        -0.4960 
     59 C59        20.1852  -33.1767  -41.6604 C.3       10 UNK        -0.0876 
     60 S60        19.8458  -32.6037  -43.3605 S.3       10 UNK        -0.2414 
     61 C61        19.4523  -30.8550  -43.0616 C.3       10 UNK         0.0169 
     62 H62        11.6183  -23.5668  -44.1048 H         1 UNK         0.0903 
     63 H63        11.9651  -25.1508  -43.4092 H         1 UNK         0.0903 
     64 H64        12.3602  -23.6867  -42.5070 H         1 UNK         0.0903 
     65 H65        13.7802  -26.1032  -44.2985 H         1 UNK         0.3096 
     66 H66        15.8835  -24.5023  -45.5869 H         1 UNK         0.1121 
     67 H67        16.6817  -26.6996  -46.4348 H         1 UNK         0.0849 
     68 H68        15.0866  -26.2790  -46.9548 H         1 UNK         0.0849 
     69 H69        15.5173  -30.3641  -46.2923 H         1 UNK         0.0865 
     70 H70        15.9035  -29.1514  -47.4835 H         1 UNK         0.0865 
     71 H71        16.9884  -30.5916  -44.2001 H         1 UNK         0.1346 
     72 H72        21.1025  -29.5405  -44.7800 H         1 UNK         0.1412 
     73 H73        18.1452  -28.2408  -47.5969 H         1 UNK         0.1426 
     74 H74        20.5168  -28.0739  -48.1374 H         1 UNK         0.0716 
     75 H75        21.7510  -28.6229  -47.0396 H         1 UNK         0.0716 
     76 H76        23.0137  -26.0324  -45.2500 H         1 UNK         0.0695 
     77 H77        22.3969  -27.6355  -45.0028 H         1 UNK         0.0695 
     78 H78        21.3381  -25.0329  -43.7794 H         1 UNK         0.0983 
     79 H79        19.7952  -27.3410  -44.2048 H         1 UNK         0.3095 
     80 H80        18.1688  -28.1721  -42.5540 H         1 UNK         0.0454 
     81 H81        16.9628  -25.8880  -40.9127 H         1 UNK         0.0851 
     82 H82        17.8372  -27.2693  -40.2697 H         1 UNK         0.0851 
     83 H83        16.2970  -27.5116  -41.0773 H         1 UNK         0.0851 
     84 H84        16.7322  -27.5073  -44.1198 H         1 UNK         0.2976 
     85 H85        22.7989  -24.5080  -42.2256 H         1 UNK         0.3116 
     86 H86        23.3987  -26.1364  -40.0182 H         1 UNK         0.0646 
     87 H87        24.8522  -23.6330  -41.0364 H         1 UNK         0.0847 
     88 H88        25.0064  -24.3141  -39.4236 H         1 UNK         0.0847 
     89 H89        23.4651  -23.6586  -39.9458 H         1 UNK         0.0847 
     90 H90        25.1432  -25.7668  -43.0492 H         1 UNK         0.3040 
     91 H91        27.6114  -26.9872  -42.3283 H         1 UNK         0.1015 
     92 H92        26.2028  -26.7853  -45.0497 H         1 UNK         0.0786 
     93 H93        27.8953  -27.1940  -44.8070 H         1 UNK         0.0786 
     94 H94        27.3160  -25.5964  -44.3699 H         1 UNK         0.0786 
     95 H95        24.4693  -28.4267  -42.8798 H         1 UNK         0.3172 
     96 H96        25.5357  -31.1183  -43.4368 H         1 UNK         0.0595 
     97 H97        22.6610  -30.1992  -42.9426 H         1 UNK         0.0839 
     98 H98        23.1763  -31.7459  -43.5936 H         1 UNK         0.0839 
     99 H99        23.4258  -30.2861  -44.5320 H         1 UNK         0.0839 
    100 H100       25.0365  -29.1859  -40.6725 H         1 UNK         0.2998 
    101 H101       24.9396  -29.4653  -38.4881 H         1 UNK         0.0822 
    102 H102       27.1333  -30.5197  -38.8180 H         1 UNK         0.0787 
    103 H103       26.3027  -31.3334  -37.5069 H         1 UNK         0.0787 
    104 H104       26.4090  -32.0960  -39.0935 H         1 UNK         0.0787 
    105 H105       24.7198  -32.8876  -38.2898 H         1 UNK         0.3055 
    106 H106       22.0595  -32.8232  -37.1307 H         1 UNK         0.1106 
    107 H107       23.9251  -35.1665  -37.8060 H         1 UNK         0.0828 
    108 H108       22.4709  -35.2682  -36.8241 H         1 UNK         0.0828 
    109 H109       23.8389  -34.3286  -36.2559 H         1 UNK         0.0828 
    110 H110       23.1734  -33.1061  -40.3827 H         1 UNK         0.2931 
    111 H111       22.2277  -33.4667  -42.2880 H         1 UNK         0.0412 
    112 H112       23.0294  -35.8665  -40.5369 H         1 UNK         0.3472 
    113 H113       22.3498  -37.2111  -41.4209 H         1 UNK         0.3472 
    114 H114       20.1388  -32.3115  -40.9973 H         1 UNK         0.0970 
    115 H115       19.3751  -33.8306  -41.3321 H         1 UNK         0.0970 
    116 H116       18.6245  -30.7892  -42.3538 H         1 UNK         0.0612 
    117 H117       20.3026  -30.3630  -42.5872 H         1 UNK         0.0612 
@<TRIPOS>BOND
     1    1    2 1    
     2    1   62 1    
     3    1   63 1    
     4    1   64 1    
     5    2    3 2    
     6    2    4 am   BACKBONE|DICT|INTERRES
     7    4    5 1    
     8    4   65 1    
     9    5    6 1    
    10    5   25 1    
    11    5   66 1    
    12    6    7 1    
    13    6   67 1    
    14    6   68 1    
    15    7    8 1    
    16    8    9 1    
    17    8   69 1    
    18    8   70 1    
    19    9   10 ar   
    20    9   14 ar   
    21   10   11 ar   
    22   10   71 1    
    23   11   12 ar   
    24   11   61 1    
    25   12   13 ar   
    26   12   72 1    
    27   13   14 ar   
    28   13   15 1    
    29   14   73 1    
    30   15   16 1    
    31   15   74 1    
    32   15   75 1    
    33   16   17 1    
    34   17   18 1    
    35   17   76 1    
    36   17   77 1    
    37   18   19 1    
    38   18   27 1    
    39   18   78 1    
    40   19   20 am   BACKBONE|DICT|INTERRES
    41   19   79 1    
    42   20   21 2    
    43   20   22 1    
    44   22   23 1    
    45   22   24 1    
    46   22   80 1    
    47   23   81 1    
    48   23   82 1    
    49   23   83 1    
    50   24   25 am   BACKBONE|DICT|INTERRES
    51   24   84 1    
    52   25   26 2    
    53   27   28 2    
    54   27   29 am   BACKBONE|DICT|INTERRES
    55   29   30 1    
    56   29   85 1    
    57   30   31 1    
    58   30   32 1    
    59   30   86 1    
    60   31   87 1    
    61   31   88 1    
    62   31   89 1    
    63   32   33 2    
    64   32   34 am   BACKBONE|DICT|INTERRES
    65   34   35 1    
    66   34   90 1    
    67   35   36 1    
    68   35   37 1    
    69   35   91 1    
    70   36   92 1    
    71   36   93 1    
    72   36   94 1    
    73   37   38 2    
    74   37   39 am   BACKBONE|DICT|INTERRES
    75   39   40 1    
    76   39   95 1    
    77   40   41 1    
    78   40   42 1    
    79   40   96 1    
    80   41   97 1    
    81   41   98 1    
    82   41   99 1    
    83   42   43 2    
    84   42   44 am   BACKBONE|DICT|INTERRES
    85   44   45 1    
    86   44  100 1    
    87   45   46 1    
    88   45   47 1    
    89   45  101 1    
    90   46  102 1    
    91   46  103 1    
    92   46  104 1    
    93   47   48 2    
    94   47   49 am   BACKBONE|DICT|INTERRES
    95   49   50 1    
    96   49  105 1    
    97   50   51 1    
    98   50   52 1    
    99   50  106 1    
   100   51  107 1    
   101   51  108 1    
   102   51  109 1    
   103   52   53 2    
   104   52   54 am   BACKBONE|DICT|INTERRES
   105   54   55 1    
   106   54  110 1    
   107   55   56 1    
   108   55   59 1    
   109   55  111 1    
   110   56   57 am   BACKBONE|DICT|INTERRES
   111   56   58 2    
   112   57  112 1    
   113   57  113 1    
   114   59   60 1    
   115   59  114 1    
   116   59  115 1    
   117   60   61 1    
   118   61  116 1    
   119   61  117 1    
@<TRIPOS>SUBSTRUCTURE
     1 UNK         1 GROUP             0       ****    0 ROOT    
