@<TRIPOS>MOLECULE
3R8
117   119    1
SMALL
USER_CHARGES


@<TRIPOS>ATOM
      1 CA         19.8205  -25.3699  -50.6090 C.3       0 UNK        -0.2013 
      2 C          20.3540  -25.4937  -49.1895 C.2       0 UNK         0.4866 
      3 O          21.2456  -24.7377  -48.8017 O.2       0 UNK        -0.5176 
      4 N          19.8228  -26.4469  -48.4149 N.am      1 UNK        -0.4884 
      5 CA         20.1539  -26.6604  -47.0028 C.3       1 UNK         0.0853 
      6 C6         19.7820  -28.0958  -46.5382 C.3       10 UNK        -0.0849 
      7 S7         18.0212  -28.5241  -46.7732 S.3       10 UNK        -0.2776 
      8 C8         17.9468  -30.1768  -46.0146 C.3       10 UNK         0.0316 
      9 C9         17.9640  -30.1294  -44.4915 C.ar      10 UNK        -0.0863 
     10 C10        19.0598  -30.6274  -43.7800 C.ar      10 UNK        -0.1009 
     11 C11        19.0372  -30.6757  -42.3821 C.ar      10 UNK        -0.0712 
     12 C12        17.9163  -30.1996  -41.6955 C.ar      10 UNK        -0.0894 
     13 C13        16.8359  -29.6514  -42.3927 C.ar      10 UNK        -0.0745 
     14 C14        16.8600  -29.6328  -43.7910 C.ar      10 UNK        -0.0972 
     15 C15        15.6360  -29.0902  -41.6417 C.3       10 UNK         0.0209 
     16 S16        15.6616  -27.2677  -41.5878 S.3       10 UNK        -0.2568 
     17 C17        16.8523  -26.9172  -40.2463 C.3       10 UNK        -0.0983 
     18 CA         18.3112  -26.7767  -40.7444 C.3       3 UNK         0.0876 
     19 N          18.4554  -25.8049  -41.8310 N.am      3 UNK        -0.4424 
     20 C          19.5591  -25.6828  -42.5756 C.2       2 UNK         0.4918 
     21 O          20.5997  -26.3177  -42.3783 O.2       2 UNK        -0.4875 
     22 CA         19.4866  -24.7260  -43.7671 C.3       2 UNK         0.0481 
     23 CB         20.2755  -23.4342  -43.5034 C.3       2 UNK        -0.1831 
     24 N          20.0707  -25.4437  -44.8922 N.am      2 UNK        -0.4498 
     25 C          19.5114  -25.5875  -46.0964 C.2       1 UNK         0.5027 
     26 O          18.5178  -24.9587  -46.4737 O.2       1 UNK        -0.4969 
     27 C          19.2819  -26.4775  -39.5856 C.2       3 UNK         0.5005 
     28 O          19.5571  -25.3086  -39.3014 O.2       3 UNK        -0.5279 
     29 N          19.8216  -27.5445  -38.9782 N.am      4 UNK        -0.4463 
     30 CA         20.9040  -27.5825  -37.9822 C.3       4 UNK         0.0283 
     31 CB         20.5643  -26.7745  -36.7144 C.3       4 UNK        -0.1875 
     32 C          22.2805  -27.1876  -38.5498 C.2       4 UNK         0.4949 
     33 O          23.2568  -27.8883  -38.2868 O.2       4 UNK        -0.5039 
     34 N          22.3392  -26.1134  -39.3484 N.am      5 UNK        -0.4663 
     35 CA         23.5401  -25.6254  -40.0363 C.3       5 UNK         0.0242 
     36 CB         23.2253  -24.2860  -40.7183 C.3       5 UNK        -0.1982 
     37 C          24.1157  -26.6324  -41.0485 C.2       5 UNK         0.5017 
     38 O          25.3362  -26.7356  -41.1700 O.2       5 UNK        -0.5012 
     39 N          23.2315  -27.3885  -41.7153 N.am      6 UNK        -0.4439 
     40 CA         23.5659  -28.5072  -42.6031 C.3       6 UNK         0.0297 
     41 CB         22.3757  -28.7796  -43.5394 C.3       6 UNK        -0.2006 
     42 C          24.0394  -29.7874  -41.8764 C.2       6 UNK         0.4892 
     43 O          24.3680  -30.7612  -42.5563 O.2       6 UNK        -0.5089 
     44 N          24.0909  -29.7676  -40.5338 N.am      7 UNK        -0.4243 
     45 CA         24.6882  -30.7639  -39.6372 C.3       7 UNK         0.0196 
     46 CB         26.2297  -30.6995  -39.7291 C.3       7 UNK        -0.2007 
     47 C          24.1197  -32.1808  -39.8311 C.2       7 UNK         0.5020 
     48 O          23.0399  -32.4709  -39.3181 O.2       7 UNK        -0.5147 
     49 N          24.8571  -33.0339  -40.5553 N.am      8 UNK        -0.4734 
     50 CA         24.4895  -34.4156  -40.8805 C.3       8 UNK         0.0238 
     51 CB         25.7450  -35.1618  -41.3629 C.3       8 UNK        -0.1912 
     52 C          23.3552  -34.5389  -41.9163 C.2       8 UNK         0.5038 
     53 O          22.8254  -35.6385  -42.0822 O.2       8 UNK        -0.5046 
     54 N          23.0094  -33.4318  -42.5887 N.am      9 UNK        -0.4200 
     55 CA         21.9226  -33.3130  -43.5759 C.3       9 UNK         0.0839 
     56 C          22.2201  -33.9797  -44.9519 C.2       9 UNK         0.5513 
     57 N          23.4572  -34.3567  -45.2521 N.am      9 UNK        -0.7519 
     58 O          21.3223  -34.1293  -45.7767 O.2       9 UNK        -0.4960 
     59 C59        20.5144  -33.7028  -43.0218 C.3       10 UNK        -0.0876 
     60 S60        20.0925  -33.0338  -41.3708 S.3       10 UNK        -0.2414 
     61 C61        20.2203  -31.2361  -41.6063 C.3       10 UNK         0.0169 
     62 H62        19.0481  -26.1092  -50.8203 H         1 UNK         0.0903 
     63 H63        19.3931  -24.3795  -50.7636 H         1 UNK         0.0903 
     64 H64        20.6281  -25.5088  -51.3273 H         1 UNK         0.0903 
     65 H65        19.0644  -27.0159  -48.7649 H         1 UNK         0.3096 
     66 H66        21.2368  -26.5534  -46.9023 H         1 UNK         0.1121 
     67 H67        20.0392  -28.2406  -45.4873 H         1 UNK         0.0849 
     68 H68        20.3830  -28.8208  -47.0895 H         1 UNK         0.0849 
     69 H69        17.0275  -30.6667  -46.3388 H         1 UNK         0.0865 
     70 H70        18.7642  -30.7899  -46.3979 H         1 UNK         0.0865 
     71 H71        19.9201  -31.0015  -44.3161 H         1 UNK         0.1346 
     72 H72        17.8918  -30.2409  -40.6153 H         1 UNK         0.1412 
     73 H73        16.0164  -29.2316  -44.3365 H         1 UNK         0.1426 
     74 H74        15.5826  -29.4923  -40.6288 H         1 UNK         0.0716 
     75 H75        14.7207  -29.4106  -42.1415 H         1 UNK         0.0716 
     76 H76        16.7759  -27.7027  -39.4922 H         1 UNK         0.0695 
     77 H77        16.5331  -25.9961  -39.7546 H         1 UNK         0.0695 
     78 H78        18.6148  -27.7318  -41.1701 H         1 UNK         0.0983 
     79 H79        17.6402  -25.2500  -42.0453 H         1 UNK         0.3095 
     80 H80        18.4408  -24.4777  -43.9608 H         1 UNK         0.0454 
     81 H81        21.3400  -23.6288  -43.3737 H         1 UNK         0.0851 
     82 H82        19.9188  -22.9327  -42.6029 H         1 UNK         0.0851 
     83 H83        20.1666  -22.7337  -44.3313 H         1 UNK         0.0851 
     84 H84        20.8559  -26.0277  -44.6360 H         1 UNK         0.2976 
     85 H85        19.5250  -28.4566  -39.2955 H         1 UNK         0.3116 
     86 H86        20.9828  -28.6291  -37.6828 H         1 UNK         0.0646 
     87 H87        20.5186  -25.7024  -36.9070 H         1 UNK         0.0847 
     88 H88        21.3218  -26.9286  -35.9449 H         1 UNK         0.0847 
     89 H89        19.6073  -27.0809  -36.2925 H         1 UNK         0.0847 
     90 H90        21.4739  -25.6015  -39.4995 H         1 UNK         0.3040 
     91 H91        24.3078  -25.4532  -39.2786 H         1 UNK         0.1015 
     92 H92        22.4248  -24.3907  -41.4497 H         1 UNK         0.0786 
     93 H93        24.0997  -23.8958  -41.2410 H         1 UNK         0.0786 
     94 H94        22.9186  -23.5332  -39.9919 H         1 UNK         0.0786 
     95 H95        22.2458  -27.1589  -41.6251 H         1 UNK         0.3172 
     96 H96        24.4047  -28.1966  -43.2294 H         1 UNK         0.0595 
     97 H97        21.4451  -28.9036  -42.9872 H         1 UNK         0.0839 
     98 H98        22.5297  -29.6757  -44.1420 H         1 UNK         0.0839 
     99 H99        22.2349  -27.9507  -44.2321 H         1 UNK         0.0839 
    100 H100       23.7587  -28.9342  -40.0626 H         1 UNK         0.2998 
    101 H101       24.4120  -30.4654  -38.6244 H         1 UNK         0.0822 
    102 H102       26.5939  -29.7179  -39.4251 H         1 UNK         0.0787 
    103 H103       26.6960  -31.4314  -39.0679 H         1 UNK         0.0787 
    104 H104       26.5951  -30.8822  -40.7402 H         1 UNK         0.0787 
    105 H105       25.7147  -32.6857  -40.9600 H         1 UNK         0.3055 
    106 H106       24.1340  -34.8954  -39.9658 H         1 UNK         0.1106 
    107 H107       25.5199  -36.2068  -41.5814 H         1 UNK         0.0828 
    108 H108       26.1537  -34.7201  -42.2725 H         1 UNK         0.0828 
    109 H109       26.5276  -35.1549  -40.6039 H         1 UNK         0.0828 
    110 H110       23.5355  -32.5807  -42.4165 H         1 UNK         0.2931 
    111 H111       21.8928  -32.2508  -43.8135 H         1 UNK         0.0412 
    112 H112       23.6426  -34.7772  -46.1494 H         1 UNK         0.3472 
    113 H113       24.2051  -34.2244  -44.5905 H         1 UNK         0.3472 
    114 H114       20.4317  -34.7889  -42.9570 H         1 UNK         0.0970 
    115 H115       19.7336  -33.3978  -43.7197 H         1 UNK         0.0970 
    116 H116       21.1615  -30.9946  -42.0951 H         1 UNK         0.0612 
    117 H117       20.2736  -30.7664  -40.6231 H         1 UNK         0.0612 
@<TRIPOS>BOND
     1    1    2 1    
     2    1   62 1    
     3    1   63 1    
     4    1   64 1    
     5    2    3 2    
     6    2    4 am   BACKBONE|DICT|INTERRES
     7    4    5 1    
     8    4   65 1    
     9    5    6 1    
    10    5   25 1    
    11    5   66 1    
    12    6    7 1    
    13    6   67 1    
    14    6   68 1    
    15    7    8 1    
    16    8    9 1    
    17    8   69 1    
    18    8   70 1    
    19    9   10 ar   
    20    9   14 ar   
    21   10   11 ar   
    22   10   71 1    
    23   11   12 ar   
    24   11   61 1    
    25   12   13 ar   
    26   12   72 1    
    27   13   14 ar   
    28   13   15 1    
    29   14   73 1    
    30   15   16 1    
    31   15   74 1    
    32   15   75 1    
    33   16   17 1    
    34   17   18 1    
    35   17   76 1    
    36   17   77 1    
    37   18   19 1    
    38   18   27 1    
    39   18   78 1    
    40   19   20 am   BACKBONE|DICT|INTERRES
    41   19   79 1    
    42   20   21 2    
    43   20   22 1    
    44   22   23 1    
    45   22   24 1    
    46   22   80 1    
    47   23   81 1    
    48   23   82 1    
    49   23   83 1    
    50   24   25 am   BACKBONE|DICT|INTERRES
    51   24   84 1    
    52   25   26 2    
    53   27   28 2    
    54   27   29 am   BACKBONE|DICT|INTERRES
    55   29   30 1    
    56   29   85 1    
    57   30   31 1    
    58   30   32 1    
    59   30   86 1    
    60   31   87 1    
    61   31   88 1    
    62   31   89 1    
    63   32   33 2    
    64   32   34 am   BACKBONE|DICT|INTERRES
    65   34   35 1    
    66   34   90 1    
    67   35   36 1    
    68   35   37 1    
    69   35   91 1    
    70   36   92 1    
    71   36   93 1    
    72   36   94 1    
    73   37   38 2    
    74   37   39 am   BACKBONE|DICT|INTERRES
    75   39   40 1    
    76   39   95 1    
    77   40   41 1    
    78   40   42 1    
    79   40   96 1    
    80   41   97 1    
    81   41   98 1    
    82   41   99 1    
    83   42   43 2    
    84   42   44 am   BACKBONE|DICT|INTERRES
    85   44   45 1    
    86   44  100 1    
    87   45   46 1    
    88   45   47 1    
    89   45  101 1    
    90   46  102 1    
    91   46  103 1    
    92   46  104 1    
    93   47   48 2    
    94   47   49 am   BACKBONE|DICT|INTERRES
    95   49   50 1    
    96   49  105 1    
    97   50   51 1    
    98   50   52 1    
    99   50  106 1    
   100   51  107 1    
   101   51  108 1    
   102   51  109 1    
   103   52   53 2    
   104   52   54 am   BACKBONE|DICT|INTERRES
   105   54   55 1    
   106   54  110 1    
   107   55   56 1    
   108   55   59 1    
   109   55  111 1    
   110   56   57 am   BACKBONE|DICT|INTERRES
   111   56   58 2    
   112   57  112 1    
   113   57  113 1    
   114   59   60 1    
   115   59  114 1    
   116   59  115 1    
   117   60   61 1    
   118   61  116 1    
   119   61  117 1    
@<TRIPOS>SUBSTRUCTURE
     1 UNK         1 GROUP             0       ****    0 ROOT    
