@<TRIPOS>MOLECULE
3R8
117   119    1
SMALL
USER_CHARGES


@<TRIPOS>ATOM
      1 CA         13.8560  -25.6047  -44.8176 C.3       0 UNK        -0.2013 
      2 C          15.0692  -24.6887  -44.7598 C.2       0 UNK         0.4866 
      3 O          14.9165  -23.4793  -44.5896 O.2       0 UNK        -0.5176 
      4 N          16.2760  -25.2560  -44.8925 N.am      1 UNK        -0.4884 
      5 CA         17.5533  -24.5268  -44.8802 C.3       1 UNK         0.0853 
      6 C6         18.6261  -25.2632  -45.7363 C.3       10 UNK        -0.0849 
      7 S7         19.5575  -26.5968  -44.9004 S.3       10 UNK        -0.2776 
      8 C8         18.5936  -28.0895  -45.2920 C.3       10 UNK         0.0316 
      9 C9         19.1760  -29.2590  -44.5175 C.ar      10 UNK        -0.0863 
     10 C10        20.1863  -30.0408  -45.0819 C.ar      10 UNK        -0.1009 
     11 C11        20.8348  -31.0251  -44.3311 C.ar      10 UNK        -0.0712 
     12 C12        20.4633  -31.2040  -42.9914 C.ar      10 UNK        -0.0894 
     13 C13        19.4420  -30.4429  -42.4161 C.ar      10 UNK        -0.0745 
     14 C14        18.7701  -29.5009  -43.2024 C.ar      10 UNK        -0.0972 
     15 C15        19.0969  -30.6462  -40.9420 C.3       10 UNK         0.0209 
     16 S16        18.7763  -29.1004  -40.0196 S.3       10 UNK        -0.2568 
     17 C17        20.3746  -28.2102  -40.1033 C.3       10 UNK        -0.0983 
     18 CA         20.4516  -27.2101  -41.2917 C.3       3 UNK         0.0876 
     19 N          19.2792  -26.3334  -41.4159 N.am      3 UNK        -0.4424 
     20 C          18.9072  -25.3476  -40.5868 C.2       2 UNK         0.4918 
     21 O          19.5111  -25.0521  -39.5548 O.2       2 UNK        -0.4875 
     22 CA         17.6391  -24.5615  -40.9856 C.3       2 UNK         0.0481 
     23 CB         17.6771  -23.0947  -40.5069 C.3       2 UNK        -0.1831 
     24 N          17.3214  -24.6458  -42.4202 N.am      2 UNK        -0.4498 
     25 C          18.0423  -24.1741  -43.4525 C.2       1 UNK         0.5027 
     26 O          19.0872  -23.5365  -43.3170 O.2       1 UNK        -0.4969 
     27 C          21.7768  -26.4224  -41.3800 C.2       3 UNK         0.5005 
     28 O          22.7645  -26.7797  -40.7362 O.2       3 UNK        -0.5279 
     29 N          21.7726  -25.3589  -42.1994 N.am      4 UNK        -0.4463 
     30 CA         22.9429  -24.5410  -42.5171 C.3       4 UNK         0.0283 
     31 CB         22.4733  -23.1890  -43.0768 C.3       4 UNK        -0.1875 
     32 C          23.8947  -25.2304  -43.5098 C.2       4 UNK         0.4949 
     33 O          25.0849  -24.9160  -43.5119 O.2       4 UNK        -0.5039 
     34 N          23.3619  -26.1433  -44.3370 N.am      5 UNK        -0.4663 
     35 CA         24.1198  -26.9248  -45.3184 C.3       5 UNK         0.0242 
     36 CB         23.1401  -27.6583  -46.2494 C.3       5 UNK        -0.1982 
     37 C          25.0929  -27.9164  -44.6584 C.2       5 UNK         0.5017 
     38 O          26.2534  -27.9913  -45.0635 O.2       5 UNK        -0.5012 
     39 N          24.5982  -28.6326  -43.6444 N.am      6 UNK        -0.4439 
     40 CA         25.2987  -29.5935  -42.7990 C.3       6 UNK         0.0297 
     41 CB         25.7953  -30.8032  -43.6158 C.3       6 UNK        -0.2006 
     42 C          24.3222  -30.0241  -41.6969 C.2       6 UNK         0.4892 
     43 O          23.1130  -29.8393  -41.8507 O.2       6 UNK        -0.5089 
     44 N          24.8591  -30.5691  -40.6002 N.am      7 UNK        -0.4243 
     45 CA         24.0752  -31.0286  -39.4544 C.3       7 UNK         0.0196 
     46 CB         24.9824  -31.0926  -38.2149 C.3       7 UNK        -0.2007 
     47 C          23.4377  -32.4008  -39.7215 C.2       7 UNK         0.5020 
     48 O          24.1073  -33.2897  -40.2528 O.2       7 UNK        -0.5147 
     49 N          22.1821  -32.5555  -39.2793 N.am      8 UNK        -0.4734 
     50 CA         21.3419  -33.7619  -39.2939 C.3       8 UNK         0.0238 
     51 CB         21.9345  -34.8692  -38.3975 C.3       8 UNK        -0.1912 
     52 C          20.9971  -34.2894  -40.6983 C.2       8 UNK         0.5038 
     53 O          19.8296  -34.2379  -41.0843 O.2       8 UNK        -0.5046 
     54 N          22.0059  -34.7937  -41.4186 N.am      9 UNK        -0.4200 
     55 CA         21.9174  -35.4146  -42.7538 C.3       9 UNK         0.0839 
     56 C          21.0477  -36.7083  -42.8168 C.2       9 UNK         0.5513 
     57 N          20.8318  -37.4087  -41.7095 N.am      9 UNK        -0.7519 
     58 O          20.5875  -37.1062  -43.8842 O.2       9 UNK        -0.4960 
     59 C59        21.5724  -34.3945  -43.8761 C.3       10 UNK        -0.0876 
     60 S60        22.8122  -33.0614  -43.9789 S.3       10 UNK        -0.2414 
     61 C61        21.9485  -31.8269  -45.0101 C.3       10 UNK         0.0169 
     62 H62        14.1371  -26.6479  -44.9611 H         1 UNK         0.0903 
     63 H63        13.2857  -25.5315  -43.8919 H         1 UNK         0.0903 
     64 H64        13.2057  -25.3130  -45.6418 H         1 UNK         0.0903 
     65 H65        16.3397  -26.2532  -45.0359 H         1 UNK         0.3096 
     66 H66        17.3789  -23.5637  -45.3665 H         1 UNK         0.1121 
     67 H67        18.1869  -25.6473  -46.6586 H         1 UNK         0.0849 
     68 H68        19.3691  -24.5332  -46.0627 H         1 UNK         0.0849 
     69 H69        18.6249  -28.2809  -46.3659 H         1 UNK         0.0865 
     70 H70        17.5464  -27.9469  -45.0251 H         1 UNK         0.0865 
     71 H71        20.4957  -29.8568  -46.1020 H         1 UNK         0.1346 
     72 H72        20.9816  -31.9220  -42.3753 H         1 UNK         0.1412 
     73 H73        17.9849  -28.9004  -42.7649 H         1 UNK         0.1426 
     74 H74        19.8967  -31.1853  -40.4340 H         1 UNK         0.0716 
     75 H75        18.2120  -31.2805  -40.8799 H         1 UNK         0.0716 
     76 H76        21.1824  -28.9410  -40.1656 H         1 UNK         0.0695 
     77 H77        20.5134  -27.6821  -39.1586 H         1 UNK         0.0695 
     78 H78        20.4713  -27.8092  -42.1993 H         1 UNK         0.0983 
     79 H79        18.7125  -26.4873  -42.2363 H         1 UNK         0.3095 
     80 H80        16.8121  -25.0509  -40.4695 H         1 UNK         0.0454 
     81 H81        16.7762  -22.5569  -40.8018 H         1 UNK         0.0851 
     82 H82        18.5363  -22.5574  -40.9091 H         1 UNK         0.0851 
     83 H83        17.7433  -23.0398  -39.4197 H         1 UNK         0.0851 
     84 H84        16.4784  -25.1530  -42.6512 H         1 UNK         0.2976 
     85 H85        20.9064  -25.1051  -42.6576 H         1 UNK         0.3116 
     86 H86        23.4983  -24.3557  -41.5952 H         1 UNK         0.0646 
     87 H87        23.3224  -22.5394  -43.2935 H         1 UNK         0.0847 
     88 H88        21.8367  -22.6638  -42.3644 H         1 UNK         0.0847 
     89 H89        21.9087  -23.3086  -44.0027 H         1 UNK         0.0847 
     90 H90        22.3689  -26.3193  -44.2809 H         1 UNK         0.3040 
     91 H91        24.7111  -26.2307  -45.9199 H         1 UNK         0.1015 
     92 H92        22.4972  -26.9570  -46.7819 H         1 UNK         0.0786 
     93 H93        22.4984  -28.3463  -45.6985 H         1 UNK         0.0786 
     94 H94        23.6761  -28.2412  -46.9996 H         1 UNK         0.0786 
     95 H95        23.6311  -28.5050  -43.3681 H         1 UNK         0.3172 
     96 H96        26.1470  -29.0914  -42.3303 H         1 UNK         0.0595 
     97 H97        25.0074  -31.2087  -44.2485 H         1 UNK         0.0839 
     98 H98        26.1426  -31.6090  -42.9679 H         1 UNK         0.0839 
     99 H99        26.6298  -30.5323  -44.2622 H         1 UNK         0.0839 
    100 H100       25.8550  -30.7306  -40.5648 H         1 UNK         0.2998 
    101 H101       23.2857  -30.2982  -39.2612 H         1 UNK         0.0822 
    102 H102       25.8008  -31.8013  -38.3492 H         1 UNK         0.0787 
    103 H103       25.4151  -30.1178  -37.9887 H         1 UNK         0.0787 
    104 H104       24.4197  -31.4085  -37.3353 H         1 UNK         0.0787 
    105 H105       21.7417  -31.7467  -38.8626 H         1 UNK         0.3055 
    106 H106       20.3931  -33.4650  -38.8428 H         1 UNK         0.1106 
    107 H107       21.2801  -35.7416  -38.3710 H         1 UNK         0.0828 
    108 H108       22.9115  -35.2068  -38.7441 H         1 UNK         0.0828 
    109 H109       22.0497  -34.5233  -37.3704 H         1 UNK         0.0828 
    110 H110       22.9403  -34.6839  -41.0387 H         1 UNK         0.2931 
    111 H111       22.9269  -35.7726  -42.9585 H         1 UNK         0.0412 
    112 H112       21.2188  -37.1066  -40.8302 H         1 UNK         0.3472 
    113 H113       20.2784  -38.2499  -41.7568 H         1 UNK         0.3472 
    114 H114       21.5448  -34.8846  -44.8508 H         1 UNK         0.0970 
    115 H115       20.5786  -33.9728  -43.7200 H         1 UNK         0.0970 
    116 H116       22.6981  -31.1231  -45.3740 H         1 UNK         0.0612 
    117 H117       21.5436  -32.3289  -45.8898 H         1 UNK         0.0612 
@<TRIPOS>BOND
     1    1    2 1    
     2    1   62 1    
     3    1   63 1    
     4    1   64 1    
     5    2    3 2    
     6    2    4 am   BACKBONE|DICT|INTERRES
     7    4    5 1    
     8    4   65 1    
     9    5    6 1    
    10    5   25 1    
    11    5   66 1    
    12    6    7 1    
    13    6   67 1    
    14    6   68 1    
    15    7    8 1    
    16    8    9 1    
    17    8   69 1    
    18    8   70 1    
    19    9   10 ar   
    20    9   14 ar   
    21   10   11 ar   
    22   10   71 1    
    23   11   12 ar   
    24   11   61 1    
    25   12   13 ar   
    26   12   72 1    
    27   13   14 ar   
    28   13   15 1    
    29   14   73 1    
    30   15   16 1    
    31   15   74 1    
    32   15   75 1    
    33   16   17 1    
    34   17   18 1    
    35   17   76 1    
    36   17   77 1    
    37   18   19 1    
    38   18   27 1    
    39   18   78 1    
    40   19   20 am   BACKBONE|DICT|INTERRES
    41   19   79 1    
    42   20   21 2    
    43   20   22 1    
    44   22   23 1    
    45   22   24 1    
    46   22   80 1    
    47   23   81 1    
    48   23   82 1    
    49   23   83 1    
    50   24   25 am   BACKBONE|DICT|INTERRES
    51   24   84 1    
    52   25   26 2    
    53   27   28 2    
    54   27   29 am   BACKBONE|DICT|INTERRES
    55   29   30 1    
    56   29   85 1    
    57   30   31 1    
    58   30   32 1    
    59   30   86 1    
    60   31   87 1    
    61   31   88 1    
    62   31   89 1    
    63   32   33 2    
    64   32   34 am   BACKBONE|DICT|INTERRES
    65   34   35 1    
    66   34   90 1    
    67   35   36 1    
    68   35   37 1    
    69   35   91 1    
    70   36   92 1    
    71   36   93 1    
    72   36   94 1    
    73   37   38 2    
    74   37   39 am   BACKBONE|DICT|INTERRES
    75   39   40 1    
    76   39   95 1    
    77   40   41 1    
    78   40   42 1    
    79   40   96 1    
    80   41   97 1    
    81   41   98 1    
    82   41   99 1    
    83   42   43 2    
    84   42   44 am   BACKBONE|DICT|INTERRES
    85   44   45 1    
    86   44  100 1    
    87   45   46 1    
    88   45   47 1    
    89   45  101 1    
    90   46  102 1    
    91   46  103 1    
    92   46  104 1    
    93   47   48 2    
    94   47   49 am   BACKBONE|DICT|INTERRES
    95   49   50 1    
    96   49  105 1    
    97   50   51 1    
    98   50   52 1    
    99   50  106 1    
   100   51  107 1    
   101   51  108 1    
   102   51  109 1    
   103   52   53 2    
   104   52   54 am   BACKBONE|DICT|INTERRES
   105   54   55 1    
   106   54  110 1    
   107   55   56 1    
   108   55   59 1    
   109   55  111 1    
   110   56   57 am   BACKBONE|DICT|INTERRES
   111   56   58 2    
   112   57  112 1    
   113   57  113 1    
   114   59   60 1    
   115   59  114 1    
   116   59  115 1    
   117   60   61 1    
   118   61  116 1    
   119   61  117 1    
@<TRIPOS>SUBSTRUCTURE
     1 UNK         1 GROUP             0       ****    0 ROOT    
