@<TRIPOS>MOLECULE
3R8
117   119    1
SMALL
USER_CHARGES


@<TRIPOS>ATOM
      1 CA         15.7963  -23.6507  -43.9103 C.3       0 UNK        -0.2013 
      2 C          16.6948  -24.7749  -44.4019 C.2       0 UNK         0.4866 
      3 O          17.6122  -25.1775  -43.6850 O.2       0 UNK        -0.5176 
      4 N          16.4399  -25.2789  -45.6193 N.am      1 UNK        -0.4884 
      5 CA         17.1682  -26.3701  -46.2855 C.3       1 UNK         0.0853 
      6 C6         16.9582  -27.7480  -45.5934 C.3       10 UNK        -0.0849 
      7 S7         15.2174  -28.2347  -45.3517 S.3       10 UNK        -0.2776 
      8 C8         15.4020  -29.9568  -44.7629 C.3       10 UNK         0.0316 
      9 C9         16.5520  -30.1229  -43.7742 C.ar      10 UNK        -0.0863 
     10 C10        17.7279  -30.7671  -44.1688 C.ar      10 UNK        -0.1009 
     11 C11        18.8075  -30.8819  -43.2888 C.ar      10 UNK        -0.0712 
     12 C12        18.7051  -30.3502  -41.9994 C.ar      10 UNK        -0.0894 
     13 C13        17.5348  -29.6977  -41.5927 C.ar      10 UNK        -0.0745 
     14 C14        16.4596  -29.5967  -42.4828 C.ar      10 UNK        -0.0972 
     15 C15        17.4114  -29.1020  -40.1936 C.3       10 UNK         0.0209 
     16 S16        18.7944  -28.0063  -39.7256 S.3       10 UNK        -0.2568 
     17 C17        18.8139  -26.7570  -41.0611 C.3       10 UNK        -0.0983 
     18 CA         20.2269  -26.6238  -41.6917 C.3       3 UNK         0.0876 
     19 N          20.1777  -26.3994  -43.1440 N.am      3 UNK        -0.4424 
     20 C          21.2056  -26.6061  -43.9874 C.2       2 UNK         0.4918 
     21 O          22.3370  -26.9039  -43.6022 O.2       2 UNK        -0.4875 
     22 CA         20.9360  -26.4481  -45.4968 C.3       2 UNK         0.0481 
     23 CB         21.8486  -27.3482  -46.3498 C.3       2 UNK        -0.1831 
     24 N          19.5401  -26.7674  -45.7779 N.am      2 UNK        -0.4498 
     25 C          18.6637  -25.9941  -46.4308 C.2       1 UNK         0.5027 
     26 O          18.9769  -24.9919  -47.0770 O.2       1 UNK        -0.4969 
     27 C          21.1189  -25.6129  -40.9319 C.2       3 UNK         0.5005 
     28 O          21.3873  -25.8105  -39.7468 O.2       3 UNK        -0.5279 
     29 N          21.6401  -24.5883  -41.6245 N.am      4 UNK        -0.4463 
     30 CA         22.7333  -23.7294  -41.1544 C.3       4 UNK         0.0283 
     31 CB         22.9810  -22.6147  -42.1828 C.3       4 UNK        -0.1875 
     32 C          24.0385  -24.5061  -40.8758 C.2       4 UNK         0.4949 
     33 O          24.8289  -24.0716  -40.0387 O.2       4 UNK        -0.5039 
     34 N          24.2210  -25.6534  -41.5469 N.am      5 UNK        -0.4663 
     35 CA         25.2986  -26.6158  -41.3040 C.3       5 UNK         0.0242 
     36 CB         25.7384  -27.2024  -42.6581 C.3       5 UNK        -0.1982 
     37 C          24.8817  -27.7357  -40.3259 C.2       5 UNK         0.5017 
     38 O          25.6178  -28.7149  -40.1995 O.2       5 UNK        -0.5012 
     39 N          23.7183  -27.5928  -39.6695 N.am      6 UNK        -0.4439 
     40 CA         23.0280  -28.5889  -38.8422 C.3       6 UNK         0.0297 
     41 CB         23.8694  -28.9788  -37.6048 C.3       6 UNK        -0.2006 
     42 C          22.5527  -29.7857  -39.6892 C.2       6 UNK         0.4892 
     43 O          22.2683  -29.6200  -40.8780 O.2       6 UNK        -0.5089 
     44 N          22.4728  -30.9772  -39.0834 N.am      7 UNK        -0.4243 
     45 CA         22.0722  -32.2324  -39.7276 C.3       7 UNK         0.0196 
     46 CB         21.5789  -33.2121  -38.6469 C.3       7 UNK        -0.2007 
     47 C          23.1880  -32.8327  -40.6097 C.2       7 UNK         0.5020 
     48 O          23.4782  -34.0262  -40.5148 O.2       7 UNK        -0.5147 
     49 N          23.7870  -32.0024  -41.4743 N.am      8 UNK        -0.4734 
     50 CA         24.8494  -32.3653  -42.4217 C.3       8 UNK         0.0238 
     51 CB         25.3805  -31.0872  -43.0908 C.3       8 UNK        -0.1912 
     52 C          24.4042  -33.3859  -43.4848 C.2       8 UNK         0.5038 
     53 O          25.2439  -34.0987  -44.0353 O.2       8 UNK        -0.5046 
     54 N          23.0914  -33.4419  -43.7309 N.am      9 UNK        -0.4200 
     55 CA         22.4052  -34.4498  -44.5436 C.3       9 UNK         0.0839 
     56 C          22.2979  -35.8588  -43.8859 C.2       9 UNK         0.5513 
     57 N          22.6443  -36.0413  -42.6160 N.am      9 UNK        -0.7519 
     58 O          21.9039  -36.8127  -44.5520 O.2       9 UNK        -0.4960 
     59 C59        21.0318  -33.9194  -45.0321 C.3       10 UNK        -0.0876 
     60 S60        19.9154  -33.3771  -43.6844 S.3       10 UNK        -0.2414 
     61 C61        20.0840  -31.5644  -43.7530 C.3       10 UNK         0.0169 
     62 H62        16.3878  -22.7563  -43.7170 H         1 UNK         0.0903 
     63 H63        15.0236  -23.3977  -44.6360 H         1 UNK         0.0903 
     64 H64        15.3071  -23.9434  -42.9817 H         1 UNK         0.0903 
     65 H65        15.6848  -24.8822  -46.1613 H         1 UNK         0.3096 
     66 H66        16.7721  -26.4407  -47.2999 H         1 UNK         0.1121 
     67 H67        17.4169  -27.7419  -44.6031 H         1 UNK         0.0849 
     68 H68        17.4463  -28.5368  -46.1695 H         1 UNK         0.0849 
     69 H69        14.4697  -30.2759  -44.2949 H         1 UNK         0.0865 
     70 H70        15.5450  -30.6084  -45.6265 H         1 UNK         0.0865 
     71 H71        17.8115  -31.1724  -45.1681 H         1 UNK         0.1346 
     72 H72        19.5402  -30.4280  -41.3166 H         1 UNK         0.1412 
     73 H73        15.5537  -29.0879  -42.1820 H         1 UNK         0.1426 
     74 H74        17.3528  -29.9172  -39.4715 H         1 UNK         0.0716 
     75 H75        16.4827  -28.5378  -40.0950 H         1 UNK         0.0716 
     76 H76        18.4507  -25.8032  -40.6738 H         1 UNK         0.0695 
     77 H77        18.0885  -27.0550  -41.8186 H         1 UNK         0.0695 
     78 H78        20.7289  -27.5871  -41.5772 H         1 UNK         0.0983 
     79 H79        19.2875  -26.0596  -43.5039 H         1 UNK         0.3095 
     80 H80        21.1435  -25.4054  -45.7446 H         1 UNK         0.0454 
     81 H81        21.6383  -27.2308  -47.4128 H         1 UNK         0.0851 
     82 H82        21.7248  -28.4019  -46.0972 H         1 UNK         0.0851 
     83 H83        22.8995  -27.0973  -46.2000 H         1 UNK         0.0851 
     84 H84        19.1797  -27.5682  -45.2780 H         1 UNK         0.2976 
     85 H85        21.3603  -24.4837  -42.5888 H         1 UNK         0.3116 
     86 H86        22.4164  -23.2693  -40.2161 H         1 UNK         0.0646 
     87 H87        23.2866  -23.0164  -43.1498 H         1 UNK         0.0847 
     88 H88        23.7719  -21.9430  -41.8456 H         1 UNK         0.0847 
     89 H89        22.0882  -22.0082  -42.3361 H         1 UNK         0.0847 
     90 H90        23.5196  -25.9442  -42.2218 H         1 UNK         0.3040 
     91 H91        26.1564  -26.1062  -40.8598 H         1 UNK         0.1015 
     92 H92        24.9399  -27.7829  -43.1224 H         1 UNK         0.0786 
     93 H93        26.5975  -27.8641  -42.5410 H         1 UNK         0.0786 
     94 H94        26.0307  -26.4170  -43.3551 H         1 UNK         0.0786 
     95 H95        23.1689  -26.7600  -39.8527 H         1 UNK         0.3172 
     96 H96        22.1220  -28.1008  -38.4811 H         1 UNK         0.0595 
     97 H97        24.7263  -29.5996  -37.8689 H         1 UNK         0.0839 
     98 H98        23.2736  -29.5293  -36.8761 H         1 UNK         0.0839 
     99 H99        24.2486  -28.0935  -37.0943 H         1 UNK         0.0839 
    100 H100       22.7555  -31.0406  -38.1162 H         1 UNK         0.2998 
    101 H101       21.2289  -32.0266  -40.3902 H         1 UNK         0.0822 
    102 H102       21.2077  -34.1350  -39.0951 H         1 UNK         0.0787 
    103 H103       22.3761  -33.4831  -37.9536 H         1 UNK         0.0787 
    104 H104       20.7593  -32.7855  -38.0683 H         1 UNK         0.0787 
    105 H105       23.4697  -31.0364  -41.4811 H         1 UNK         0.3055 
    106 H106       25.6615  -32.8249  -41.8541 H         1 UNK         0.1106 
    107 H107       25.7985  -30.4011  -42.3545 H         1 UNK         0.0828 
    108 H108       26.1747  -31.3174  -43.8025 H         1 UNK         0.0828 
    109 H109       24.5964  -30.5585  -43.6346 H         1 UNK         0.0828 
    110 H110       22.4896  -32.8271  -43.2055 H         1 UNK         0.2931 
    111 H111       23.0159  -34.6000  -45.4361 H         1 UNK         0.0412 
    112 H112       22.9684  -35.2729  -42.0396 H         1 UNK         0.3472 
    113 H113       22.5709  -36.9639  -42.2179 H         1 UNK         0.3472 
    114 H114       20.5146  -34.6827  -45.6165 H         1 UNK         0.0970 
    115 H115       21.1911  -33.0962  -45.7294 H         1 UNK         0.0970 
    116 H116       20.3044  -31.2398  -44.7708 H         1 UNK         0.0612 
    117 H117       20.9318  -31.2539  -43.1401 H         1 UNK         0.0612 
@<TRIPOS>BOND
     1    1    2 1    
     2    1   62 1    
     3    1   63 1    
     4    1   64 1    
     5    2    3 2    
     6    2    4 am   BACKBONE|DICT|INTERRES
     7    4    5 1    
     8    4   65 1    
     9    5    6 1    
    10    5   25 1    
    11    5   66 1    
    12    6    7 1    
    13    6   67 1    
    14    6   68 1    
    15    7    8 1    
    16    8    9 1    
    17    8   69 1    
    18    8   70 1    
    19    9   10 ar   
    20    9   14 ar   
    21   10   11 ar   
    22   10   71 1    
    23   11   12 ar   
    24   11   61 1    
    25   12   13 ar   
    26   12   72 1    
    27   13   14 ar   
    28   13   15 1    
    29   14   73 1    
    30   15   16 1    
    31   15   74 1    
    32   15   75 1    
    33   16   17 1    
    34   17   18 1    
    35   17   76 1    
    36   17   77 1    
    37   18   19 1    
    38   18   27 1    
    39   18   78 1    
    40   19   20 am   BACKBONE|DICT|INTERRES
    41   19   79 1    
    42   20   21 2    
    43   20   22 1    
    44   22   23 1    
    45   22   24 1    
    46   22   80 1    
    47   23   81 1    
    48   23   82 1    
    49   23   83 1    
    50   24   25 am   BACKBONE|DICT|INTERRES
    51   24   84 1    
    52   25   26 2    
    53   27   28 2    
    54   27   29 am   BACKBONE|DICT|INTERRES
    55   29   30 1    
    56   29   85 1    
    57   30   31 1    
    58   30   32 1    
    59   30   86 1    
    60   31   87 1    
    61   31   88 1    
    62   31   89 1    
    63   32   33 2    
    64   32   34 am   BACKBONE|DICT|INTERRES
    65   34   35 1    
    66   34   90 1    
    67   35   36 1    
    68   35   37 1    
    69   35   91 1    
    70   36   92 1    
    71   36   93 1    
    72   36   94 1    
    73   37   38 2    
    74   37   39 am   BACKBONE|DICT|INTERRES
    75   39   40 1    
    76   39   95 1    
    77   40   41 1    
    78   40   42 1    
    79   40   96 1    
    80   41   97 1    
    81   41   98 1    
    82   41   99 1    
    83   42   43 2    
    84   42   44 am   BACKBONE|DICT|INTERRES
    85   44   45 1    
    86   44  100 1    
    87   45   46 1    
    88   45   47 1    
    89   45  101 1    
    90   46  102 1    
    91   46  103 1    
    92   46  104 1    
    93   47   48 2    
    94   47   49 am   BACKBONE|DICT|INTERRES
    95   49   50 1    
    96   49  105 1    
    97   50   51 1    
    98   50   52 1    
    99   50  106 1    
   100   51  107 1    
   101   51  108 1    
   102   51  109 1    
   103   52   53 2    
   104   52   54 am   BACKBONE|DICT|INTERRES
   105   54   55 1    
   106   54  110 1    
   107   55   56 1    
   108   55   59 1    
   109   55  111 1    
   110   56   57 am   BACKBONE|DICT|INTERRES
   111   56   58 2    
   112   57  112 1    
   113   57  113 1    
   114   59   60 1    
   115   59  114 1    
   116   59  115 1    
   117   60   61 1    
   118   61  116 1    
   119   61  117 1    
@<TRIPOS>SUBSTRUCTURE
     1 UNK         1 GROUP             0       ****    0 ROOT    
