@<TRIPOS>MOLECULE
3R8
117   119    1
SMALL
USER_CHARGES


@<TRIPOS>ATOM
      1 CA         19.2194  -26.8945  -42.2020 C.3       0 UNK        -0.2013 
      2 C          18.1129  -26.1941  -42.9707 C.2       0 UNK         0.4866 
      3 O          17.6959  -25.0994  -42.5919 O.2       0 UNK        -0.5176 
      4 N          17.6239  -26.8289  -44.0426 N.am      1 UNK        -0.4884 
      5 CA         16.5174  -26.3370  -44.8727 C.3       1 UNK         0.0853 
      6 C6         15.9393  -27.4423  -45.7906 C.3       10 UNK        -0.0849 
      7 S7         15.2814  -28.8624  -44.8457 S.3       10 UNK        -0.2776 
      8 C8         16.3502  -30.2378  -45.3842 C.3       10 UNK         0.0316 
      9 C9         17.7055  -30.2208  -44.6901 C.ar      10 UNK        -0.0863 
     10 C10        17.8790  -30.8735  -43.4670 C.ar      10 UNK        -0.1009 
     11 C11        19.1303  -30.8929  -42.8452 C.ar      10 UNK        -0.0712 
     12 C12        20.2048  -30.2212  -43.4362 C.ar      10 UNK        -0.0894 
     13 C13        20.0472  -29.5506  -44.6541 C.ar      10 UNK        -0.0745 
     14 C14        18.7949  -29.5812  -45.2858 C.ar      10 UNK        -0.0972 
     15 C15        21.2540  -28.8143  -45.2417 C.3       10 UNK         0.0209 
     16 S16        20.8512  -27.6378  -46.5750 S.3       10 UNK        -0.2568 
     17 C17        22.3194  -26.5468  -46.6154 C.3       10 UNK        -0.0983 
     18 CA         22.1611  -25.1975  -45.8432 C.3       3 UNK         0.0876 
     19 N          20.8312  -24.6066  -45.9731 N.am      3 UNK        -0.4424 
     20 C          20.2410  -24.2024  -47.1004 C.2       2 UNK         0.4918 
     21 O          20.8308  -24.0762  -48.1748 O.2       2 UNK        -0.4875 
     22 CA         18.7213  -23.9806  -47.0109 C.3       2 UNK         0.0481 
     23 CB         18.0547  -23.8591  -48.3983 C.3       2 UNK        -0.1831 
     24 N          18.1250  -25.0772  -46.2399 N.am      2 UNK        -0.4498 
     25 C          16.9033  -25.0859  -45.6910 C.2       1 UNK         0.5027 
     26 O          16.0980  -24.1594  -45.7960 O.2       1 UNK        -0.4969 
     27 C          22.4444  -25.3434  -44.3374 C.2       3 UNK         0.5005 
     28 O          21.5424  -25.1216  -43.5234 O.2       3 UNK        -0.5279 
     29 N          23.6858  -25.7030  -43.9838 N.am      4 UNK        -0.4463 
     30 CA         24.1030  -25.9683  -42.6057 C.3       4 UNK         0.0283 
     31 CB         25.6354  -26.0784  -42.5425 C.3       4 UNK        -0.1875 
     32 C          23.4467  -27.2510  -42.0722 C.2       4 UNK         0.4949 
     33 O          23.6305  -28.3149  -42.6669 O.2       4 UNK        -0.5039 
     34 N          22.7117  -27.1294  -40.9580 N.am      5 UNK        -0.4663 
     35 CA         21.9778  -28.2247  -40.3127 C.3       5 UNK         0.0242 
     36 CB         21.2006  -27.6836  -39.1019 C.3       5 UNK        -0.1982 
     37 C          22.8742  -29.3959  -39.8882 C.2       5 UNK         0.5017 
     38 O          22.4785  -30.5483  -40.0561 O.2       5 UNK        -0.5012 
     39 N          24.0876  -29.0756  -39.4138 N.am      6 UNK        -0.4439 
     40 CA         25.1164  -29.9962  -38.9108 C.3       6 UNK         0.0297 
     41 CB         26.3525  -29.1773  -38.5025 C.3       6 UNK        -0.2006 
     42 C          25.5241  -31.1443  -39.8577 C.2       6 UNK         0.4892 
     43 O          26.1577  -32.0957  -39.3993 O.2       6 UNK        -0.5089 
     44 N          25.1467  -31.0548  -41.1407 N.am      7 UNK        -0.4243 
     45 CA         25.2544  -32.1237  -42.1307 C.3       7 UNK         0.0196 
     46 CB         24.8194  -31.5778  -43.5008 C.3       7 UNK        -0.2007 
     47 C          24.4421  -33.3855  -41.7759 C.2       7 UNK         0.5020 
     48 O          24.8856  -34.4815  -42.1214 O.2       7 UNK        -0.5147 
     49 N          23.2852  -33.2314  -41.1093 N.am      8 UNK        -0.4734 
     50 CA         22.4035  -34.3551  -40.7537 C.3       8 UNK         0.0238 
     51 CB         21.6516  -34.8534  -42.0086 C.3       8 UNK        -0.1912 
     52 C          21.4158  -34.0840  -39.6014 C.2       8 UNK         0.5038 
     53 O          20.7358  -35.0244  -39.1870 O.2       8 UNK        -0.5046 
     54 N          21.3103  -32.8435  -39.1134 N.am      9 UNK        -0.4200 
     55 CA         20.3077  -32.3985  -38.1372 C.3       9 UNK         0.0839 
     56 C          20.8738  -31.3047  -37.1873 C.2       9 UNK         0.5513 
     57 N          20.0285  -30.5023  -36.5538 N.am      9 UNK        -0.7519 
     58 O          22.0796  -31.2091  -36.9685 O.2       9 UNK        -0.4960 
     59 C59        18.9416  -32.0725  -38.8161 C.3       10 UNK        -0.0876 
     60 S60        18.9830  -30.7342  -40.0673 S.3       10 UNK        -0.2414 
     61 C61        19.3324  -31.6954  -41.5708 C.3       10 UNK         0.0169 
     62 H62        19.9513  -27.3269  -42.8819 H         1 UNK         0.0903 
     63 H63        19.7451  -26.1847  -41.5645 H         1 UNK         0.0903 
     64 H64        18.8109  -27.6880  -41.5764 H         1 UNK         0.0903 
     65 H65        17.9703  -27.7518  -44.2721 H         1 UNK         0.3096 
     66 H66        15.7205  -26.0251  -44.1931 H         1 UNK         0.1121 
     67 H67        15.1154  -27.0432  -46.3859 H         1 UNK         0.0849 
     68 H68        16.6868  -27.7814  -46.5091 H         1 UNK         0.0849 
     69 H69        15.8419  -31.1779  -45.1637 H         1 UNK         0.0865 
     70 H70        16.4703  -30.2141  -46.4685 H         1 UNK         0.0865 
     71 H71        17.0450  -31.3881  -43.0092 H         1 UNK         0.1346 
     72 H72        21.1721  -30.2298  -42.9508 H         1 UNK         0.1412 
     73 H73        18.6516  -29.1060  -46.2451 H         1 UNK         0.1426 
     74 H74        21.9776  -29.5416  -45.6119 H         1 UNK         0.0716 
     75 H75        21.7437  -28.2623  -44.4411 H         1 UNK         0.0716 
     76 H76        22.5029  -26.3212  -47.6669 H         1 UNK         0.0695 
     77 H77        23.1996  -27.1053  -46.2922 H         1 UNK         0.0695 
     78 H78        22.8846  -24.4784  -46.2328 H         1 UNK         0.0983 
     79 H79        20.3170  -24.6143  -45.0995 H         1 UNK         0.3095 
     80 H80        18.5674  -23.0475  -46.4656 H         1 UNK         0.0454 
     81 H81        18.4961  -23.0456  -48.9752 H         1 UNK         0.0851 
     82 H82        16.9887  -23.6483  -48.3185 H         1 UNK         0.0851 
     83 H83        18.1727  -24.7743  -48.9794 H         1 UNK         0.0851 
     84 H84        18.7215  -25.8825  -46.0983 H         1 UNK         0.2976 
     85 H85        24.3683  -25.8896  -44.7044 H         1 UNK         0.3116 
     86 H86        23.7968  -25.1221  -41.9865 H         1 UNK         0.0646 
     87 H87        25.9714  -26.2603  -41.5208 H         1 UNK         0.0847 
     88 H88        26.1149  -25.1596  -42.8806 H         1 UNK         0.0847 
     89 H89        26.0089  -26.8987  -43.1572 H         1 UNK         0.0847 
     90 H90        22.6069  -26.2120  -40.5479 H         1 UNK         0.3040 
     91 H91        21.2600  -28.6161  -41.0358 H         1 UNK         0.1015 
     92 H92        20.6190  -28.4761  -38.6293 H         1 UNK         0.0786 
     93 H93        20.4985  -26.9019  -39.3899 H         1 UNK         0.0786 
     94 H94        21.8666  -27.2730  -38.3421 H         1 UNK         0.0786 
     95 H95        24.3079  -28.0921  -39.3580 H         1 UNK         0.3172 
     96 H96        24.7060  -30.4646  -38.0141 H         1 UNK         0.0595 
     97 H97        26.7862  -28.6514  -39.3542 H         1 UNK         0.0839 
     98 H98        27.1301  -29.8204  -38.0875 H         1 UNK         0.0839 
     99 H99        26.1081  -28.4393  -37.7383 H         1 UNK         0.0839 
    100 H100       24.6304  -30.2320  -41.4240 H         1 UNK         0.2998 
    101 H101       26.3055  -32.4137  -42.1915 H         1 UNK         0.0822 
    102 H102       25.4375  -30.7334  -43.8067 H         1 UNK         0.0787 
    103 H103       23.7809  -31.2431  -43.4899 H         1 UNK         0.0787 
    104 H104       24.9089  -32.3426  -44.2736 H         1 UNK         0.0787 
    105 H105       22.9965  -32.2952  -40.8423 H         1 UNK         0.3055 
    106 H106       23.0334  -35.1719  -40.3937 H         1 UNK         0.1106 
    107 H107       21.0756  -34.0578  -42.4799 H         1 UNK         0.0828 
    108 H108       22.3384  -35.2503  -42.7559 H         1 UNK         0.0828 
    109 H109       20.9568  -35.6582  -41.7647 H         1 UNK         0.0828 
    110 H110       21.8981  -32.0865  -39.4555 H         1 UNK         0.2931 
    111 H111       20.1265  -33.2353  -37.4603 H         1 UNK         0.0412 
    112 H112       19.0349  -30.5628  -36.7076 H         1 UNK         0.3472 
    113 H113       20.3957  -29.8122  -35.9177 H         1 UNK         0.3472 
    114 H114       18.5492  -32.9772  -39.2823 H         1 UNK         0.0970 
    115 H115       18.1951  -31.8117  -38.0653 H         1 UNK         0.0970 
    116 H116       18.7029  -32.5861  -41.5967 H         1 UNK         0.0612 
    117 H117       20.3628  -32.0443  -41.5294 H         1 UNK         0.0612 
@<TRIPOS>BOND
     1    1    2 1    
     2    1   62 1    
     3    1   63 1    
     4    1   64 1    
     5    2    3 2    
     6    2    4 am   BACKBONE|DICT|INTERRES
     7    4    5 1    
     8    4   65 1    
     9    5    6 1    
    10    5   25 1    
    11    5   66 1    
    12    6    7 1    
    13    6   67 1    
    14    6   68 1    
    15    7    8 1    
    16    8    9 1    
    17    8   69 1    
    18    8   70 1    
    19    9   10 ar   
    20    9   14 ar   
    21   10   11 ar   
    22   10   71 1    
    23   11   12 ar   
    24   11   61 1    
    25   12   13 ar   
    26   12   72 1    
    27   13   14 ar   
    28   13   15 1    
    29   14   73 1    
    30   15   16 1    
    31   15   74 1    
    32   15   75 1    
    33   16   17 1    
    34   17   18 1    
    35   17   76 1    
    36   17   77 1    
    37   18   19 1    
    38   18   27 1    
    39   18   78 1    
    40   19   20 am   BACKBONE|DICT|INTERRES
    41   19   79 1    
    42   20   21 2    
    43   20   22 1    
    44   22   23 1    
    45   22   24 1    
    46   22   80 1    
    47   23   81 1    
    48   23   82 1    
    49   23   83 1    
    50   24   25 am   BACKBONE|DICT|INTERRES
    51   24   84 1    
    52   25   26 2    
    53   27   28 2    
    54   27   29 am   BACKBONE|DICT|INTERRES
    55   29   30 1    
    56   29   85 1    
    57   30   31 1    
    58   30   32 1    
    59   30   86 1    
    60   31   87 1    
    61   31   88 1    
    62   31   89 1    
    63   32   33 2    
    64   32   34 am   BACKBONE|DICT|INTERRES
    65   34   35 1    
    66   34   90 1    
    67   35   36 1    
    68   35   37 1    
    69   35   91 1    
    70   36   92 1    
    71   36   93 1    
    72   36   94 1    
    73   37   38 2    
    74   37   39 am   BACKBONE|DICT|INTERRES
    75   39   40 1    
    76   39   95 1    
    77   40   41 1    
    78   40   42 1    
    79   40   96 1    
    80   41   97 1    
    81   41   98 1    
    82   41   99 1    
    83   42   43 2    
    84   42   44 am   BACKBONE|DICT|INTERRES
    85   44   45 1    
    86   44  100 1    
    87   45   46 1    
    88   45   47 1    
    89   45  101 1    
    90   46  102 1    
    91   46  103 1    
    92   46  104 1    
    93   47   48 2    
    94   47   49 am   BACKBONE|DICT|INTERRES
    95   49   50 1    
    96   49  105 1    
    97   50   51 1    
    98   50   52 1    
    99   50  106 1    
   100   51  107 1    
   101   51  108 1    
   102   51  109 1    
   103   52   53 2    
   104   52   54 am   BACKBONE|DICT|INTERRES
   105   54   55 1    
   106   54  110 1    
   107   55   56 1    
   108   55   59 1    
   109   55  111 1    
   110   56   57 am   BACKBONE|DICT|INTERRES
   111   56   58 2    
   112   57  112 1    
   113   57  113 1    
   114   59   60 1    
   115   59  114 1    
   116   59  115 1    
   117   60   61 1    
   118   61  116 1    
   119   61  117 1    
@<TRIPOS>SUBSTRUCTURE
     1 UNK         1 GROUP             0       ****    0 ROOT    
