@<TRIPOS>MOLECULE
3R8
117   119    1
SMALL
USER_CHARGES


@<TRIPOS>ATOM
      1 CA         17.8941  -22.3890  -43.1046 C.3       0 UNK        -0.2013 
      2 C          17.1916  -23.5601  -42.4209 C.2       0 UNK         0.4866 
      3 O          16.6015  -23.3669  -41.3597 O.2       0 UNK        -0.5176 
      4 N          17.2017  -24.7791  -42.9802 N.am      1 UNK        -0.4884 
      5 CA         17.8934  -25.2155  -44.2024 C.3       1 UNK         0.0853 
      6 C6         17.5339  -26.6819  -44.5655 C.3       10 UNK        -0.0849 
      7 S7         15.7398  -27.0104  -44.6111 S.3       10 UNK        -0.2776 
      8 C8         15.6648  -28.5732  -45.5504 C.3       10 UNK         0.0316 
      9 C9         16.5464  -29.6732  -44.9659 C.ar      10 UNK        -0.0863 
     10 C10        16.3436  -30.1367  -43.6611 C.ar      10 UNK        -0.1009 
     11 C11        17.1407  -31.1552  -43.1250 C.ar      10 UNK        -0.0712 
     12 C12        18.1454  -31.7152  -43.9251 C.ar      10 UNK        -0.0894 
     13 C13        18.3664  -31.2574  -45.2244 C.ar      10 UNK        -0.0745 
     14 C14        17.5596  -30.2413  -45.7430 C.ar      10 UNK        -0.0972 
     15 C15        19.4852  -31.8640  -46.0598 C.3       10 UNK         0.0209 
     16 S16        21.1312  -31.3514  -45.4687 S.3       10 UNK        -0.2568 
     17 C17        21.1100  -29.5668  -45.8517 C.3       10 UNK        -0.0983 
     18 CA         21.9367  -28.6337  -44.9270 C.3       3 UNK         0.0876 
     19 N          21.6237  -27.2407  -45.2549 N.am      3 UNK        -0.4424 
     20 C          22.2571  -26.1536  -44.7985 C.2       2 UNK         0.4918 
     21 O          23.2527  -26.1866  -44.0786 O.2       2 UNK        -0.4875 
     22 CA         21.6173  -24.8003  -45.1645 C.3       2 UNK         0.0481 
     23 CB         22.1095  -24.3233  -46.5396 C.3       2 UNK        -0.1831 
     24 N          20.1462  -24.8394  -45.1458 N.am      2 UNK        -0.4498 
     25 C          19.4240  -25.1010  -44.0463 C.2       1 UNK         0.5027 
     26 O          19.9313  -25.3105  -42.9433 O.2       1 UNK        -0.4969 
     27 C          21.7620  -28.9130  -43.4140 C.2       3 UNK         0.5005 
     28 O          22.6361  -29.5295  -42.8019 O.2       3 UNK        -0.5279 
     29 N          20.6705  -28.4046  -42.8227 N.am      4 UNK        -0.4463 
     30 CA         20.3908  -28.4944  -41.3876 C.3       4 UNK         0.0283 
     31 CB         18.9328  -28.0991  -41.1057 C.3       4 UNK        -0.1875 
     32 C          21.3656  -27.6553  -40.5468 C.2       4 UNK         0.4949 
     33 O          21.8520  -28.1448  -39.5288 O.2       4 UNK        -0.5039 
     34 N          21.6748  -26.4341  -41.0060 N.am      5 UNK        -0.4663 
     35 CA         22.6563  -25.5308  -40.3937 C.3       5 UNK         0.0242 
     36 CB         22.6005  -24.1633  -41.0926 C.3       5 UNK        -0.1982 
     37 C          24.0888  -26.0949  -40.4085 C.2       5 UNK         0.5017 
     38 O          24.8250  -25.9036  -39.4406 O.2       5 UNK        -0.5012 
     39 N          24.4385  -26.8172  -41.4818 N.am      6 UNK        -0.4439 
     40 CA         25.6852  -27.5743  -41.6279 C.3       6 UNK         0.0297 
     41 CB         25.9158  -27.8646  -43.1209 C.3       6 UNK        -0.2006 
     42 C          25.7186  -28.8861  -40.8157 C.2       6 UNK         0.4892 
     43 O          26.7649  -29.5351  -40.7894 O.2       6 UNK        -0.5089 
     44 N          24.5902  -29.2629  -40.1928 N.am      7 UNK        -0.4243 
     45 CA         24.3492  -30.4889  -39.4220 C.3       7 UNK         0.0196 
     46 CB         25.2754  -30.5729  -38.1900 C.3       7 UNK        -0.2007 
     47 C          24.3702  -31.7733  -40.2731 C.2       7 UNK         0.5020 
     48 O          24.5141  -32.8657  -39.7219 O.2       7 UNK        -0.5147 
     49 N          24.1706  -31.6447  -41.5925 N.am      8 UNK        -0.4734 
     50 CA         24.0899  -32.7662  -42.5339 C.3       8 UNK         0.0238 
     51 CB         24.3992  -32.2654  -43.9536 C.3       8 UNK        -0.1912 
     52 C          22.7438  -33.5129  -42.4643 C.2       8 UNK         0.5038 
     53 O          22.6502  -34.6269  -42.9812 O.2       8 UNK        -0.5046 
     54 N          21.7500  -32.9175  -41.7881 N.am      9 UNK        -0.4200 
     55 CA         20.5100  -33.5795  -41.3543 C.3       9 UNK         0.0839 
     56 C          20.7285  -34.6922  -40.2812 C.2       9 UNK         0.5513 
     57 N          21.8551  -34.7294  -39.5760 N.am      9 UNK        -0.7519 
     58 O          19.8678  -35.5475  -40.0935 O.2       9 UNK        -0.4960 
     59 C59        19.4531  -32.5373  -40.8895 C.3       10 UNK        -0.0876 
     60 S60        17.7341  -33.1144  -41.1241 S.3       10 UNK        -0.2414 
     61 C61        16.8821  -31.5949  -41.6803 C.3       10 UNK         0.0169 
     62 H62        18.9609  -22.4027  -42.8824 H         1 UNK         0.0903 
     63 H63        17.7575  -22.4033  -44.1848 H         1 UNK         0.0903 
     64 H64        17.4918  -21.4438  -42.7405 H         1 UNK         0.0903 
     65 H65        16.7037  -25.5174  -42.5045 H         1 UNK         0.3096 
     66 H66        17.5714  -24.5701  -45.0217 H         1 UNK         0.1121 
     67 H67        17.9662  -27.3782  -43.8453 H         1 UNK         0.0849 
     68 H68        17.9553  -26.9455  -45.5378 H         1 UNK         0.0849 
     69 H69        15.9346  -28.3693  -46.5879 H         1 UNK         0.0865 
     70 H70        14.6316  -28.9224  -45.5699 H         1 UNK         0.0865 
     71 H71        15.5620  -29.6945  -43.0578 H         1 UNK         0.1346 
     72 H72        18.7798  -32.5039  -43.5515 H         1 UNK         0.1412 
     73 H73        17.7251  -29.8906  -46.7528 H         1 UNK         0.1426 
     74 H74        19.3794  -31.5929  -47.1114 H         1 UNK         0.0716 
     75 H75        19.4181  -32.9520  -46.0157 H         1 UNK         0.0716 
     76 H76        20.0740  -29.2308  -45.8518 H         1 UNK         0.0695 
     77 H77        21.4522  -29.4507  -46.8814 H         1 UNK         0.0695 
     78 H78        22.9938  -28.7938  -45.1502 H         1 UNK         0.0983 
     79 H79        20.8324  -27.0962  -45.8630 H         1 UNK         0.3095 
     80 H80        21.9398  -24.0701  -44.4197 H         1 UNK         0.0454 
     81 H81        21.7969  -24.9941  -47.3406 H         1 UNK         0.0851 
     82 H82        23.1990  -24.2710  -46.5658 H         1 UNK         0.0851 
     83 H83        21.7352  -23.3260  -46.7709 H         1 UNK         0.0851 
     84 H84        19.6753  -24.6716  -46.0242 H         1 UNK         0.2976 
     85 H85        20.0283  -27.8642  -43.3792 H         1 UNK         0.3116 
     86 H86        20.5197  -29.5358  -41.0898 H         1 UNK         0.0646 
     87 H87        18.2375  -28.6983  -41.6924 H         1 UNK         0.0847 
     88 H88        18.7420  -27.0493  -41.3287 H         1 UNK         0.0847 
     89 H89        18.6869  -28.2549  -40.0546 H         1 UNK         0.0847 
     90 H90        21.1731  -26.0819  -41.8189 H         1 UNK         0.3040 
     91 H91        22.3699  -25.3933  -39.3487 H         1 UNK         0.1015 
     92 H92        23.2803  -23.4546  -40.6177 H         1 UNK         0.0786 
     93 H93        21.5991  -23.7344  -41.0467 H         1 UNK         0.0786 
     94 H94        22.8855  -24.2350  -42.1422 H         1 UNK         0.0786 
     95 H95        23.7950  -26.8495  -42.2671 H         1 UNK         0.3172 
     96 H96        26.5082  -26.9516  -41.2714 H         1 UNK         0.0595 
     97 H97        25.1244  -28.4895  -43.5362 H         1 UNK         0.0839 
     98 H98        26.8602  -28.3870  -43.2795 H         1 UNK         0.0839 
     99 H99        25.9555  -26.9438  -43.7032 H         1 UNK         0.0839 
    100 H100       23.7821  -28.6574  -40.2804 H         1 UNK         0.2998 
    101 H101       23.3273  -30.4041  -39.0501 H         1 UNK         0.0822 
    102 H102       25.2384  -29.6551  -37.6031 H         1 UNK         0.0787 
    103 H103       24.9764  -31.3890  -37.5311 H         1 UNK         0.0787 
    104 H104       26.3133  -30.7507  -38.4724 H         1 UNK         0.0787 
    105 H105       23.9501  -30.7251  -41.9677 H         1 UNK         0.3055 
    106 H106       24.8590  -33.4943  -42.2661 H         1 UNK         0.1106 
    107 H107       24.2932  -33.0660  -44.6869 H         1 UNK         0.0828 
    108 H108       25.4214  -31.8939  -44.0245 H         1 UNK         0.0828 
    109 H109       23.7340  -31.4577  -44.2527 H         1 UNK         0.0828 
    110 H110       21.9262  -31.9942  -41.4223 H         1 UNK         0.2931 
    111 H111       20.1182  -34.0825  -42.2406 H         1 UNK         0.0412 
    112 H112       21.9786  -35.4603  -38.8931 H         1 UNK         0.3472 
    113 H113       22.5931  -34.0545  -39.7237 H         1 UNK         0.3472 
    114 H114       19.6008  -32.2567  -39.8447 H         1 UNK         0.0970 
    115 H115       19.5706  -31.6149  -41.4581 H         1 UNK         0.0970 
    116 H116       17.1435  -30.7796  -41.0049 H         1 UNK         0.0612 
    117 H117       15.8108  -31.7610  -41.5580 H         1 UNK         0.0612 
@<TRIPOS>BOND
     1    1    2 1    
     2    1   62 1    
     3    1   63 1    
     4    1   64 1    
     5    2    3 2    
     6    2    4 am   BACKBONE|DICT|INTERRES
     7    4    5 1    
     8    4   65 1    
     9    5    6 1    
    10    5   25 1    
    11    5   66 1    
    12    6    7 1    
    13    6   67 1    
    14    6   68 1    
    15    7    8 1    
    16    8    9 1    
    17    8   69 1    
    18    8   70 1    
    19    9   10 ar   
    20    9   14 ar   
    21   10   11 ar   
    22   10   71 1    
    23   11   12 ar   
    24   11   61 1    
    25   12   13 ar   
    26   12   72 1    
    27   13   14 ar   
    28   13   15 1    
    29   14   73 1    
    30   15   16 1    
    31   15   74 1    
    32   15   75 1    
    33   16   17 1    
    34   17   18 1    
    35   17   76 1    
    36   17   77 1    
    37   18   19 1    
    38   18   27 1    
    39   18   78 1    
    40   19   20 am   BACKBONE|DICT|INTERRES
    41   19   79 1    
    42   20   21 2    
    43   20   22 1    
    44   22   23 1    
    45   22   24 1    
    46   22   80 1    
    47   23   81 1    
    48   23   82 1    
    49   23   83 1    
    50   24   25 am   BACKBONE|DICT|INTERRES
    51   24   84 1    
    52   25   26 2    
    53   27   28 2    
    54   27   29 am   BACKBONE|DICT|INTERRES
    55   29   30 1    
    56   29   85 1    
    57   30   31 1    
    58   30   32 1    
    59   30   86 1    
    60   31   87 1    
    61   31   88 1    
    62   31   89 1    
    63   32   33 2    
    64   32   34 am   BACKBONE|DICT|INTERRES
    65   34   35 1    
    66   34   90 1    
    67   35   36 1    
    68   35   37 1    
    69   35   91 1    
    70   36   92 1    
    71   36   93 1    
    72   36   94 1    
    73   37   38 2    
    74   37   39 am   BACKBONE|DICT|INTERRES
    75   39   40 1    
    76   39   95 1    
    77   40   41 1    
    78   40   42 1    
    79   40   96 1    
    80   41   97 1    
    81   41   98 1    
    82   41   99 1    
    83   42   43 2    
    84   42   44 am   BACKBONE|DICT|INTERRES
    85   44   45 1    
    86   44  100 1    
    87   45   46 1    
    88   45   47 1    
    89   45  101 1    
    90   46  102 1    
    91   46  103 1    
    92   46  104 1    
    93   47   48 2    
    94   47   49 am   BACKBONE|DICT|INTERRES
    95   49   50 1    
    96   49  105 1    
    97   50   51 1    
    98   50   52 1    
    99   50  106 1    
   100   51  107 1    
   101   51  108 1    
   102   51  109 1    
   103   52   53 2    
   104   52   54 am   BACKBONE|DICT|INTERRES
   105   54   55 1    
   106   54  110 1    
   107   55   56 1    
   108   55   59 1    
   109   55  111 1    
   110   56   57 am   BACKBONE|DICT|INTERRES
   111   56   58 2    
   112   57  112 1    
   113   57  113 1    
   114   59   60 1    
   115   59  114 1    
   116   59  115 1    
   117   60   61 1    
   118   61  116 1    
   119   61  117 1    
@<TRIPOS>SUBSTRUCTURE
     1 UNK         1 GROUP             0       ****    0 ROOT    
