@<TRIPOS>MOLECULE
3R8
117   119    1
SMALL
USER_CHARGES


@<TRIPOS>ATOM
      1 CA         18.4466  -22.7997  -48.0404 C.3       0 UNK        -0.2013 
      2 C          19.4159  -23.9213  -47.6985 C.2       0 UNK         0.4866 
      3 O          20.6279  -23.7379  -47.8123 O.2       0 UNK        -0.5176 
      4 N          18.8916  -25.0825  -47.2824 N.am      1 UNK        -0.4884 
      5 CA         19.6769  -26.2639  -46.8960 C.3       1 UNK         0.0853 
      6 C6         18.7914  -27.5366  -46.8713 C.3       10 UNK        -0.0849 
      7 S7         19.7237  -29.0592  -47.2488 S.3       10 UNK        -0.2776 
      8 C8         18.4026  -30.3144  -47.1982 C.3       10 UNK         0.0316 
      9 C9         17.9933  -30.6391  -45.7690 C.ar      10 UNK        -0.0863 
     10 C10        18.6405  -31.6570  -45.0636 C.ar      10 UNK        -0.1009 
     11 C11        18.3008  -31.9367  -43.7328 C.ar      10 UNK        -0.0712 
     12 C12        17.2905  -31.1882  -43.1178 C.ar      10 UNK        -0.0894 
     13 C13        16.6208  -30.1828  -43.8223 C.ar      10 UNK        -0.0745 
     14 C14        16.9685  -29.9221  -45.1493 C.ar      10 UNK        -0.0972 
     15 C15        15.5133  -29.3739  -43.1675 C.3       10 UNK         0.0209 
     16 S16        16.0686  -27.6853  -42.7769 S.3       10 UNK        -0.2568 
     17 C17        17.0063  -27.9437  -41.2329 C.3       10 UNK        -0.0983 
     18 CA         18.5463  -27.8490  -41.3958 C.3       3 UNK         0.0876 
     19 N          18.9413  -26.6321  -42.1230 N.am      3 UNK        -0.4424 
     20 C          20.1844  -26.2102  -42.3953 C.2       2 UNK         0.4918 
     21 O          21.2079  -26.7603  -41.9879 O.2       2 UNK        -0.4875 
     22 CA         20.2658  -24.9587  -43.2885 C.3       2 UNK         0.0481 
     23 CB         21.6518  -24.2820  -43.2709 C.3       2 UNK        -0.1831 
     24 N          19.8293  -25.2537  -44.6583 N.am      2 UNK        -0.4498 
     25 C          20.4165  -26.0689  -45.5524 C.2       1 UNK         0.5027 
     26 O          21.4904  -26.6410  -45.3694 O.2       1 UNK        -0.4969 
     27 C          19.1984  -28.0104  -40.0039 C.2       3 UNK         0.5005 
     28 O          19.3602  -29.1394  -39.5384 O.2       3 UNK        -0.5279 
     29 N          19.5381  -26.8890  -39.3522 N.am      4 UNK        -0.4463 
     30 CA         20.1917  -26.8191  -38.0455 C.3       4 UNK         0.0283 
     31 CB         20.0006  -25.4036  -37.4700 C.3       4 UNK        -0.1875 
     32 C          21.6763  -27.2207  -38.1299 C.2       4 UNK         0.4949 
     33 O          22.5541  -26.3595  -38.0574 O.2       4 UNK        -0.5039 
     34 N          21.9236  -28.5242  -38.3122 N.am      5 UNK        -0.4663 
     35 CA         23.2106  -29.2369  -38.3493 C.3       5 UNK         0.0242 
     36 CB         23.9810  -29.0675  -37.0255 C.3       5 UNK        -0.1982 
     37 C          24.1182  -28.9214  -39.5522 C.2       5 UNK         0.5017 
     38 O          24.8243  -29.8211  -40.0079 O.2       5 UNK        -0.5012 
     39 N          24.0865  -27.6824  -40.0600 N.am      6 UNK        -0.4439 
     40 CA         24.8905  -27.1855  -41.1845 C.3       6 UNK         0.0297 
     41 CB         24.6391  -25.6809  -41.3572 C.3       6 UNK        -0.2006 
     42 C          24.6740  -27.9409  -42.5108 C.2       6 UNK         0.4892 
     43 O          25.5971  -28.0053  -43.3231 O.2       6 UNK        -0.5089 
     44 N          23.4897  -28.5438  -42.6782 N.am      7 UNK        -0.4243 
     45 CA         23.1396  -29.4732  -43.7560 C.3       7 UNK         0.0196 
     46 CB         21.6210  -29.7195  -43.7132 C.3       7 UNK        -0.2007 
     47 C          23.8986  -30.8190  -43.7115 C.2       7 UNK         0.5020 
     48 O          23.8034  -31.5794  -44.6748 O.2       7 UNK        -0.5147 
     49 N          24.6173  -31.0980  -42.6103 N.am      8 UNK        -0.4734 
     50 CA         25.3112  -32.3498  -42.2735 C.3       8 UNK         0.0238 
     51 CB         26.3825  -32.7197  -43.3225 C.3       8 UNK        -0.1912 
     52 C          24.3256  -33.4937  -41.9689 C.2       8 UNK         0.5038 
     53 O          24.5843  -34.6488  -42.3127 O.2       8 UNK        -0.5046 
     54 N          23.2149  -33.1394  -41.3169 N.am      9 UNK        -0.4200 
     55 CA         22.0970  -34.0072  -40.9369 C.3       9 UNK         0.0839 
     56 C          21.2138  -33.3105  -39.8684 C.2       9 UNK         0.5513 
     57 N          20.2806  -34.0342  -39.2655 N.am      9 UNK        -0.7519 
     58 O          21.3676  -32.1261  -39.5754 O.2       9 UNK        -0.4960 
     59 C59        21.2838  -34.5250  -42.1599 C.3       10 UNK        -0.0876 
     60 S60        20.7656  -33.2087  -43.3145 S.3       10 UNK        -0.2414 
     61 C61        18.9857  -33.0597  -42.9546 C.3       10 UNK         0.0169 
     62 H62        17.4083  -23.0980  -47.8965 H         1 UNK         0.0903 
     63 H63        18.6403  -21.9317  -47.4107 H         1 UNK         0.0903 
     64 H64        18.5718  -22.5003  -49.0807 H         1 UNK         0.0903 
     65 H65        17.8871  -25.1776  -47.2229 H         1 UNK         0.3096 
     66 H66        20.4453  -26.3944  -47.6622 H         1 UNK         0.1121 
     67 H67        18.2836  -27.6388  -45.9111 H         1 UNK         0.0849 
     68 H68        18.0027  -27.4608  -47.6218 H         1 UNK         0.0849 
     69 H69        17.5424  -29.9728  -47.7763 H         1 UNK         0.0865 
     70 H70        18.7586  -31.2187  -47.6941 H         1 UNK         0.0865 
     71 H71        19.4200  -32.2239  -45.5533 H         1 UNK         0.1346 
     72 H72        17.0178  -31.3946  -42.0917 H         1 UNK         0.1412 
     73 H73        16.4501  -29.1437  -45.6923 H         1 UNK         0.1426 
     74 H74        15.1406  -29.8662  -42.2680 H         1 UNK         0.0716 
     75 H75        14.6649  -29.3125  -43.8508 H         1 UNK         0.0716 
     76 H76        16.7307  -28.9088  -40.8034 H         1 UNK         0.0695 
     77 H77        16.6546  -27.1923  -40.5228 H         1 UNK         0.0695 
     78 H78        18.8803  -28.6945  -42.0015 H         1 UNK         0.0983 
     79 H79        18.1691  -26.1182  -42.5223 H         1 UNK         0.3095 
     80 H80        19.5528  -24.2361  -42.8885 H         1 UNK         0.0454 
     81 H81        21.9052  -23.9508  -42.2636 H         1 UNK         0.0851 
     82 H82        21.6713  -23.4028  -43.9145 H         1 UNK         0.0851 
     83 H83        22.4430  -24.9551  -43.6023 H         1 UNK         0.0851 
     84 H84        18.9583  -24.8259  -44.9390 H         1 UNK         0.2976 
     85 H85        19.3900  -26.0108  -39.8271 H         1 UNK         0.3116 
     86 H86        19.6974  -27.5211  -37.3703 H         1 UNK         0.0646 
     87 H87        18.9445  -25.1649  -37.3436 H         1 UNK         0.0847 
     88 H88        20.4435  -24.6405  -38.1114 H         1 UNK         0.0847 
     89 H89        20.4701  -25.3158  -36.4892 H         1 UNK         0.0847 
     90 H90        21.1091  -29.1067  -38.4910 H         1 UNK         0.3040 
     91 H91        22.9519  -30.2930  -38.4388 H         1 UNK         0.1015 
     92 H92        24.8819  -29.6827  -37.0191 H         1 UNK         0.0786 
     93 H93        23.3752  -29.3729  -36.1723 H         1 UNK         0.0786 
     94 H94        24.2943  -28.0357  -36.8636 H         1 UNK         0.0786 
     95 H95        23.4966  -27.0098  -39.5772 H         1 UNK         0.3172 
     96 H96        25.9392  -27.3216  -40.9130 H         1 UNK         0.0595 
     97 H97        25.1752  -25.2853  -42.2211 H         1 UNK         0.0839 
     98 H98        24.9729  -25.1210  -40.4834 H         1 UNK         0.0839 
     99 H99        23.5805  -25.4721  -41.5009 H         1 UNK         0.0839 
    100 H100       22.7584  -28.3297  -42.0112 H         1 UNK         0.2998 
    101 H101       23.3827  -28.9915  -44.7053 H         1 UNK         0.0822 
    102 H102       21.3099  -30.3831  -44.5209 H         1 UNK         0.0787 
    103 H103       21.0599  -28.7943  -43.8351 H         1 UNK         0.0787 
    104 H104       21.3107  -30.1787  -42.7737 H         1 UNK         0.0787 
    105 H105       24.6308  -30.4041  -41.8676 H         1 UNK         0.3055 
    106 H106       25.8345  -32.1556  -41.3357 H         1 UNK         0.1106 
    107 H107       27.0491  -31.8809  -43.5223 H         1 UNK         0.0828 
    108 H108       26.9996  -33.5473  -42.9709 H         1 UNK         0.0828 
    109 H109       25.9387  -33.0307  -44.2684 H         1 UNK         0.0828 
    110 H110       23.0878  -32.1729  -41.0481 H         1 UNK         0.2931 
    111 H111       22.5356  -34.8714  -40.4345 H         1 UNK         0.0412 
    112 H112       20.1532  -35.0113  -39.4781 H         1 UNK         0.3472 
    113 H113       19.7008  -33.5945  -38.5678 H         1 UNK         0.3472 
    114 H114       21.8997  -35.2244  -42.7266 H         1 UNK         0.0970 
    115 H115       20.4163  -35.1059  -41.8430 H         1 UNK         0.0970 
    116 H116       18.8646  -32.9003  -41.8820 H         1 UNK         0.0612 
    117 H117       18.4930  -34.0030  -43.1929 H         1 UNK         0.0612 
@<TRIPOS>BOND
     1    1    2 1    
     2    1   62 1    
     3    1   63 1    
     4    1   64 1    
     5    2    3 2    
     6    2    4 am   BACKBONE|DICT|INTERRES
     7    4    5 1    
     8    4   65 1    
     9    5    6 1    
    10    5   25 1    
    11    5   66 1    
    12    6    7 1    
    13    6   67 1    
    14    6   68 1    
    15    7    8 1    
    16    8    9 1    
    17    8   69 1    
    18    8   70 1    
    19    9   10 ar   
    20    9   14 ar   
    21   10   11 ar   
    22   10   71 1    
    23   11   12 ar   
    24   11   61 1    
    25   12   13 ar   
    26   12   72 1    
    27   13   14 ar   
    28   13   15 1    
    29   14   73 1    
    30   15   16 1    
    31   15   74 1    
    32   15   75 1    
    33   16   17 1    
    34   17   18 1    
    35   17   76 1    
    36   17   77 1    
    37   18   19 1    
    38   18   27 1    
    39   18   78 1    
    40   19   20 am   BACKBONE|DICT|INTERRES
    41   19   79 1    
    42   20   21 2    
    43   20   22 1    
    44   22   23 1    
    45   22   24 1    
    46   22   80 1    
    47   23   81 1    
    48   23   82 1    
    49   23   83 1    
    50   24   25 am   BACKBONE|DICT|INTERRES
    51   24   84 1    
    52   25   26 2    
    53   27   28 2    
    54   27   29 am   BACKBONE|DICT|INTERRES
    55   29   30 1    
    56   29   85 1    
    57   30   31 1    
    58   30   32 1    
    59   30   86 1    
    60   31   87 1    
    61   31   88 1    
    62   31   89 1    
    63   32   33 2    
    64   32   34 am   BACKBONE|DICT|INTERRES
    65   34   35 1    
    66   34   90 1    
    67   35   36 1    
    68   35   37 1    
    69   35   91 1    
    70   36   92 1    
    71   36   93 1    
    72   36   94 1    
    73   37   38 2    
    74   37   39 am   BACKBONE|DICT|INTERRES
    75   39   40 1    
    76   39   95 1    
    77   40   41 1    
    78   40   42 1    
    79   40   96 1    
    80   41   97 1    
    81   41   98 1    
    82   41   99 1    
    83   42   43 2    
    84   42   44 am   BACKBONE|DICT|INTERRES
    85   44   45 1    
    86   44  100 1    
    87   45   46 1    
    88   45   47 1    
    89   45  101 1    
    90   46  102 1    
    91   46  103 1    
    92   46  104 1    
    93   47   48 2    
    94   47   49 am   BACKBONE|DICT|INTERRES
    95   49   50 1    
    96   49  105 1    
    97   50   51 1    
    98   50   52 1    
    99   50  106 1    
   100   51  107 1    
   101   51  108 1    
   102   51  109 1    
   103   52   53 2    
   104   52   54 am   BACKBONE|DICT|INTERRES
   105   54   55 1    
   106   54  110 1    
   107   55   56 1    
   108   55   59 1    
   109   55  111 1    
   110   56   57 am   BACKBONE|DICT|INTERRES
   111   56   58 2    
   112   57  112 1    
   113   57  113 1    
   114   59   60 1    
   115   59  114 1    
   116   59  115 1    
   117   60   61 1    
   118   61  116 1    
   119   61  117 1    
@<TRIPOS>SUBSTRUCTURE
     1 UNK         1 GROUP             0       ****    0 ROOT    
