@<TRIPOS>MOLECULE
3R8
117   119    1
SMALL
USER_CHARGES


@<TRIPOS>ATOM
      1 CA         19.4241  -25.4211  -49.7081 C.3       0 UNK        -0.2013 
      2 C          19.1672  -26.1816  -48.4162 C.2       0 UNK         0.4866 
      3 O          20.0234  -26.9494  -47.9757 O.2       0 UNK        -0.5176 
      4 N          17.9995  -25.9692  -47.7967 N.am      1 UNK        -0.4884 
      5 CA         17.5606  -26.6146  -46.5520 C.3       1 UNK         0.0853 
      6 C6         16.0131  -26.6852  -46.4647 C.3       10 UNK        -0.0849 
      7 S7         15.3576  -27.9181  -47.6421 S.3       10 UNK        -0.2776 
      8 C8         14.8369  -29.2818  -46.5424 C.3       10 UNK         0.0316 
      9 C9         15.9276  -29.7130  -45.5674 C.ar      10 UNK        -0.0863 
     10 C10        17.0794  -30.3604  -46.0270 C.ar      10 UNK        -0.1009 
     11 C11        18.0997  -30.7281  -45.1418 C.ar      10 UNK        -0.0712 
     12 C12        17.9378  -30.4546  -43.7777 C.ar      10 UNK        -0.0894 
     13 C13        16.7864  -29.8256  -43.3005 C.ar      10 UNK        -0.0745 
     14 C14        15.7840  -29.4575  -44.2003 C.ar      10 UNK        -0.0972 
     15 C15        16.6219  -29.5464  -41.8139 C.3       10 UNK         0.0209 
     16 S16        17.2001  -27.8731  -41.3868 S.3       10 UNK        -0.2568 
     17 C17        18.6545  -28.2100  -40.3336 C.3       10 UNK        -0.0983 
     18 CA         19.9876  -28.3332  -41.1270 C.3       3 UNK         0.0876 
     19 N          20.2410  -27.1572  -41.9657 N.am      3 UNK        -0.4424 
     20 C          20.3209  -27.2024  -43.2988 C.2       2 UNK         0.4918 
     21 O          20.3524  -28.2445  -43.9529 O.2       2 UNK        -0.4875 
     22 CA         20.3469  -25.8615  -44.0498 C.3       2 UNK         0.0481 
     23 CB         21.7822  -25.4771  -44.4375 C.3       2 UNK        -0.1831 
     24 N          19.5502  -26.0104  -45.2658 N.am      2 UNK        -0.4498 
     25 C          18.2134  -25.9666  -45.3114 C.2       1 UNK         0.5027 
     26 O          17.5177  -25.4594  -44.4293 O.2       1 UNK        -0.4969 
     27 C          21.2232  -28.6272  -40.2496 C.2       3 UNK         0.5005 
     28 O          22.3402  -28.6868  -40.7755 O.2       3 UNK        -0.5279 
     29 N          21.0050  -28.8381  -38.9413 N.am      4 UNK        -0.4463 
     30 CA         21.9918  -29.2104  -37.9229 C.3       4 UNK         0.0283 
     31 CB         21.3163  -29.2060  -36.5425 C.3       4 UNK        -0.1875 
     32 C          23.2326  -28.3041  -37.9069 C.2       4 UNK         0.4949 
     33 O          23.0997  -27.0847  -38.0297 O.2       4 UNK        -0.5039 
     34 N          24.4109  -28.9286  -37.7752 N.am      5 UNK        -0.4663 
     35 CA         25.7681  -28.3579  -37.7957 C.3       5 UNK         0.0242 
     36 CB         25.9750  -27.3496  -36.6482 C.3       5 UNK        -0.1982 
     37 C          26.1983  -27.7536  -39.1470 C.2       5 UNK         0.5017 
     38 O          27.3463  -27.9487  -39.5466 O.2       5 UNK        -0.5012 
     39 N          25.2881  -27.0407  -39.8215 N.am      6 UNK        -0.4439 
     40 CA         25.4914  -26.4118  -41.1262 C.3       6 UNK         0.0297 
     41 CB         24.3296  -25.4489  -41.4143 C.3       6 UNK        -0.2006 
     42 C          25.6546  -27.4406  -42.2569 C.2       6 UNK         0.4892 
     43 O          26.6131  -27.3436  -43.0244 O.2       6 UNK        -0.5089 
     44 N          24.7306  -28.4071  -42.3233 N.am      7 UNK        -0.4243 
     45 CA         24.7560  -29.5280  -43.2682 C.3       7 UNK         0.0196 
     46 CB         23.6454  -29.3336  -44.3089 C.3       7 UNK        -0.2007 
     47 C          24.6055  -30.8860  -42.5629 C.2       7 UNK         0.5020 
     48 O          24.9866  -31.9005  -43.1451 O.2       7 UNK        -0.5147 
     49 N          24.0618  -30.8882  -41.3359 N.am      8 UNK        -0.4734 
     50 CA         23.8570  -32.0259  -40.4258 C.3       8 UNK         0.0238 
     51 CB         25.1603  -32.8148  -40.1790 C.3       8 UNK        -0.1912 
     52 C          22.6754  -32.9466  -40.7850 C.2       8 UNK         0.5038 
     53 O          22.3745  -33.8505  -40.0035 O.2       8 UNK        -0.5046 
     54 N          22.0020  -32.6959  -41.9138 N.am      9 UNK        -0.4200 
     55 CA         20.7145  -33.3057  -42.2761 C.3       9 UNK         0.0839 
     56 C          19.5353  -32.7731  -41.4135 C.2       9 UNK         0.5513 
     57 N          18.4179  -33.4864  -41.3896 N.am      9 UNK        -0.7519 
     58 O          19.6099  -31.7184  -40.7860 O.2       9 UNK        -0.4960 
     59 C59        20.4359  -33.2268  -43.8054 C.3       10 UNK        -0.0876 
     60 S60        20.7659  -31.5992  -44.5684 S.3       10 UNK        -0.2414 
     61 C61        19.3546  -31.3935  -45.7154 C.3       10 UNK         0.0169 
     62 H62        18.5842  -24.7818  -49.9797 H         1 UNK         0.0903 
     63 H63        20.3088  -24.7936  -49.6042 H         1 UNK         0.0903 
     64 H64        19.5961  -26.1202  -50.5260 H         1 UNK         0.0903 
     65 H65        17.3427  -25.3144  -48.1974 H         1 UNK         0.3096 
     66 H66        17.9296  -27.6434  -46.5528 H         1 UNK         0.1121 
     67 H67        15.5680  -25.7121  -46.6784 H         1 UNK         0.0849 
     68 H68        15.6784  -26.9465  -45.4598 H         1 UNK         0.0849 
     69 H69        14.5437  -30.1365  -47.1537 H         1 UNK         0.0865 
     70 H70        13.9389  -28.9743  -46.0042 H         1 UNK         0.0865 
     71 H71        17.1911  -30.5565  -47.0850 H         1 UNK         0.1346 
     72 H72        18.7129  -30.7109  -43.0756 H         1 UNK         0.1412 
     73 H73        14.8965  -28.9598  -43.8333 H         1 UNK         0.1426 
     74 H74        17.1506  -30.3013  -41.2305 H         1 UNK         0.0716 
     75 H75        15.5707  -29.6350  -41.5361 H         1 UNK         0.0716 
     76 H76        18.4572  -29.1158  -39.7573 H         1 UNK         0.0695 
     77 H77        18.7181  -27.3934  -39.6119 H         1 UNK         0.0695 
     78 H78        19.8926  -29.2201  -41.7550 H         1 UNK         0.0983 
     79 H79        20.2609  -26.2656  -41.4934 H         1 UNK         0.3095 
     80 H80        19.9215  -25.0750  -43.4230 H         1 UNK         0.0454 
     81 H81        22.3903  -25.3118  -43.5503 H         1 UNK         0.0851 
     82 H82        21.8035  -24.5564  -45.0204 H         1 UNK         0.0851 
     83 H83        22.2660  -26.2583  -45.0256 H         1 UNK         0.0851 
     84 H84        20.0135  -26.4573  -46.0518 H         1 UNK         0.2976 
     85 H85        20.0550  -28.7530  -38.6121 H         1 UNK         0.3116 
     86 H86        22.3020  -30.2319  -38.1427 H         1 UNK         0.0646 
     87 H87        20.4801  -29.9044  -36.5040 H         1 UNK         0.0847 
     88 H88        20.9409  -28.2155  -36.2813 H         1 UNK         0.0847 
     89 H89        22.0181  -29.5028  -35.7617 H         1 UNK         0.0847 
     90 H90        24.3901  -29.9344  -37.6790 H         1 UNK         0.3040 
     91 H91        26.4405  -29.1981  -37.6122 H         1 UNK         0.1015 
     92 H92        27.0130  -27.0167  -36.6071 H         1 UNK         0.0786 
     93 H93        25.7397  -27.7952  -35.6817 H         1 UNK         0.0786 
     94 H94        25.3565  -26.4596  -36.7668 H         1 UNK         0.0786 
     95 H95        24.3772  -26.9288  -39.3816 H         1 UNK         0.3172 
     96 H96        26.4107  -25.8246  -41.0739 H         1 UNK         0.0595 
     97 H97        24.4634  -24.9582  -42.3790 H         1 UNK         0.0839 
     98 H98        24.2699  -24.6645  -40.6596 H         1 UNK         0.0839 
     99 H99        23.3699  -25.9672  -41.4323 H         1 UNK         0.0839 
    100 H100       23.9457  -28.3769  -41.6767 H         1 UNK         0.2998 
    101 H101       25.7139  -29.5571  -43.7918 H         1 UNK         0.0822 
    102 H102       23.6477  -30.1395  -45.0440 H         1 UNK         0.0787 
    103 H103       23.7651  -28.3959  -44.8512 H         1 UNK         0.0787 
    104 H104       22.6645  -29.3259  -43.8358 H         1 UNK         0.0787 
    105 H105       23.6562  -30.0149  -41.0100 H         1 UNK         0.3055 
    106 H106       23.5810  -31.5790  -39.4722 H         1 UNK         0.1106 
    107 H107       25.9797  -32.1530  -39.8987 H         1 UNK         0.0828 
    108 H108       25.0328  -33.5321  -39.3673 H         1 UNK         0.0828 
    109 H109       25.4689  -33.3810  -41.0578 H         1 UNK         0.0828 
    110 H110       22.3024  -31.9277  -42.4953 H         1 UNK         0.2931 
    111 H111       20.7964  -34.3675  -42.0342 H         1 UNK         0.0412 
    112 H112       18.3395  -34.3557  -41.8938 H         1 UNK         0.3472 
    113 H113       17.6410  -33.1576  -40.8386 H         1 UNK         0.3472 
    114 H114       19.4152  -33.5405  -44.0315 H         1 UNK         0.0970 
    115 H115       21.0752  -33.9485  -44.3159 H         1 UNK         0.0970 
    116 H116       19.7085  -30.7823  -46.5470 H         1 UNK         0.0612 
    117 H117       19.0887  -32.3620  -46.1407 H         1 UNK         0.0612 
@<TRIPOS>BOND
     1    1    2 1    
     2    1   62 1    
     3    1   63 1    
     4    1   64 1    
     5    2    3 2    
     6    2    4 am   BACKBONE|DICT|INTERRES
     7    4    5 1    
     8    4   65 1    
     9    5    6 1    
    10    5   25 1    
    11    5   66 1    
    12    6    7 1    
    13    6   67 1    
    14    6   68 1    
    15    7    8 1    
    16    8    9 1    
    17    8   69 1    
    18    8   70 1    
    19    9   10 ar   
    20    9   14 ar   
    21   10   11 ar   
    22   10   71 1    
    23   11   12 ar   
    24   11   61 1    
    25   12   13 ar   
    26   12   72 1    
    27   13   14 ar   
    28   13   15 1    
    29   14   73 1    
    30   15   16 1    
    31   15   74 1    
    32   15   75 1    
    33   16   17 1    
    34   17   18 1    
    35   17   76 1    
    36   17   77 1    
    37   18   19 1    
    38   18   27 1    
    39   18   78 1    
    40   19   20 am   BACKBONE|DICT|INTERRES
    41   19   79 1    
    42   20   21 2    
    43   20   22 1    
    44   22   23 1    
    45   22   24 1    
    46   22   80 1    
    47   23   81 1    
    48   23   82 1    
    49   23   83 1    
    50   24   25 am   BACKBONE|DICT|INTERRES
    51   24   84 1    
    52   25   26 2    
    53   27   28 2    
    54   27   29 am   BACKBONE|DICT|INTERRES
    55   29   30 1    
    56   29   85 1    
    57   30   31 1    
    58   30   32 1    
    59   30   86 1    
    60   31   87 1    
    61   31   88 1    
    62   31   89 1    
    63   32   33 2    
    64   32   34 am   BACKBONE|DICT|INTERRES
    65   34   35 1    
    66   34   90 1    
    67   35   36 1    
    68   35   37 1    
    69   35   91 1    
    70   36   92 1    
    71   36   93 1    
    72   36   94 1    
    73   37   38 2    
    74   37   39 am   BACKBONE|DICT|INTERRES
    75   39   40 1    
    76   39   95 1    
    77   40   41 1    
    78   40   42 1    
    79   40   96 1    
    80   41   97 1    
    81   41   98 1    
    82   41   99 1    
    83   42   43 2    
    84   42   44 am   BACKBONE|DICT|INTERRES
    85   44   45 1    
    86   44  100 1    
    87   45   46 1    
    88   45   47 1    
    89   45  101 1    
    90   46  102 1    
    91   46  103 1    
    92   46  104 1    
    93   47   48 2    
    94   47   49 am   BACKBONE|DICT|INTERRES
    95   49   50 1    
    96   49  105 1    
    97   50   51 1    
    98   50   52 1    
    99   50  106 1    
   100   51  107 1    
   101   51  108 1    
   102   51  109 1    
   103   52   53 2    
   104   52   54 am   BACKBONE|DICT|INTERRES
   105   54   55 1    
   106   54  110 1    
   107   55   56 1    
   108   55   59 1    
   109   55  111 1    
   110   56   57 am   BACKBONE|DICT|INTERRES
   111   56   58 2    
   112   57  112 1    
   113   57  113 1    
   114   59   60 1    
   115   59  114 1    
   116   59  115 1    
   117   60   61 1    
   118   61  116 1    
   119   61  117 1    
@<TRIPOS>SUBSTRUCTURE
     1 UNK         1 GROUP             0       ****    0 ROOT    
