@<TRIPOS>MOLECULE
3R8
117   119    1
SMALL
USER_CHARGES


@<TRIPOS>ATOM
      1 CA         15.4316  -23.2177  -42.6953 C.3       0 UNK        -0.2013 
      2 C          15.5103  -24.7297  -42.5451 C.2       0 UNK         0.4866 
      3 O          15.3989  -25.2361  -41.4289 O.2       0 UNK        -0.5176 
      4 N          15.6971  -25.4467  -43.6631 N.am      1 UNK        -0.4884 
      5 CA         15.8315  -26.9093  -43.7499 C.3       1 UNK         0.0853 
      6 C6         14.5281  -27.6697  -43.3484 C.3       10 UNK        -0.0849 
      7 S7         13.9696  -28.8623  -44.6114 S.3       10 UNK        -0.2776 
      8 C8         15.0436  -30.3113  -44.3052 C.3       10 UNK         0.0316 
      9 C9         16.4324  -30.2279  -44.9434 C.ar      10 UNK        -0.0863 
     10 C10        17.5014  -30.9034  -44.3433 C.ar      10 UNK        -0.1009 
     11 C11        18.7814  -30.8618  -44.9053 C.ar      10 UNK        -0.0712 
     12 C12        18.9888  -30.1455  -46.0859 C.ar      10 UNK        -0.0894 
     13 C13        17.9350  -29.4611  -46.6975 C.ar      10 UNK        -0.0745 
     14 C14        16.6600  -29.5190  -46.1301 C.ar      10 UNK        -0.0972 
     15 C15        18.1577  -28.6741  -47.9813 C.3       10 UNK         0.0209 
     16 S16        18.8335  -27.0130  -47.6529 S.3       10 UNK        -0.2568 
     17 C17        20.6163  -27.3767  -47.4940 C.3       10 UNK        -0.0983 
     18 CA         21.2532  -26.9236  -46.1539 C.3       3 UNK         0.0876 
     19 N          20.4190  -27.2233  -44.9788 N.am      3 UNK        -0.4424 
     20 C          20.6638  -26.8057  -43.7268 C.2       2 UNK         0.4918 
     21 O          21.7145  -26.2599  -43.3858 O.2       2 UNK        -0.4875 
     22 CA         19.5387  -27.0059  -42.6996 C.3       2 UNK         0.0481 
     23 CB         19.7105  -26.1285  -41.4448 C.3       2 UNK        -0.1831 
     24 N          18.2344  -26.7443  -43.3090 N.am      2 UNK        -0.4498 
     25 C          17.1043  -27.4033  -43.0194 C.2       1 UNK         0.5027 
     26 O          17.0443  -28.3255  -42.2051 O.2       1 UNK        -0.4969 
     27 C          22.6983  -27.4604  -46.0639 C.2       3 UNK         0.5005 
     28 O          23.5832  -26.9111  -46.7222 O.2       3 UNK        -0.5279 
     29 N          22.9164  -28.5150  -45.2628 N.am      4 UNK        -0.4463 
     30 CA         24.2336  -29.1051  -45.0097 C.3       4 UNK         0.0283 
     31 CB         24.0617  -30.4593  -44.3008 C.3       4 UNK        -0.1875 
     32 C          25.1667  -28.1984  -44.1863 C.2       4 UNK         0.4949 
     33 O          26.3821  -28.3748  -44.2716 O.2       4 UNK        -0.5039 
     34 N          24.5903  -27.2731  -43.3978 N.am      5 UNK        -0.4663 
     35 CA         25.2660  -26.3586  -42.4646 C.3       5 UNK         0.0242 
     36 CB         26.0597  -25.2852  -43.2392 C.3       5 UNK        -0.1982 
     37 C          26.1211  -27.1015  -41.4155 C.2       5 UNK         0.5017 
     38 O          27.2255  -26.6634  -41.0868 O.2       5 UNK        -0.5012 
     39 N          25.5960  -28.2317  -40.9312 N.am      6 UNK        -0.4439 
     40 CA         26.2422  -29.1641  -40.0158 C.3       6 UNK         0.0297 
     41 CB         27.1266  -30.1376  -40.8181 C.3       6 UNK        -0.2006 
     42 C          25.1568  -29.9156  -39.2387 C.2       6 UNK         0.4892 
     43 O          23.9816  -29.8544  -39.6132 O.2       6 UNK        -0.5089 
     44 N          25.5768  -30.6423  -38.1941 N.am      7 UNK        -0.4243 
     45 CA         24.7383  -31.3794  -37.2356 C.3       7 UNK         0.0196 
     46 CB         25.6516  -32.0219  -36.1774 C.3       7 UNK        -0.2007 
     47 C          23.7786  -32.4337  -37.8271 C.2       7 UNK         0.5020 
     48 O          22.9007  -32.9101  -37.1071 O.2       7 UNK        -0.5147 
     49 N          23.9365  -32.7689  -39.1147 N.am      8 UNK        -0.4734 
     50 CA         23.0123  -33.5954  -39.8945 C.3       8 UNK         0.0238 
     51 CB         23.6213  -33.8572  -41.2821 C.3       8 UNK        -0.1912 
     52 C          21.6055  -32.9821  -40.0399 C.2       8 UNK         0.5038 
     53 O          20.6409  -33.7401  -40.1534 O.2       8 UNK        -0.5046 
     54 N          21.5077  -31.6453  -40.0272 N.am      9 UNK        -0.4200 
     55 CA         20.2397  -30.9043  -40.1263 C.3       9 UNK         0.0839 
     56 C          20.2765  -29.4555  -39.5670 C.2       9 UNK         0.5513 
     57 N          21.4237  -28.8704  -39.2486 N.am      9 UNK        -0.7519 
     58 O          19.2240  -28.8557  -39.3702 O.2       9 UNK        -0.4960 
     59 C59        19.5753  -30.9908  -41.5309 C.3       10 UNK        -0.0876 
     60 S60        20.6997  -30.6165  -42.9228 S.3       10 UNK        -0.2414 
     61 C61        19.9428  -31.5995  -44.2537 C.3       10 UNK         0.0169 
     62 H62        15.5360  -22.9029  -43.7335 H         1 UNK         0.0903 
     63 H63        14.4731  -22.8537  -42.3261 H         1 UNK         0.0903 
     64 H64        16.2225  -22.7420  -42.1158 H         1 UNK         0.0903 
     65 H65        15.7682  -24.9577  -44.5455 H         1 UNK         0.3096 
     66 H66        16.0229  -27.0995  -44.8067 H         1 UNK         0.1121 
     67 H67        13.7060  -26.9617  -43.2332 H         1 UNK         0.0849 
     68 H68        14.5934  -28.1615  -42.3766 H         1 UNK         0.0849 
     69 H69        15.1302  -30.4640  -43.2280 H         1 UNK         0.0865 
     70 H70        14.5446  -31.1967  -44.7009 H         1 UNK         0.0865 
     71 H71        17.3379  -31.4625  -43.4326 H         1 UNK         0.1346 
     72 H72        19.9742  -30.1307  -46.5271 H         1 UNK         0.1412 
     73 H73        15.8441  -29.0069  -46.6209 H         1 UNK         0.1426 
     74 H74        17.2136  -28.5600  -48.5163 H         1 UNK         0.0716 
     75 H75        18.8147  -29.2248  -48.6562 H         1 UNK         0.0716 
     76 H76        21.1201  -26.8746  -48.3222 H         1 UNK         0.0695 
     77 H77        20.7872  -28.4392  -47.6653 H         1 UNK         0.0695 
     78 H78        21.3371  -25.8350  -46.1875 H         1 UNK         0.0983 
     79 H79        19.5388  -27.6805  -45.1729 H         1 UNK         0.3095 
     80 H80        19.5902  -28.0483  -42.3882 H         1 UNK         0.0454 
     81 H81        19.6993  -25.0663  -41.6907 H         1 UNK         0.0851 
     82 H82        20.6553  -26.3421  -40.9438 H         1 UNK         0.0851 
     83 H83        18.9165  -26.3153  -40.7215 H         1 UNK         0.0851 
     84 H84        18.1989  -25.9861  -43.9769 H         1 UNK         0.2976 
     85 H85        22.1335  -28.9038  -44.7560 H         1 UNK         0.3116 
     86 H86        24.7128  -29.2840  -45.9747 H         1 UNK         0.0646 
     87 H87        23.6426  -30.3423  -43.3008 H         1 UNK         0.0847 
     88 H88        25.0230  -30.9624  -44.1880 H         1 UNK         0.0847 
     89 H89        23.4118  -31.1287  -44.8644 H         1 UNK         0.0847 
     90 H90        23.5798  -27.1814  -43.4313 H         1 UNK         0.3040 
     91 H91        24.4777  -25.8488  -41.9080 H         1 UNK         0.1015 
     92 H92        26.9002  -25.7172  -43.7832 H         1 UNK         0.0786 
     93 H93        26.4629  -24.5313  -42.5619 H         1 UNK         0.0786 
     94 H94        25.4254  -24.7673  -43.9587 H         1 UNK         0.0786 
     95 H95        24.6523  -28.4920  -41.1892 H         1 UNK         0.3172 
     96 H96        26.8527  -28.6094  -39.3002 H         1 UNK         0.0595 
     97 H97        26.5405  -30.7167  -41.5332 H         1 UNK         0.0839 
     98 H98        27.6397  -30.8440  -40.1646 H         1 UNK         0.0839 
     99 H99        27.8951  -29.6038  -41.3778 H         1 UNK         0.0839 
    100 H100       26.5670  -30.6442  -37.9945 H         1 UNK         0.2998 
    101 H101       24.1081  -30.6408  -36.7360 H         1 UNK         0.0822 
    102 H102       26.2501  -31.2723  -35.6591 H         1 UNK         0.0787 
    103 H103       25.0680  -32.5448  -35.4182 H         1 UNK         0.0787 
    104 H104       26.3324  -32.7488  -36.6223 H         1 UNK         0.0787 
    105 H105       24.6829  -32.3192  -39.6238 H         1 UNK         0.3055 
    106 H106       22.8995  -34.5507  -39.3771 H         1 UNK         0.1106 
    107 H107       23.7689  -32.9312  -41.8400 H         1 UNK         0.0828 
    108 H108       22.9685  -34.4951  -41.8799 H         1 UNK         0.0828 
    109 H109       24.5840  -34.3629  -41.2062 H         1 UNK         0.0828 
    110 H110       22.3478  -31.0892  -39.9229 H         1 UNK         0.2931 
    111 H111       19.5585  -31.4086  -39.4376 H         1 UNK         0.0412 
    112 H112       21.3910  -27.9416  -38.8617 H         1 UNK         0.3472 
    113 H113       22.3285  -29.3095  -39.3968 H         1 UNK         0.3472 
    114 H114       18.7046  -30.3362  -41.5954 H         1 UNK         0.0970 
    115 H115       19.1830  -31.9990  -41.6654 H         1 UNK         0.0970 
    116 H116       20.7106  -31.8170  -44.9977 H         1 UNK         0.0612 
    117 H117       19.6143  -32.5675  -43.8731 H         1 UNK         0.0612 
@<TRIPOS>BOND
     1    1    2 1    
     2    1   62 1    
     3    1   63 1    
     4    1   64 1    
     5    2    3 2    
     6    2    4 am   BACKBONE|DICT|INTERRES
     7    4    5 1    
     8    4   65 1    
     9    5    6 1    
    10    5   25 1    
    11    5   66 1    
    12    6    7 1    
    13    6   67 1    
    14    6   68 1    
    15    7    8 1    
    16    8    9 1    
    17    8   69 1    
    18    8   70 1    
    19    9   10 ar   
    20    9   14 ar   
    21   10   11 ar   
    22   10   71 1    
    23   11   12 ar   
    24   11   61 1    
    25   12   13 ar   
    26   12   72 1    
    27   13   14 ar   
    28   13   15 1    
    29   14   73 1    
    30   15   16 1    
    31   15   74 1    
    32   15   75 1    
    33   16   17 1    
    34   17   18 1    
    35   17   76 1    
    36   17   77 1    
    37   18   19 1    
    38   18   27 1    
    39   18   78 1    
    40   19   20 am   BACKBONE|DICT|INTERRES
    41   19   79 1    
    42   20   21 2    
    43   20   22 1    
    44   22   23 1    
    45   22   24 1    
    46   22   80 1    
    47   23   81 1    
    48   23   82 1    
    49   23   83 1    
    50   24   25 am   BACKBONE|DICT|INTERRES
    51   24   84 1    
    52   25   26 2    
    53   27   28 2    
    54   27   29 am   BACKBONE|DICT|INTERRES
    55   29   30 1    
    56   29   85 1    
    57   30   31 1    
    58   30   32 1    
    59   30   86 1    
    60   31   87 1    
    61   31   88 1    
    62   31   89 1    
    63   32   33 2    
    64   32   34 am   BACKBONE|DICT|INTERRES
    65   34   35 1    
    66   34   90 1    
    67   35   36 1    
    68   35   37 1    
    69   35   91 1    
    70   36   92 1    
    71   36   93 1    
    72   36   94 1    
    73   37   38 2    
    74   37   39 am   BACKBONE|DICT|INTERRES
    75   39   40 1    
    76   39   95 1    
    77   40   41 1    
    78   40   42 1    
    79   40   96 1    
    80   41   97 1    
    81   41   98 1    
    82   41   99 1    
    83   42   43 2    
    84   42   44 am   BACKBONE|DICT|INTERRES
    85   44   45 1    
    86   44  100 1    
    87   45   46 1    
    88   45   47 1    
    89   45  101 1    
    90   46  102 1    
    91   46  103 1    
    92   46  104 1    
    93   47   48 2    
    94   47   49 am   BACKBONE|DICT|INTERRES
    95   49   50 1    
    96   49  105 1    
    97   50   51 1    
    98   50   52 1    
    99   50  106 1    
   100   51  107 1    
   101   51  108 1    
   102   51  109 1    
   103   52   53 2    
   104   52   54 am   BACKBONE|DICT|INTERRES
   105   54   55 1    
   106   54  110 1    
   107   55   56 1    
   108   55   59 1    
   109   55  111 1    
   110   56   57 am   BACKBONE|DICT|INTERRES
   111   56   58 2    
   112   57  112 1    
   113   57  113 1    
   114   59   60 1    
   115   59  114 1    
   116   59  115 1    
   117   60   61 1    
   118   61  116 1    
   119   61  117 1    
@<TRIPOS>SUBSTRUCTURE
     1 UNK         1 GROUP             0       ****    0 ROOT    
