@<TRIPOS>MOLECULE
3R8
117   119    1
SMALL
USER_CHARGES


@<TRIPOS>ATOM
      1 CA         17.4486  -32.9407  -46.7456 C.3       0 UNK        -0.2013 
      2 C          17.3159  -31.4250  -46.7240 C.2       0 UNK         0.4866 
      3 O          17.1969  -30.8098  -47.7839 O.2       0 UNK        -0.5176 
      4 N          17.3299  -30.8264  -45.5243 N.am      1 UNK        -0.4884 
      5 CA         17.2639  -29.3812  -45.2760 C.3       1 UNK         0.0853 
      6 C6         15.8839  -28.7765  -45.6665 C.3       10 UNK        -0.0849 
      7 S7         15.5140  -27.1359  -44.9483 S.3       10 UNK        -0.2776 
      8 C8         15.2095  -27.5034  -43.1876 C.3       10 UNK         0.0316 
      9 C9         16.4367  -27.2228  -42.3275 C.ar      10 UNK        -0.0863 
     10 C10        17.0759  -28.2550  -41.6320 C.ar      10 UNK        -0.1009 
     11 C11        18.1930  -27.9850  -40.8342 C.ar      10 UNK        -0.0712 
     12 C12        18.6529  -26.6716  -40.7106 C.ar      10 UNK        -0.0894 
     13 C13        18.0438  -25.6372  -41.4238 C.ar      10 UNK        -0.0745 
     14 C14        16.9255  -25.9164  -42.2154 C.ar      10 UNK        -0.0972 
     15 C15        18.6065  -24.2243  -41.3595 C.3       10 UNK         0.0209 
     16 S16        19.3697  -23.7301  -42.9401 S.3       10 UNK        -0.2568 
     17 C17        20.9786  -24.6029  -42.9247 C.3       10 UNK        -0.0983 
     18 CA         20.9132  -26.0945  -43.3616 C.3       3 UNK         0.0876 
     19 N          20.0924  -26.3317  -44.5511 N.am      3 UNK        -0.4424 
     20 C          20.3772  -26.0386  -45.8269 C.2       2 UNK         0.4918 
     21 O          21.3901  -25.4360  -46.1842 O.2       2 UNK        -0.4875 
     22 CA         19.3598  -26.5151  -46.8882 C.3       2 UNK         0.0481 
     23 CB         20.0629  -27.1152  -48.1234 C.3       2 UNK        -0.1831 
     24 N          18.3338  -27.4398  -46.3756 N.am      2 UNK        -0.4498 
     25 C          18.5117  -28.6573  -45.8386 C.2       1 UNK         0.5027 
     26 O          19.6200  -29.1829  -45.7036 O.2       1 UNK        -0.4969 
     27 C          22.3005  -26.7715  -43.4429 C.2       3 UNK         0.5005 
     28 O          23.2732  -26.2250  -42.9192 O.2       3 UNK        -0.5279 
     29 N          22.3648  -27.9447  -44.0987 N.am      4 UNK        -0.4463 
     30 CA         23.5669  -28.7436  -44.3662 C.3       4 UNK         0.0283 
     31 CB         23.1585  -30.0643  -45.0392 C.3       4 UNK        -0.1875 
     32 C          24.4104  -29.0013  -43.1061 C.2       4 UNK         0.4949 
     33 O          24.0023  -29.7785  -42.2390 O.2       4 UNK        -0.5039 
     34 N          25.5310  -28.2712  -42.9974 N.am      5 UNK        -0.4663 
     35 CA         26.4729  -28.2169  -41.8665 C.3       5 UNK         0.0242 
     36 CB         27.2183  -29.5630  -41.7393 C.3       5 UNK        -0.1982 
     37 C          25.8468  -27.7912  -40.5185 C.2       5 UNK         0.5017 
     38 O          26.5064  -27.9194  -39.4863 O.2       5 UNK        -0.5012 
     39 N          24.5794  -27.3461  -40.5423 N.am      6 UNK        -0.4439 
     40 CA         23.6584  -27.1782  -39.4122 C.3       6 UNK         0.0297 
     41 CB         24.0425  -25.9312  -38.5899 C.3       6 UNK        -0.2006 
     42 C          23.5091  -28.4475  -38.5392 C.2       6 UNK         0.4892 
     43 O          23.2245  -28.3260  -37.3459 O.2       6 UNK        -0.5089 
     44 N          23.7249  -29.6353  -39.1278 N.am      7 UNK        -0.4243 
     45 CA         23.8159  -30.9062  -38.4013 C.3       7 UNK         0.0196 
     46 CB         25.1527  -30.9888  -37.6366 C.3       7 UNK        -0.2007 
     47 C          23.6496  -32.1441  -39.2933 C.2       7 UNK         0.5020 
     48 O          23.1538  -33.1583  -38.8021 O.2       7 UNK        -0.5147 
     49 N          24.0672  -32.0756  -40.5663 N.am      8 UNK        -0.4734 
     50 CA         23.9008  -33.1685  -41.5333 C.3       8 UNK         0.0238 
     51 CB         24.9384  -33.0244  -42.6591 C.3       8 UNK        -0.1912 
     52 C          22.4742  -33.2164  -42.1063 C.2       8 UNK         0.5038 
     53 O          22.0289  -34.2805  -42.5378 O.2       8 UNK        -0.5046 
     54 N          21.7914  -32.0662  -42.0883 N.am      9 UNK        -0.4200 
     55 CA         20.3692  -31.8916  -42.3931 C.3       9 UNK         0.0839 
     56 C          19.4403  -32.7077  -41.4501 C.2       9 UNK         0.5513 
     57 N          18.3870  -33.3099  -41.9858 N.am      9 UNK        -0.7519 
     58 O          19.6429  -32.7700  -40.2398 O.2       9 UNK        -0.4960 
     59 C59        19.9932  -30.3861  -42.4145 C.3       10 UNK        -0.0876 
     60 S60        20.5247  -29.4530  -40.9322 S.3       10 UNK        -0.2414 
     61 C61        18.9322  -29.1059  -40.1214 C.3       10 UNK         0.0169 
     62 H62        17.5073  -33.3622  -45.7425 H         1 UNK         0.0903 
     63 H63        16.5902  -33.3849  -47.2490 H         1 UNK         0.0903 
     64 H64        18.3484  -33.2296  -47.2881 H         1 UNK         0.0903 
     65 H65        17.4400  -31.3977  -44.6998 H         1 UNK         0.3096 
     66 H66        17.3587  -29.2838  -44.1963 H         1 UNK         0.1121 
     67 H67        15.0866  -29.4533  -45.3548 H         1 UNK         0.0849 
     68 H68        15.7907  -28.7074  -46.7518 H         1 UNK         0.0849 
     69 H69        14.3898  -26.8741  -42.8381 H         1 UNK         0.0865 
     70 H70        14.8690  -28.5334  -43.0706 H         1 UNK         0.0865 
     71 H71        16.7088  -29.2690  -41.7139 H         1 UNK         0.1346 
     72 H72        19.5200  -26.4665  -40.0973 H         1 UNK         0.1412 
     73 H73        16.4460  -25.1158  -42.7628 H         1 UNK         0.1426 
     74 H74        19.3341  -24.1226  -40.5528 H         1 UNK         0.0716 
     75 H75        17.7962  -23.5310  -41.1298 H         1 UNK         0.0716 
     76 H76        21.4120  -24.5171  -41.9266 H         1 UNK         0.0695 
     77 H77        21.6458  -24.0530  -43.5909 H         1 UNK         0.0695 
     78 H78        20.4180  -26.6447  -42.5677 H         1 UNK         0.0983 
     79 H79        19.2105  -26.7887  -44.3756 H         1 UNK         0.3095 
     80 H80        18.8232  -25.6227  -47.2128 H         1 UNK         0.0454 
     81 H81        20.6818  -27.9738  -47.8610 H         1 UNK         0.0851 
     82 H82        20.7139  -26.3814  -48.5999 H         1 UNK         0.0851 
     83 H83        19.3409  -27.4392  -48.8728 H         1 UNK         0.0851 
     84 H84        17.3864  -27.0800  -46.3804 H         1 UNK         0.2976 
     85 H85        21.5077  -28.2959  -44.5058 H         1 UNK         0.3116 
     86 H86        24.1713  -28.1814  -45.0805 H         1 UNK         0.0646 
     87 H87        22.6207  -29.8870  -45.9709 H         1 UNK         0.0847 
     88 H88        24.0352  -30.6662  -45.2815 H         1 UNK         0.0847 
     89 H89        22.5188  -30.6681  -44.3968 H         1 UNK         0.0847 
     90 H90        25.7279  -27.6167  -43.7429 H         1 UNK         0.3040 
     91 H91        27.2071  -27.4478  -42.1119 H         1 UNK         0.1015 
     92 H92        26.5535  -30.3684  -41.4265 H         1 UNK         0.0786 
     93 H93        28.0200  -29.5013  -41.0022 H         1 UNK         0.0786 
     94 H94        27.6747  -29.8548  -42.6851 H         1 UNK         0.0786 
     95 H95        24.1634  -27.2006  -41.4590 H         1 UNK         0.3172 
     96 H96        22.6756  -26.9982  -39.8506 H         1 UNK         0.0595 
     97 H97        24.9972  -26.0643  -38.0801 H         1 UNK         0.0839 
     98 H98        23.2928  -25.7160  -37.8276 H         1 UNK         0.0839 
     99 H99        24.1201  -25.0475  -39.2233 H         1 UNK         0.0839 
    100 H100       23.8803  -29.6518  -40.1290 H         1 UNK         0.2998 
    101 H101       22.9995  -30.9387  -37.6762 H         1 UNK         0.0822 
    102 H102       25.2550  -31.9462  -37.1235 H         1 UNK         0.0787 
    103 H103       26.0046  -30.8838  -38.3098 H         1 UNK         0.0787 
    104 H104       25.2306  -30.2102  -36.8778 H         1 UNK         0.0787 
    105 H105       24.4219  -31.2060  -40.9473 H         1 UNK         0.3055 
    106 H106       24.0820  -34.1200  -41.0277 H         1 UNK         0.1106 
    107 H107       24.8717  -33.8603  -43.3566 H         1 UNK         0.0828 
    108 H108       24.7923  -32.1113  -43.2354 H         1 UNK         0.0828 
    109 H109       25.9543  -33.0131  -42.2642 H         1 UNK         0.0828 
    110 H110       22.2589  -31.2478  -41.7229 H         1 UNK         0.2931 
    111 H111       20.2267  -32.2742  -43.4060 H         1 UNK         0.0412 
    112 H112       17.7689  -33.8320  -41.3841 H         1 UNK         0.3472 
    113 H113       18.2265  -33.3042  -42.9794 H         1 UNK         0.3472 
    114 H114       20.4677  -29.9161  -43.2744 H         1 UNK         0.0970 
    115 H115       18.9229  -30.2609  -42.5761 H         1 UNK         0.0970 
    116 H116       18.3313  -30.0157  -40.0810 H         1 UNK         0.0612 
    117 H117       19.1204  -28.8147  -39.0871 H         1 UNK         0.0612 
@<TRIPOS>BOND
     1    1    2 1    
     2    1   62 1    
     3    1   63 1    
     4    1   64 1    
     5    2    3 2    
     6    2    4 am   BACKBONE|DICT|INTERRES
     7    4    5 1    
     8    4   65 1    
     9    5    6 1    
    10    5   25 1    
    11    5   66 1    
    12    6    7 1    
    13    6   67 1    
    14    6   68 1    
    15    7    8 1    
    16    8    9 1    
    17    8   69 1    
    18    8   70 1    
    19    9   10 ar   
    20    9   14 ar   
    21   10   11 ar   
    22   10   71 1    
    23   11   12 ar   
    24   11   61 1    
    25   12   13 ar   
    26   12   72 1    
    27   13   14 ar   
    28   13   15 1    
    29   14   73 1    
    30   15   16 1    
    31   15   74 1    
    32   15   75 1    
    33   16   17 1    
    34   17   18 1    
    35   17   76 1    
    36   17   77 1    
    37   18   19 1    
    38   18   27 1    
    39   18   78 1    
    40   19   20 am   BACKBONE|DICT|INTERRES
    41   19   79 1    
    42   20   21 2    
    43   20   22 1    
    44   22   23 1    
    45   22   24 1    
    46   22   80 1    
    47   23   81 1    
    48   23   82 1    
    49   23   83 1    
    50   24   25 am   BACKBONE|DICT|INTERRES
    51   24   84 1    
    52   25   26 2    
    53   27   28 2    
    54   27   29 am   BACKBONE|DICT|INTERRES
    55   29   30 1    
    56   29   85 1    
    57   30   31 1    
    58   30   32 1    
    59   30   86 1    
    60   31   87 1    
    61   31   88 1    
    62   31   89 1    
    63   32   33 2    
    64   32   34 am   BACKBONE|DICT|INTERRES
    65   34   35 1    
    66   34   90 1    
    67   35   36 1    
    68   35   37 1    
    69   35   91 1    
    70   36   92 1    
    71   36   93 1    
    72   36   94 1    
    73   37   38 2    
    74   37   39 am   BACKBONE|DICT|INTERRES
    75   39   40 1    
    76   39   95 1    
    77   40   41 1    
    78   40   42 1    
    79   40   96 1    
    80   41   97 1    
    81   41   98 1    
    82   41   99 1    
    83   42   43 2    
    84   42   44 am   BACKBONE|DICT|INTERRES
    85   44   45 1    
    86   44  100 1    
    87   45   46 1    
    88   45   47 1    
    89   45  101 1    
    90   46  102 1    
    91   46  103 1    
    92   46  104 1    
    93   47   48 2    
    94   47   49 am   BACKBONE|DICT|INTERRES
    95   49   50 1    
    96   49  105 1    
    97   50   51 1    
    98   50   52 1    
    99   50  106 1    
   100   51  107 1    
   101   51  108 1    
   102   51  109 1    
   103   52   53 2    
   104   52   54 am   BACKBONE|DICT|INTERRES
   105   54   55 1    
   106   54  110 1    
   107   55   56 1    
   108   55   59 1    
   109   55  111 1    
   110   56   57 am   BACKBONE|DICT|INTERRES
   111   56   58 2    
   112   57  112 1    
   113   57  113 1    
   114   59   60 1    
   115   59  114 1    
   116   59  115 1    
   117   60   61 1    
   118   61  116 1    
   119   61  117 1    
@<TRIPOS>SUBSTRUCTURE
     1 UNK         1 GROUP             0       ****    0 ROOT    
