@<TRIPOS>MOLECULE
3R8
117   119    1
SMALL
USER_CHARGES


@<TRIPOS>ATOM
      1 CA         19.3336  -23.9386  -41.3269 C.3       0 UNK        -0.2013 
      2 C          18.1129  -23.9913  -42.2334 C.2       0 UNK         0.4866 
      3 O          17.7053  -22.9614  -42.7707 O.2       0 UNK        -0.5176 
      4 N          17.5206  -25.1814  -42.3955 N.am      1 UNK        -0.4884 
      5 CA         16.3541  -25.4502  -43.2467 C.3       1 UNK         0.0853 
      6 C6         15.7330  -26.8442  -42.9570 C.3       10 UNK        -0.0849 
      7 S7         16.9562  -28.2023  -42.8422 S.3       10 UNK        -0.2776 
      8 C8         16.5860  -29.1683  -44.3359 C.3       10 UNK         0.0316 
      9 C9         17.5762  -30.3116  -44.4941 C.ar      10 UNK        -0.0863 
     10 C10        17.2806  -31.5697  -43.9650 C.ar      10 UNK        -0.1009 
     11 C11        18.1738  -32.6326  -44.1169 C.ar      10 UNK        -0.0712 
     12 C12        19.3810  -32.4219  -44.7912 C.ar      10 UNK        -0.0894 
     13 C13        19.7008  -31.1655  -45.3226 C.ar      10 UNK        -0.0745 
     14 C14        18.7823  -30.1156  -45.1742 C.ar      10 UNK        -0.0972 
     15 C15        21.0466  -31.0099  -46.0414 C.3       10 UNK         0.0209 
     16 S16        21.4732  -29.3399  -46.6556 S.3       10 UNK        -0.2568 
     17 C17        21.8860  -28.4517  -45.1158 C.3       10 UNK        -0.0983 
     18 CA         21.7502  -26.9091  -45.2357 C.3       3 UNK         0.0876 
     19 N          20.3682  -26.4886  -45.4421 N.am      3 UNK        -0.4424 
     20 C          19.7775  -26.1978  -46.6065 C.2       2 UNK         0.4918 
     21 O          20.3552  -26.2341  -47.6932 O.2       2 UNK        -0.4875 
     22 CA         18.2880  -25.8090  -46.5619 C.3       2 UNK         0.0481 
     23 CB         17.4586  -26.6661  -47.5390 C.3       2 UNK        -0.1831 
     24 N          17.7371  -25.9082  -45.2069 N.am      2 UNK        -0.4498 
     25 C          16.6697  -25.2495  -44.7432 C.2       1 UNK         0.5027 
     26 O          15.9690  -24.5001  -45.4255 O.2       1 UNK        -0.4969 
     27 C          22.2182  -26.2113  -43.9448 C.2       3 UNK         0.5005 
     28 O          21.3805  -25.7280  -43.1748 O.2       3 UNK        -0.5279 
     29 N          23.5387  -26.1691  -43.7284 N.am      4 UNK        -0.4463 
     30 CA         24.1752  -25.6005  -42.5351 C.3       4 UNK         0.0283 
     31 CB         25.6872  -25.4792  -42.7985 C.3       4 UNK        -0.1875 
     32 C          23.9112  -26.4256  -41.2597 C.2       4 UNK         0.4949 
     33 O          23.4176  -27.5525  -41.3367 O.2       4 UNK        -0.5039 
     34 N          24.2858  -25.8623  -40.1021 N.am      5 UNK        -0.4663 
     35 CA         24.2360  -26.5258  -38.7935 C.3       5 UNK         0.0242 
     36 CB         24.7532  -25.5622  -37.7136 C.3       5 UNK        -0.1982 
     37 C          25.0456  -27.8358  -38.7834 C.2       5 UNK         0.5017 
     38 O          26.1510  -27.8682  -39.3293 O.2       5 UNK        -0.5012 
     39 N          24.4558  -28.8957  -38.2136 N.am      6 UNK        -0.4439 
     40 CA         24.9005  -30.2996  -38.2084 C.3       6 UNK         0.0297 
     41 CB         26.2935  -30.4686  -37.5703 C.3       6 UNK        -0.2006 
     42 C          24.8257  -30.9919  -39.5847 C.2       6 UNK         0.4892 
     43 O          24.4066  -32.1491  -39.6432 O.2       6 UNK        -0.5089 
     44 N          25.1874  -30.2789  -40.6622 N.am      7 UNK        -0.4243 
     45 CA         25.0779  -30.7214  -42.0571 C.3       7 UNK         0.0196 
     46 CB         25.7264  -29.6828  -42.9853 C.3       7 UNK        -0.2007 
     47 C          23.6282  -31.0025  -42.4874 C.2       7 UNK         0.5020 
     48 O          23.4042  -31.9070  -43.2921 O.2       7 UNK        -0.5147 
     49 N          22.6678  -30.2705  -41.9056 N.am      8 UNK        -0.4734 
     50 CA         21.2213  -30.4959  -41.9819 C.3       8 UNK         0.0238 
     51 CB         20.4945  -29.2400  -41.4646 C.3       8 UNK        -0.1912 
     52 C          20.7707  -31.7812  -41.2563 C.2       8 UNK         0.5038 
     53 O          19.9561  -31.7110  -40.3342 O.2       8 UNK        -0.5046 
     54 N          21.3313  -32.9170  -41.6931 N.am      9 UNK        -0.4200 
     55 CA         21.0990  -34.2967  -41.2427 C.3       9 UNK         0.0839 
     56 C          21.1237  -34.5311  -39.7020 C.2       9 UNK         0.5513 
     57 N          22.0071  -33.8656  -38.9665 N.am      9 UNK        -0.7519 
     58 O          20.3719  -35.3426  -39.1673 O.2       9 UNK        -0.4960 
     59 C59        19.9476  -35.0049  -42.0149 C.3       10 UNK        -0.0876 
     60 S60        18.2867  -34.2578  -41.8519 S.3       10 UNK        -0.2414 
     61 C61        17.7998  -34.0126  -43.5910 C.3       10 UNK         0.0169 
     62 H62        19.6262  -24.9297  -40.9794 H         1 UNK         0.0903 
     63 H63        20.1799  -23.5107  -41.8639 H         1 UNK         0.0903 
     64 H64        19.1306  -23.3164  -40.4558 H         1 UNK         0.0903 
     65 H65        17.8959  -25.9925  -41.9227 H         1 UNK         0.3096 
     66 H66        15.5981  -24.7022  -42.9958 H         1 UNK         0.1121 
     67 H67        15.2154  -26.8044  -41.9973 H         1 UNK         0.0849 
     68 H68        14.9588  -27.0904  -43.6868 H         1 UNK         0.0849 
     69 H69        15.5679  -29.5561  -44.2726 H         1 UNK         0.0865 
     70 H70        16.6127  -28.5244  -45.2146 H         1 UNK         0.0865 
     71 H71        16.3472  -31.7259  -43.4412 H         1 UNK         0.1346 
     72 H72        20.0742  -33.2437  -44.9087 H         1 UNK         0.1412 
     73 H73        18.9969  -29.1381  -45.5795 H         1 UNK         0.1426 
     74 H74        21.8469  -31.3483  -45.3830 H         1 UNK         0.0716 
     75 H75        21.0514  -31.6857  -46.8976 H         1 UNK         0.0716 
     76 H76        22.9016  -28.7361  -44.8343 H         1 UNK         0.0695 
     77 H77        21.2362  -28.8130  -44.3215 H         1 UNK         0.0695 
     78 H78        22.3722  -26.5460  -46.0570 H         1 UNK         0.0983 
     79 H79        19.9123  -26.2504  -44.5723 H         1 UNK         0.3095 
     80 H80        18.2320  -24.7660  -46.8798 H         1 UNK         0.0454 
     81 H81        16.4054  -26.3861  -47.5277 H         1 UNK         0.0851 
     82 H82        17.5282  -27.7279  -47.3024 H         1 UNK         0.0851 
     83 H83        17.8105  -26.5405  -48.5636 H         1 UNK         0.0851 
     84 H84        18.1989  -26.5426  -44.5720 H         1 UNK         0.2976 
     85 H85        24.1543  -26.6089  -44.3966 H         1 UNK         0.3116 
     86 H86        23.7655  -24.6005  -42.3775 H         1 UNK         0.0646 
     87 H87        25.8895  -24.8785  -43.6854 H         1 UNK         0.0847 
     88 H88        26.1992  -24.9964  -41.9653 H         1 UNK         0.0847 
     89 H89        26.1537  -26.4547  -42.9402 H         1 UNK         0.0847 
     90 H90        24.7075  -24.9454  -40.1246 H         1 UNK         0.3040 
     91 H91        23.1885  -26.7546  -38.5853 H         1 UNK         0.1015 
     92 H92        25.7918  -25.2788  -37.8906 H         1 UNK         0.0786 
     93 H93        24.7052  -26.0211  -36.7250 H         1 UNK         0.0786 
     94 H94        24.1572  -24.6501  -37.6748 H         1 UNK         0.0786 
     95 H95        23.5399  -28.7508  -37.8104 H         1 UNK         0.3172 
     96 H96        24.1893  -30.8209  -37.5653 H         1 UNK         0.0595 
     97 H97        27.0819  -30.0214  -38.1760 H         1 UNK         0.0839 
     98 H98        26.5391  -31.5252  -37.4558 H         1 UNK         0.0839 
     99 H99        26.3340  -30.0174  -36.5790 H         1 UNK         0.0839 
    100 H100       25.5278  -29.3363  -40.5009 H         1 UNK         0.2998 
    101 H101       25.6333  -31.6571  -42.1472 H         1 UNK         0.0822 
    102 H102       26.7671  -29.5016  -42.7160 H         1 UNK         0.0787 
    103 H103       25.7133  -30.0259  -44.0208 H         1 UNK         0.0787 
    104 H104       25.1991  -28.7302  -42.9533 H         1 UNK         0.0787 
    105 H105       22.9652  -29.4760  -41.3463 H         1 UNK         0.3055 
    106 H106       20.9556  -30.6317  -43.0276 H         1 UNK         0.1106 
    107 H107       20.7681  -28.3516  -42.0329 H         1 UNK         0.0828 
    108 H108       19.4135  -29.3564  -41.5480 H         1 UNK         0.0828 
    109 H109       20.7242  -29.0461  -40.4164 H         1 UNK         0.0828 
    110 H110       22.0450  -32.8104  -42.4091 H         1 UNK         0.2931 
    111 H111       22.0019  -34.8157  -41.5672 H         1 UNK         0.0412 
    112 H112       22.6735  -33.2298  -39.3906 H         1 UNK         0.3472 
    113 H113       22.0321  -34.0226  -37.9718 H         1 UNK         0.3472 
    114 H114       19.8768  -36.0498  -41.7082 H         1 UNK         0.0970 
    115 H115       20.2162  -35.0426  -43.0708 H         1 UNK         0.0970 
    116 H116       16.7187  -34.1422  -43.6604 H         1 UNK         0.0612 
    117 H117       18.2282  -34.7935  -44.2208 H         1 UNK         0.0612 
@<TRIPOS>BOND
     1    1    2 1    
     2    1   62 1    
     3    1   63 1    
     4    1   64 1    
     5    2    3 2    
     6    2    4 am   BACKBONE|DICT|INTERRES
     7    4    5 1    
     8    4   65 1    
     9    5    6 1    
    10    5   25 1    
    11    5   66 1    
    12    6    7 1    
    13    6   67 1    
    14    6   68 1    
    15    7    8 1    
    16    8    9 1    
    17    8   69 1    
    18    8   70 1    
    19    9   10 ar   
    20    9   14 ar   
    21   10   11 ar   
    22   10   71 1    
    23   11   12 ar   
    24   11   61 1    
    25   12   13 ar   
    26   12   72 1    
    27   13   14 ar   
    28   13   15 1    
    29   14   73 1    
    30   15   16 1    
    31   15   74 1    
    32   15   75 1    
    33   16   17 1    
    34   17   18 1    
    35   17   76 1    
    36   17   77 1    
    37   18   19 1    
    38   18   27 1    
    39   18   78 1    
    40   19   20 am   BACKBONE|DICT|INTERRES
    41   19   79 1    
    42   20   21 2    
    43   20   22 1    
    44   22   23 1    
    45   22   24 1    
    46   22   80 1    
    47   23   81 1    
    48   23   82 1    
    49   23   83 1    
    50   24   25 am   BACKBONE|DICT|INTERRES
    51   24   84 1    
    52   25   26 2    
    53   27   28 2    
    54   27   29 am   BACKBONE|DICT|INTERRES
    55   29   30 1    
    56   29   85 1    
    57   30   31 1    
    58   30   32 1    
    59   30   86 1    
    60   31   87 1    
    61   31   88 1    
    62   31   89 1    
    63   32   33 2    
    64   32   34 am   BACKBONE|DICT|INTERRES
    65   34   35 1    
    66   34   90 1    
    67   35   36 1    
    68   35   37 1    
    69   35   91 1    
    70   36   92 1    
    71   36   93 1    
    72   36   94 1    
    73   37   38 2    
    74   37   39 am   BACKBONE|DICT|INTERRES
    75   39   40 1    
    76   39   95 1    
    77   40   41 1    
    78   40   42 1    
    79   40   96 1    
    80   41   97 1    
    81   41   98 1    
    82   41   99 1    
    83   42   43 2    
    84   42   44 am   BACKBONE|DICT|INTERRES
    85   44   45 1    
    86   44  100 1    
    87   45   46 1    
    88   45   47 1    
    89   45  101 1    
    90   46  102 1    
    91   46  103 1    
    92   46  104 1    
    93   47   48 2    
    94   47   49 am   BACKBONE|DICT|INTERRES
    95   49   50 1    
    96   49  105 1    
    97   50   51 1    
    98   50   52 1    
    99   50  106 1    
   100   51  107 1    
   101   51  108 1    
   102   51  109 1    
   103   52   53 2    
   104   52   54 am   BACKBONE|DICT|INTERRES
   105   54   55 1    
   106   54  110 1    
   107   55   56 1    
   108   55   59 1    
   109   55  111 1    
   110   56   57 am   BACKBONE|DICT|INTERRES
   111   56   58 2    
   112   57  112 1    
   113   57  113 1    
   114   59   60 1    
   115   59  114 1    
   116   59  115 1    
   117   60   61 1    
   118   61  116 1    
   119   61  117 1    
@<TRIPOS>SUBSTRUCTURE
     1 UNK         1 GROUP             0       ****    0 ROOT    
