@<TRIPOS>MOLECULE
3R8
117   119    1
SMALL
USER_CHARGES


@<TRIPOS>ATOM
      1 CA         15.5935  -22.8014  -46.2966 C.3       0 UNK        -0.2013 
      2 C          16.4063  -24.0004  -45.8327 C.2       0 UNK         0.4866 
      3 O          16.3452  -24.3638  -44.6587 O.2       0 UNK        -0.5176 
      4 N          17.1878  -24.6048  -46.7384 N.am      1 UNK        -0.4884 
      5 CA         18.0254  -25.8057  -46.5608 C.3       1 UNK         0.0853 
      6 C6         17.2115  -27.0486  -46.1040 C.3       10 UNK        -0.0849 
      7 S7         17.7464  -28.5775  -46.9428 S.3       10 UNK        -0.2776 
      8 C8         16.6763  -29.8165  -46.1461 C.3       10 UNK         0.0316 
      9 C9         17.2136  -30.2193  -44.7815 C.ar      10 UNK        -0.0863 
     10 C10        18.1284  -31.2686  -44.6688 C.ar      10 UNK        -0.1009 
     11 C11        18.6414  -31.6388  -43.4212 C.ar      10 UNK        -0.0712 
     12 C12        18.2377  -30.9393  -42.2772 C.ar      10 UNK        -0.0894 
     13 C13        17.3018  -29.9019  -42.3757 C.ar      10 UNK        -0.0745 
     14 C14        16.7889  -29.5556  -43.6294 C.ar      10 UNK        -0.0972 
     15 C15        16.7864  -29.1885  -41.1331 C.3       10 UNK         0.0209 
     16 S16        17.0569  -27.3852  -41.2045 S.3       10 UNK        -0.2568 
     17 C17        18.5699  -27.1703  -40.2122 C.3       10 UNK        -0.0983 
     18 CA         19.8484  -26.9625  -41.0592 C.3       3 UNK         0.0876 
     19 N          19.7143  -25.8555  -42.0197 N.am      3 UNK        -0.4424 
     20 C          20.6688  -25.4005  -42.8444 C.2       2 UNK         0.4918 
     21 O          21.8205  -25.8378  -42.8697 O.2       2 UNK        -0.4875 
     22 CA         20.2574  -24.2503  -43.7776 C.3       2 UNK         0.0481 
     23 CB         21.4584  -23.6138  -44.5089 C.3       2 UNK        -0.1831 
     24 N          19.2154  -24.6607  -44.7234 N.am      2 UNK        -0.4498 
     25 C          19.2873  -25.5892  -45.6893 C.2       1 UNK         0.5027 
     26 O          20.3011  -26.2429  -45.9356 O.2       1 UNK        -0.4969 
     27 C          21.0599  -26.8231  -40.1129 C.2       3 UNK         0.5005 
     28 O          21.6838  -27.8296  -39.7833 O.2       3 UNK        -0.5279 
     29 N          21.3903  -25.5855  -39.7144 N.am      4 UNK        -0.4463 
     30 CA         22.5431  -25.2616  -38.8682 C.3       4 UNK         0.0283 
     31 CB         22.4644  -23.7854  -38.4473 C.3       4 UNK        -0.1875 
     32 C          23.9031  -25.5583  -39.5284 C.2       4 UNK         0.4949 
     33 O          24.8597  -25.8618  -38.8154 O.2       4 UNK        -0.5039 
     34 N          23.9672  -25.4670  -40.8634 N.am      5 UNK        -0.4663 
     35 CA         25.1506  -25.7959  -41.6585 C.3       5 UNK         0.0242 
     36 CB         25.2396  -24.8389  -42.8594 C.3       5 UNK        -0.1982 
     37 C          25.1125  -27.2561  -42.1322 C.2       5 UNK         0.5017 
     38 O          26.1450  -27.9262  -42.1042 O.2       5 UNK        -0.5012 
     39 N          23.9299  -27.7162  -42.5650 N.am      6 UNK        -0.4439 
     40 CA         23.6932  -29.0601  -43.0971 C.3       6 UNK         0.0297 
     41 CB         22.3303  -29.0795  -43.8063 C.3       6 UNK        -0.2006 
     42 C          23.7773  -30.1695  -42.0313 C.2       6 UNK         0.4892 
     43 O          24.2031  -31.2807  -42.3531 O.2       6 UNK        -0.5089 
     44 N          23.3921  -29.8456  -40.7872 N.am      7 UNK        -0.4243 
     45 CA         23.3680  -30.7131  -39.6077 C.3       7 UNK         0.0196 
     46 CB         24.8071  -31.0645  -39.1626 C.3       7 UNK        -0.2007 
     47 C          22.4429  -31.9261  -39.8217 C.2       7 UNK         0.5020 
     48 O          21.2821  -31.7439  -40.1901 O.2       7 UNK        -0.5147 
     49 N          22.9612  -33.1375  -39.5888 N.am      8 UNK        -0.4734 
     50 CA         22.2541  -34.4024  -39.8053 C.3       8 UNK         0.0238 
     51 CB         22.9143  -35.4911  -38.9414 C.3       8 UNK        -0.1912 
     52 C          22.2078  -34.8378  -41.2829 C.2       8 UNK         0.5038 
     53 O          21.5074  -35.8036  -41.5888 O.2       8 UNK        -0.5046 
     54 N          22.9558  -34.1504  -42.1598 N.am      9 UNK        -0.4200 
     55 CA         23.1020  -34.4401  -43.5973 C.3       9 UNK         0.0839 
     56 C          23.8296  -35.7827  -43.9166 C.2       9 UNK         0.5513 
     57 N          24.5760  -36.3669  -42.9862 N.am      9 UNK        -0.7519 
     58 O          23.7468  -36.2910  -45.0320 O.2       9 UNK        -0.4960 
     59 C59        21.7760  -34.2682  -44.3925 C.3       10 UNK        -0.0876 
     60 S60        21.1066  -32.5750  -44.2843 S.3       10 UNK        -0.2414 
     61 C61        19.5878  -32.8286  -43.3179 C.3       10 UNK         0.0169 
     62 H62        15.7484  -22.5864  -47.3536 H         1 UNK         0.0903 
     63 H63        14.5313  -22.9873  -46.1410 H         1 UNK         0.0903 
     64 H64        15.8713  -21.9159  -45.7258 H         1 UNK         0.0903 
     65 H65        17.2153  -24.2186  -47.6730 H         1 UNK         0.3096 
     66 H66        18.4049  -26.0018  -47.5654 H         1 UNK         0.1121 
     67 H67        16.1541  -26.9179  -46.3390 H         1 UNK         0.0849 
     68 H68        17.2588  -27.1746  -45.0213 H         1 UNK         0.0849 
     69 H69        15.6581  -29.4329  -46.0627 H         1 UNK         0.0865 
     70 H70        16.6151  -30.6944  -46.7910 H         1 UNK         0.0865 
     71 H71        18.4449  -31.8009  -45.5555 H         1 UNK         0.1346 
     72 H72        18.6302  -31.2233  -41.3098 H         1 UNK         0.1412 
     73 H73        16.0591  -28.7610  -43.7051 H         1 UNK         0.1426 
     74 H74        17.2230  -29.6089  -40.2264 H         1 UNK         0.0716 
     75 H75        15.7133  -29.3687  -41.0576 H         1 UNK         0.0716 
     76 H76        18.6887  -28.0262  -39.5450 H         1 UNK         0.0695 
     77 H77        18.4054  -26.3095  -39.5608 H         1 UNK         0.0695 
     78 H78        20.0091  -27.8673  -41.6485 H         1 UNK         0.0983 
     79 H79        18.7898  -25.4542  -42.0879 H         1 UNK         0.3095 
     80 H80        19.8140  -23.4778  -43.1479 H         1 UNK         0.0454 
     81 H81        21.1443  -22.7806  -45.1371 H         1 UNK         0.0851 
     82 H82        21.9815  -24.3318  -45.1411 H         1 UNK         0.0851 
     83 H83        22.1858  -23.2257  -43.7953 H         1 UNK         0.0851 
     84 H84        18.2985  -24.2463  -44.5835 H         1 UNK         0.2976 
     85 H85        20.8207  -24.8131  -40.0287 H         1 UNK         0.3116 
     86 H86        22.4768  -25.8765  -37.9680 H         1 UNK         0.0646 
     87 H87        22.5035  -23.1163  -39.3078 H         1 UNK         0.0847 
     88 H88        23.2969  -23.5220  -37.7932 H         1 UNK         0.0847 
     89 H89        21.5464  -23.5759  -37.8981 H         1 UNK         0.0847 
     90 H90        23.1192  -25.2644  -41.3795 H         1 UNK         0.3040 
     91 H91        26.0520  -25.6635  -41.0554 H         1 UNK         0.1015 
     92 H92        25.3126  -23.8014  -42.5332 H         1 UNK         0.0786 
     93 H93        24.3712  -24.9233  -43.5142 H         1 UNK         0.0786 
     94 H94        26.1237  -25.0519  -43.4619 H         1 UNK         0.0786 
     95 H95        23.1444  -27.0698  -42.5974 H         1 UNK         0.3172 
     96 H96        24.4647  -29.2572  -43.8443 H         1 UNK         0.0595 
     97 H97        22.2242  -29.9834  -44.4033 H         1 UNK         0.0839 
     98 H98        21.5011  -29.0547  -43.0991 H         1 UNK         0.0839 
     99 H99        22.2156  -28.2354  -44.4874 H         1 UNK         0.0839 
    100 H100       22.9717  -28.9324  -40.6355 H         1 UNK         0.2998 
    101 H101       22.9112  -30.1260  -38.8097 H         1 UNK         0.0822 
    102 H102       25.3947  -30.1595  -39.0065 H         1 UNK         0.0787 
    103 H103       24.8093  -31.6082  -38.2171 H         1 UNK         0.0787 
    104 H104       25.3336  -31.6701  -39.9013 H         1 UNK         0.0787 
    105 H105       23.9235  -33.1968  -39.2878 H         1 UNK         0.3055 
    106 H106       21.2188  -34.2859  -39.4760 H         1 UNK         0.1106 
    107 H107       22.3916  -36.4433  -39.0442 H         1 UNK         0.0828 
    108 H108       23.9539  -35.6592  -39.2251 H         1 UNK         0.0828 
    109 H109       22.8924  -35.2270  -37.8839 H         1 UNK         0.0828 
    110 H110       23.4691  -33.3412  -41.8335 H         1 UNK         0.2931 
    111 H111       23.7884  -33.6763  -43.9647 H         1 UNK         0.0412 
    112 H112       25.0515  -37.2288  -43.2035 H         1 UNK         0.3472 
    113 H113       24.6692  -35.9545  -42.0720 H         1 UNK         0.3472 
    114 H114       21.0310  -34.9961  -44.0689 H         1 UNK         0.0970 
    115 H115       21.9402  -34.4676  -45.4526 H         1 UNK         0.0970 
    116 H116       19.8548  -33.0307  -42.2810 H         1 UNK         0.0612 
    117 H117       19.0684  -33.7120  -43.6869 H         1 UNK         0.0612 
@<TRIPOS>BOND
     1    1    2 1    
     2    1   62 1    
     3    1   63 1    
     4    1   64 1    
     5    2    3 2    
     6    2    4 am   BACKBONE|DICT|INTERRES
     7    4    5 1    
     8    4   65 1    
     9    5    6 1    
    10    5   25 1    
    11    5   66 1    
    12    6    7 1    
    13    6   67 1    
    14    6   68 1    
    15    7    8 1    
    16    8    9 1    
    17    8   69 1    
    18    8   70 1    
    19    9   10 ar   
    20    9   14 ar   
    21   10   11 ar   
    22   10   71 1    
    23   11   12 ar   
    24   11   61 1    
    25   12   13 ar   
    26   12   72 1    
    27   13   14 ar   
    28   13   15 1    
    29   14   73 1    
    30   15   16 1    
    31   15   74 1    
    32   15   75 1    
    33   16   17 1    
    34   17   18 1    
    35   17   76 1    
    36   17   77 1    
    37   18   19 1    
    38   18   27 1    
    39   18   78 1    
    40   19   20 am   BACKBONE|DICT|INTERRES
    41   19   79 1    
    42   20   21 2    
    43   20   22 1    
    44   22   23 1    
    45   22   24 1    
    46   22   80 1    
    47   23   81 1    
    48   23   82 1    
    49   23   83 1    
    50   24   25 am   BACKBONE|DICT|INTERRES
    51   24   84 1    
    52   25   26 2    
    53   27   28 2    
    54   27   29 am   BACKBONE|DICT|INTERRES
    55   29   30 1    
    56   29   85 1    
    57   30   31 1    
    58   30   32 1    
    59   30   86 1    
    60   31   87 1    
    61   31   88 1    
    62   31   89 1    
    63   32   33 2    
    64   32   34 am   BACKBONE|DICT|INTERRES
    65   34   35 1    
    66   34   90 1    
    67   35   36 1    
    68   35   37 1    
    69   35   91 1    
    70   36   92 1    
    71   36   93 1    
    72   36   94 1    
    73   37   38 2    
    74   37   39 am   BACKBONE|DICT|INTERRES
    75   39   40 1    
    76   39   95 1    
    77   40   41 1    
    78   40   42 1    
    79   40   96 1    
    80   41   97 1    
    81   41   98 1    
    82   41   99 1    
    83   42   43 2    
    84   42   44 am   BACKBONE|DICT|INTERRES
    85   44   45 1    
    86   44  100 1    
    87   45   46 1    
    88   45   47 1    
    89   45  101 1    
    90   46  102 1    
    91   46  103 1    
    92   46  104 1    
    93   47   48 2    
    94   47   49 am   BACKBONE|DICT|INTERRES
    95   49   50 1    
    96   49  105 1    
    97   50   51 1    
    98   50   52 1    
    99   50  106 1    
   100   51  107 1    
   101   51  108 1    
   102   51  109 1    
   103   52   53 2    
   104   52   54 am   BACKBONE|DICT|INTERRES
   105   54   55 1    
   106   54  110 1    
   107   55   56 1    
   108   55   59 1    
   109   55  111 1    
   110   56   57 am   BACKBONE|DICT|INTERRES
   111   56   58 2    
   112   57  112 1    
   113   57  113 1    
   114   59   60 1    
   115   59  114 1    
   116   59  115 1    
   117   60   61 1    
   118   61  116 1    
   119   61  117 1    
@<TRIPOS>SUBSTRUCTURE
     1 UNK         1 GROUP             0       ****    0 ROOT    
