@<TRIPOS>MOLECULE
3R8
117   119    1
SMALL
USER_CHARGES


@<TRIPOS>ATOM
      1 CA         15.1080  -22.1986  -43.8659 C.3       0 UNK        -0.2013 
      2 C          16.1600  -23.2224  -44.2654 C.2       0 UNK         0.4866 
      3 O          16.9462  -23.6384  -43.4158 O.2       0 UNK        -0.5176 
      4 N          16.1816  -23.5977  -45.5536 N.am      1 UNK        -0.4884 
      5 CA         17.0101  -24.5931  -46.2645 C.3       1 UNK         0.0853 
      6 C6         16.5752  -26.0702  -46.0342 C.3       10 UNK        -0.0849 
      7 S7         16.9398  -26.7557  -44.3834 S.3       10 UNK        -0.2776 
      8 C8         16.2883  -28.4538  -44.5129 C.3       10 UNK         0.0316 
      9 C9         17.4063  -29.4870  -44.4594 C.ar      10 UNK        -0.0863 
     10 C10        17.5971  -30.2791  -43.3212 C.ar      10 UNK        -0.1009 
     11 C11        18.6239  -31.2304  -43.2786 C.ar      10 UNK        -0.0712 
     12 C12        19.4777  -31.3679  -44.3778 C.ar      10 UNK        -0.0894 
     13 C13        19.3006  -30.5770  -45.5174 C.ar      10 UNK        -0.0745 
     14 C14        18.2484  -29.6574  -45.5594 C.ar      10 UNK        -0.0972 
     15 C15        20.2367  -30.7205  -46.7093 C.3       10 UNK         0.0209 
     16 S16        21.7924  -29.7944  -46.4902 S.3       10 UNK        -0.2568 
     17 C17        21.2176  -28.0642  -46.4179 C.3       10 UNK        -0.0983 
     18 CA         21.6527  -27.2355  -45.1787 C.3       3 UNK         0.0876 
     19 N          21.0521  -25.9055  -45.2778 N.am      3 UNK        -0.4424 
     20 C          21.3906  -24.8044  -44.6021 C.2       2 UNK         0.4918 
     21 O          22.3460  -24.7444  -43.8293 O.2       2 UNK        -0.4875 
     22 CA         20.5033  -23.5585  -44.8092 C.3       2 UNK         0.0481 
     23 CB         21.1296  -22.6062  -45.8456 C.3       2 UNK        -0.1831 
     24 N          19.0896  -23.8371  -45.1256 N.am      2 UNK        -0.4498 
     25 C          18.5464  -24.4135  -46.2075 C.2       1 UNK         0.5027 
     26 O          19.2180  -24.8304  -47.1521 O.2       1 UNK        -0.4969 
     27 C          21.3709  -27.9014  -43.8056 C.2       3 UNK         0.5005 
     28 O          22.1792  -28.7192  -43.3576 O.2       3 UNK        -0.5279 
     29 N          20.2794  -27.4967  -43.1302 N.am      4 UNK        -0.4463 
     30 CA         19.9258  -27.8985  -41.7641 C.3       4 UNK         0.0283 
     31 CB         18.6401  -27.1907  -41.3092 C.3       4 UNK        -0.1875 
     32 C          21.0512  -27.6342  -40.7531 C.2       4 UNK         0.4949 
     33 O          21.6672  -26.5671  -40.7860 O.2       4 UNK        -0.5039 
     34 N          21.3059  -28.6269  -39.8914 N.am      5 UNK        -0.4663 
     35 CA         22.3783  -28.7243  -38.8898 C.3       5 UNK         0.0242 
     36 CB         22.3150  -27.5792  -37.8605 C.3       5 UNK        -0.1982 
     37 C          23.7878  -28.8582  -39.4950 C.2       5 UNK         0.5017 
     38 O          24.5619  -29.6847  -39.0133 O.2       5 UNK        -0.5012 
     39 N          24.0864  -28.0939  -40.5544 N.am      6 UNK        -0.4439 
     40 CA         25.3388  -28.1237  -41.3173 C.3       6 UNK         0.0297 
     41 CB         25.3059  -27.0281  -42.3949 C.3       6 UNK        -0.2006 
     42 C          25.6415  -29.4961  -41.9459 C.2       6 UNK         0.4892 
     43 O          26.8036  -29.9013  -41.9793 O.2       6 UNK        -0.5089 
     44 N          24.5919  -30.2023  -42.3872 N.am      7 UNK        -0.4243 
     45 CA         24.6524  -31.5781  -42.8889 C.3       7 UNK         0.0196 
     46 CB         23.4010  -31.8405  -43.7405 C.3       7 UNK        -0.2007 
     47 C          24.7887  -32.6534  -41.7915 C.2       7 UNK         0.5020 
     48 O          24.8485  -33.8341  -42.1363 O.2       7 UNK        -0.5147 
     49 N          24.8117  -32.2539  -40.5088 N.am      8 UNK        -0.4734 
     50 CA         24.8036  -33.1088  -39.3129 C.3       8 UNK         0.0238 
     51 CB         26.0919  -33.9549  -39.2153 C.3       8 UNK        -0.1912 
     52 C          23.5116  -33.9433  -39.2200 C.2       8 UNK         0.5038 
     53 O          23.5678  -35.1615  -39.0390 O.2       8 UNK        -0.5046 
     54 N          22.3756  -33.2513  -39.3824 N.am      9 UNK        -0.4200 
     55 CA         21.0045  -33.7824  -39.3639 C.3       9 UNK         0.0839 
     56 C          20.6729  -34.5997  -38.0844 C.2       9 UNK         0.5513 
     57 N          19.9579  -35.7076  -38.2226 N.am      9 UNK        -0.7519 
     58 O          21.0138  -34.2083  -36.9699 O.2       9 UNK        -0.4960 
     59 C59        19.9654  -32.6441  -39.5423 C.3       10 UNK        -0.0876 
     60 S60        20.2291  -31.6452  -41.0486 S.3       10 UNK        -0.2414 
     61 C61        18.7936  -32.1268  -42.0583 C.3       10 UNK         0.0169 
     62 H62        14.4645  -22.6088  -43.0882 H         1 UNK         0.0903 
     63 H63        15.5873  -21.3023  -43.4732 H         1 UNK         0.0903 
     64 H64        14.4788  -21.9065  -44.7063 H         1 UNK         0.0903 
     65 H65        15.5104  -23.1464  -46.1605 H         1 UNK         0.3096 
     66 H66        16.7780  -24.3890  -47.3116 H         1 UNK         0.1121 
     67 H67        15.5018  -26.1598  -46.2077 H         1 UNK         0.0849 
     68 H68        17.0462  -26.7145  -46.7792 H         1 UNK         0.0849 
     69 H69        15.5807  -28.6168  -43.6987 H         1 UNK         0.0865 
     70 H70        15.7189  -28.5767  -45.4353 H         1 UNK         0.0865 
     71 H71        16.9418  -30.1602  -42.4693 H         1 UNK         0.1346 
     72 H72        20.2825  -32.0893  -44.3446 H         1 UNK         0.1412 
     73 H73        18.0927  -29.0551  -46.4435 H         1 UNK         0.1426 
     74 H74        19.7465  -30.3872  -47.6254 H         1 UNK         0.0716 
     75 H75        20.4751  -31.7744  -46.8596 H         1 UNK         0.0716 
     76 H76        20.1348  -28.0343  -46.5196 H         1 UNK         0.0695 
     77 H77        21.5942  -27.5750  -47.3177 H         1 UNK         0.0695 
     78 H78        22.7358  -27.1065  -45.2323 H         1 UNK         0.0983 
     79 H79        20.3011  -25.8016  -45.9530 H         1 UNK         0.3095 
     80 H80        20.4849  -23.0345  -43.8525 H         1 UNK         0.0454 
     81 H81        21.2050  -23.0659  -46.8314 H         1 UNK         0.0851 
     82 H82        22.1382  -22.3172  -45.5473 H         1 UNK         0.0851 
     83 H83        20.5474  -21.6904  -45.9456 H         1 UNK         0.0851 
     84 H84        18.4272  -23.6265  -44.3783 H         1 UNK         0.2976 
     85 H85        19.6715  -26.8224  -43.5708 H         1 UNK         0.3116 
     86 H86        19.7293  -28.9685  -41.7940 H         1 UNK         0.0646 
     87 H87        18.4614  -27.3403  -40.2434 H         1 UNK         0.0847 
     88 H88        17.7686  -27.5882  -41.8251 H         1 UNK         0.0847 
     89 H89        18.6830  -26.1151  -41.4848 H         1 UNK         0.0847 
     90 H90        20.7550  -29.4695  -39.9995 H         1 UNK         0.3040 
     91 H91        22.1875  -29.6530  -38.3491 H         1 UNK         0.1015 
     92 H92        22.5403  -26.6103  -38.3068 H         1 UNK         0.0786 
     93 H93        23.0383  -27.7392  -37.0598 H         1 UNK         0.0786 
     94 H94        21.3297  -27.5152  -37.3990 H         1 UNK         0.0786 
     95 H95        23.3663  -27.4475  -40.8679 H         1 UNK         0.3172 
     96 H96        26.1485  -27.8948  -40.6216 H         1 UNK         0.0595 
     97 H97        24.4920  -27.1829  -43.1043 H         1 UNK         0.0839 
     98 H98        26.2363  -27.0113  -42.9640 H         1 UNK         0.0839 
     99 H99        25.1783  -26.0394  -41.9535 H         1 UNK         0.0839 
    100 H100       23.6804  -29.7527  -42.4063 H         1 UNK         0.2998 
    101 H101       25.5278  -31.6717  -43.5349 H         1 UNK         0.0822 
    102 H102       23.3636  -31.1555  -44.5845 H         1 UNK         0.0787 
    103 H103       23.3947  -32.8521  -44.1480 H         1 UNK         0.0787 
    104 H104       22.4855  -31.7105  -43.1626 H         1 UNK         0.0787 
    105 H105       24.7797  -31.2576  -40.3188 H         1 UNK         0.3055 
    106 H106       24.7928  -32.4368  -38.4528 H         1 UNK         0.1106 
    107 H107       26.1551  -34.6997  -40.0088 H         1 UNK         0.0828 
    108 H108       26.1322  -34.4913  -38.2666 H         1 UNK         0.0828 
    109 H109       26.9822  -33.3286  -39.2710 H         1 UNK         0.0828 
    110 H110       22.4487  -32.2614  -39.5562 H         1 UNK         0.2931 
    111 H111       20.9244  -34.4508  -40.2236 H         1 UNK         0.0412 
    112 H112       19.6652  -36.0299  -39.1324 H         1 UNK         0.3472 
    113 H113       19.7175  -36.2419  -37.4018 H         1 UNK         0.3472 
    114 H114       19.9951  -31.9679  -38.6855 H         1 UNK         0.0970 
    115 H115       18.9547  -33.0564  -39.5563 H         1 UNK         0.0970 
    116 H116       18.9120  -33.1633  -42.3772 H         1 UNK         0.0612 
    117 H117       17.8925  -32.0923  -41.4441 H         1 UNK         0.0612 
@<TRIPOS>BOND
     1    1    2 1    
     2    1   62 1    
     3    1   63 1    
     4    1   64 1    
     5    2    3 2    
     6    2    4 am   BACKBONE|DICT|INTERRES
     7    4    5 1    
     8    4   65 1    
     9    5    6 1    
    10    5   25 1    
    11    5   66 1    
    12    6    7 1    
    13    6   67 1    
    14    6   68 1    
    15    7    8 1    
    16    8    9 1    
    17    8   69 1    
    18    8   70 1    
    19    9   10 ar   
    20    9   14 ar   
    21   10   11 ar   
    22   10   71 1    
    23   11   12 ar   
    24   11   61 1    
    25   12   13 ar   
    26   12   72 1    
    27   13   14 ar   
    28   13   15 1    
    29   14   73 1    
    30   15   16 1    
    31   15   74 1    
    32   15   75 1    
    33   16   17 1    
    34   17   18 1    
    35   17   76 1    
    36   17   77 1    
    37   18   19 1    
    38   18   27 1    
    39   18   78 1    
    40   19   20 am   BACKBONE|DICT|INTERRES
    41   19   79 1    
    42   20   21 2    
    43   20   22 1    
    44   22   23 1    
    45   22   24 1    
    46   22   80 1    
    47   23   81 1    
    48   23   82 1    
    49   23   83 1    
    50   24   25 am   BACKBONE|DICT|INTERRES
    51   24   84 1    
    52   25   26 2    
    53   27   28 2    
    54   27   29 am   BACKBONE|DICT|INTERRES
    55   29   30 1    
    56   29   85 1    
    57   30   31 1    
    58   30   32 1    
    59   30   86 1    
    60   31   87 1    
    61   31   88 1    
    62   31   89 1    
    63   32   33 2    
    64   32   34 am   BACKBONE|DICT|INTERRES
    65   34   35 1    
    66   34   90 1    
    67   35   36 1    
    68   35   37 1    
    69   35   91 1    
    70   36   92 1    
    71   36   93 1    
    72   36   94 1    
    73   37   38 2    
    74   37   39 am   BACKBONE|DICT|INTERRES
    75   39   40 1    
    76   39   95 1    
    77   40   41 1    
    78   40   42 1    
    79   40   96 1    
    80   41   97 1    
    81   41   98 1    
    82   41   99 1    
    83   42   43 2    
    84   42   44 am   BACKBONE|DICT|INTERRES
    85   44   45 1    
    86   44  100 1    
    87   45   46 1    
    88   45   47 1    
    89   45  101 1    
    90   46  102 1    
    91   46  103 1    
    92   46  104 1    
    93   47   48 2    
    94   47   49 am   BACKBONE|DICT|INTERRES
    95   49   50 1    
    96   49  105 1    
    97   50   51 1    
    98   50   52 1    
    99   50  106 1    
   100   51  107 1    
   101   51  108 1    
   102   51  109 1    
   103   52   53 2    
   104   52   54 am   BACKBONE|DICT|INTERRES
   105   54   55 1    
   106   54  110 1    
   107   55   56 1    
   108   55   59 1    
   109   55  111 1    
   110   56   57 am   BACKBONE|DICT|INTERRES
   111   56   58 2    
   112   57  112 1    
   113   57  113 1    
   114   59   60 1    
   115   59  114 1    
   116   59  115 1    
   117   60   61 1    
   118   61  116 1    
   119   61  117 1    
@<TRIPOS>SUBSTRUCTURE
     1 UNK         1 GROUP             0       ****    0 ROOT    
