@<TRIPOS>MOLECULE
3R8
117   119    1
SMALL
USER_CHARGES


@<TRIPOS>ATOM
      1 CA         14.4741  -22.7702  -44.0567 C.3       0 UNK        -0.2013 
      2 C          15.0571  -24.0087  -43.3918 C.2       0 UNK         0.4866 
      3 O          15.1152  -24.0657  -42.1628 O.2       0 UNK        -0.5176 
      4 N          15.4792  -24.9917  -44.2002 N.am      1 UNK        -0.4884 
      5 CA         16.1044  -26.2642  -43.8048 C.3       1 UNK         0.0853 
      6 C6         15.1703  -27.1675  -42.9420 C.3       10 UNK        -0.0849 
      7 S7         13.8694  -27.9183  -43.9772 S.3       10 UNK        -0.2776 
      8 C8         14.4381  -29.6503  -44.1077 C.3       10 UNK         0.0316 
      9 C9         15.8874  -29.7714  -44.5696 C.ar      10 UNK        -0.0863 
     10 C10        16.8419  -30.3729  -43.7426 C.ar      10 UNK        -0.1009 
     11 C11        18.1728  -30.4842  -44.1567 C.ar      10 UNK        -0.0712 
     12 C12        18.5464  -29.9939  -45.4106 C.ar      10 UNK        -0.0894 
     13 C13        17.6069  -29.3720  -46.2385 C.ar      10 UNK        -0.0745 
     14 C14        16.2761  -29.2805  -45.8196 C.ar      10 UNK        -0.0972 
     15 C15        18.0202  -28.7971  -47.5853 C.3       10 UNK         0.0209 
     16 S16        18.8126  -27.1635  -47.4071 S.3       10 UNK        -0.2568 
     17 C17        20.5611  -27.6222  -47.1429 C.3       10 UNK        -0.0983 
     18 CA         21.1697  -27.0797  -45.8237 C.3       3 UNK         0.0876 
     19 N          20.3359  -27.3689  -44.6480 N.am      3 UNK        -0.4424 
     20 C          20.5604  -26.9261  -43.4005 C.2       2 UNK         0.4918 
     21 O          21.5201  -26.2232  -43.0823 O.2       2 UNK        -0.4875 
     22 CA         19.5219  -27.3455  -42.3406 C.3       2 UNK         0.0481 
     23 CB         19.7117  -26.6347  -40.9840 C.3       2 UNK        -0.1831 
     24 N          18.1423  -27.2138  -42.8272 N.am      2 UNK        -0.4498 
     25 C          17.5216  -26.0856  -43.2108 C.2       1 UNK         0.5027 
     26 O          18.0468  -24.9700  -43.1675 O.2       1 UNK        -0.4969 
     27 C          22.6136  -27.6026  -45.6687 C.2       3 UNK         0.5005 
     28 O          23.5549  -26.9489  -46.1217 O.2       3 UNK        -0.5279 
     29 N          22.7561  -28.7676  -45.0203 N.am      4 UNK        -0.4463 
     30 CA         24.0281  -29.3486  -44.6033 C.3       4 UNK         0.0283 
     31 CB         23.8351  -30.8570  -44.3617 C.3       4 UNK        -0.1875 
     32 C          24.5078  -28.6228  -43.3384 C.2       4 UNK         0.4949 
     33 O          24.0629  -28.9641  -42.2411 O.2       4 UNK        -0.5039 
     34 N          25.3571  -27.6038  -43.5223 N.am      5 UNK        -0.4663 
     35 CA         25.8806  -26.7342  -42.4642 C.3       5 UNK         0.0242 
     36 CB         26.8231  -25.6915  -43.0861 C.3       5 UNK        -0.1982 
     37 C          26.6013  -27.5177  -41.3541 C.2       5 UNK         0.5017 
     38 O          27.3609  -28.4408  -41.6573 O.2       5 UNK        -0.5012 
     39 N          26.3239  -27.1498  -40.0956 N.am      6 UNK        -0.4439 
     40 CA         26.7785  -27.7587  -38.8350 C.3       6 UNK         0.0297 
     41 CB         28.3145  -27.7319  -38.7078 C.3       6 UNK        -0.2006 
     42 C          26.2230  -29.1713  -38.5611 C.2       6 UNK         0.4892 
     43 O          25.8916  -29.4651  -37.4122 O.2       6 UNK        -0.5089 
     44 N          26.1241  -30.0129  -39.5979 N.am      7 UNK        -0.4243 
     45 CA         25.5743  -31.3677  -39.5390 C.3       7 UNK         0.0196 
     46 CB         25.9316  -32.1193  -40.8314 C.3       7 UNK        -0.2007 
     47 C          24.0552  -31.3845  -39.3103 C.2       7 UNK         0.5020 
     48 O          23.5726  -32.2154  -38.5407 O.2       7 UNK        -0.5147 
     49 N          23.3316  -30.4871  -39.9991 N.am      8 UNK        -0.4734 
     50 CA         21.8760  -30.2852  -39.9524 C.3       8 UNK         0.0238 
     51 CB         21.4717  -29.6279  -38.6168 C.3       8 UNK        -0.1912 
     52 C          21.0607  -31.5580  -40.2631 C.2       8 UNK         0.5038 
     53 O          19.9842  -31.7494  -39.6956 O.2       8 UNK        -0.5046 
     54 N          21.6001  -32.4039  -41.1533 N.am      9 UNK        -0.4200 
     55 CA         21.0887  -33.7381  -41.5172 C.3       9 UNK         0.0839 
     56 C          21.1607  -34.7917  -40.3669 C.2       9 UNK         0.5513 
     57 N          21.8905  -34.5554  -39.2825 N.am      9 UNK        -0.7519 
     58 O          20.5728  -35.8653  -40.4715 O.2       9 UNK        -0.4960 
     59 C59        19.6920  -33.7009  -42.2071 C.3       10 UNK        -0.0876 
     60 S60        19.6847  -32.7757  -43.7816 S.3       10 UNK        -0.2414 
     61 C61        19.2112  -31.1074  -43.2374 C.3       10 UNK         0.0169 
     62 H62        15.0577  -21.8904  -43.7868 H         1 UNK         0.0903 
     63 H63        14.4687  -22.8528  -45.1435 H         1 UNK         0.0903 
     64 H64        13.4482  -22.6138  -43.7242 H         1 UNK         0.0903 
     65 H65        15.4121  -24.8523  -45.1989 H         1 UNK         0.3096 
     66 H66        16.2930  -26.7781  -44.7475 H         1 UNK         0.1121 
     67 H67        14.6959  -26.6008  -42.1408 H         1 UNK         0.0849 
     68 H68        15.7048  -27.9698  -42.4338 H         1 UNK         0.0849 
     69 H69        14.2975  -30.1380  -43.1417 H         1 UNK         0.0865 
     70 H70        13.7953  -30.1813  -44.8112 H         1 UNK         0.0865 
     71 H71        16.5496  -30.7561  -42.7739 H         1 UNK         0.1346 
     72 H72        19.5714  -30.0976  -45.7367 H         1 UNK         0.1412 
     73 H73        15.5409  -28.8085  -46.4578 H         1 UNK         0.1426 
     74 H74        18.6810  -29.4899  -48.1084 H         1 UNK         0.0716 
     75 H75        17.1443  -28.6837  -48.2260 H         1 UNK         0.0716 
     76 H76        20.6645  -28.7066  -47.1976 H         1 UNK         0.0695 
     77 H77        21.1261  -27.2354  -47.9934 H         1 UNK         0.0695 
     78 H78        21.2312  -25.9920  -45.9034 H         1 UNK         0.0983 
     79 H79        19.4895  -27.8884  -44.8302 H         1 UNK         0.3095 
     80 H80        19.6814  -28.4087  -42.1641 H         1 UNK         0.0454 
     81 H81        19.6204  -25.5521  -41.0747 H         1 UNK         0.0851 
     82 H82        18.9787  -26.9734  -40.2522 H         1 UNK         0.0851 
     83 H83        20.6997  -26.8418  -40.5707 H         1 UNK         0.0851 
     84 H84        17.6406  -28.0849  -42.9357 H         1 UNK         0.2976 
     85 H85        21.9250  -29.2095  -44.6596 H         1 UNK         0.3116 
     86 H86        24.7684  -29.2208  -45.3962 H         1 UNK         0.0646 
     87 H87        23.0898  -31.0582  -43.5914 H         1 UNK         0.0847 
     88 H88        23.5172  -31.3655  -45.2719 H         1 UNK         0.0847 
     89 H89        24.7692  -31.3209  -44.0438 H         1 UNK         0.0847 
     90 H90        25.6336  -27.3797  -44.4680 H         1 UNK         0.3040 
     91 H91        25.0247  -26.2133  -42.0290 H         1 UNK         0.1015 
     92 H92        27.6812  -26.1619  -43.5683 H         1 UNK         0.0786 
     93 H93        27.2093  -25.0104  -42.3263 H         1 UNK         0.0786 
     94 H94        26.3088  -25.0845  -43.8316 H         1 UNK         0.0786 
     95 H95        25.6658  -26.3917  -39.9737 H         1 UNK         0.3172 
     96 H96        26.3803  -27.1161  -38.0479 H         1 UNK         0.0595 
     97 H97        28.6270  -28.0751  -37.7206 H         1 UNK         0.0839 
     98 H98        28.7066  -26.7234  -38.8387 H         1 UNK         0.0839 
     99 H99        28.7992  -28.3783  -39.4399 H         1 UNK         0.0839 
    100 H100       26.4522  -29.6787  -40.4995 H         1 UNK         0.2998 
    101 H101       26.0421  -31.8871  -38.6997 H         1 UNK         0.0822 
    102 H102       25.5318  -33.1343  -40.8180 H         1 UNK         0.0787 
    103 H103       25.5296  -31.6188  -41.7127 H         1 UNK         0.0787 
    104 H104       27.0117  -32.1986  -40.9566 H         1 UNK         0.0787 
    105 H105       23.8177  -29.8877  -40.6657 H         1 UNK         0.3055 
    106 H106       21.6425  -29.5791  -40.7510 H         1 UNK         0.1106 
    107 H107       22.0418  -28.7167  -38.4354 H         1 UNK         0.0828 
    108 H108       20.4162  -29.3528  -38.6167 H         1 UNK         0.0828 
    109 H109       21.6348  -30.2990  -37.7728 H         1 UNK         0.0828 
    110 H110       22.4997  -32.1638  -41.5411 H         1 UNK         0.2931 
    111 H111       21.7955  -34.1118  -42.2590 H         1 UNK         0.0412 
    112 H112       21.9312  -35.2568  -38.5603 H         1 UNK         0.3472 
    113 H113       22.3908  -33.6812  -39.1580 H         1 UNK         0.3472 
    114 H114       19.3701  -34.7138  -42.4550 H         1 UNK         0.0970 
    115 H115       18.9265  -33.3152  -41.5329 H         1 UNK         0.0970 
    116 H116       18.8313  -31.1309  -42.2157 H         1 UNK         0.0612 
    117 H117       20.1076  -30.4872  -43.2159 H         1 UNK         0.0612 
@<TRIPOS>BOND
     1    1    2 1    
     2    1   62 1    
     3    1   63 1    
     4    1   64 1    
     5    2    3 2    
     6    2    4 am   BACKBONE|DICT|INTERRES
     7    4    5 1    
     8    4   65 1    
     9    5    6 1    
    10    5   25 1    
    11    5   66 1    
    12    6    7 1    
    13    6   67 1    
    14    6   68 1    
    15    7    8 1    
    16    8    9 1    
    17    8   69 1    
    18    8   70 1    
    19    9   10 ar   
    20    9   14 ar   
    21   10   11 ar   
    22   10   71 1    
    23   11   12 ar   
    24   11   61 1    
    25   12   13 ar   
    26   12   72 1    
    27   13   14 ar   
    28   13   15 1    
    29   14   73 1    
    30   15   16 1    
    31   15   74 1    
    32   15   75 1    
    33   16   17 1    
    34   17   18 1    
    35   17   76 1    
    36   17   77 1    
    37   18   19 1    
    38   18   27 1    
    39   18   78 1    
    40   19   20 am   BACKBONE|DICT|INTERRES
    41   19   79 1    
    42   20   21 2    
    43   20   22 1    
    44   22   23 1    
    45   22   24 1    
    46   22   80 1    
    47   23   81 1    
    48   23   82 1    
    49   23   83 1    
    50   24   25 am   BACKBONE|DICT|INTERRES
    51   24   84 1    
    52   25   26 2    
    53   27   28 2    
    54   27   29 am   BACKBONE|DICT|INTERRES
    55   29   30 1    
    56   29   85 1    
    57   30   31 1    
    58   30   32 1    
    59   30   86 1    
    60   31   87 1    
    61   31   88 1    
    62   31   89 1    
    63   32   33 2    
    64   32   34 am   BACKBONE|DICT|INTERRES
    65   34   35 1    
    66   34   90 1    
    67   35   36 1    
    68   35   37 1    
    69   35   91 1    
    70   36   92 1    
    71   36   93 1    
    72   36   94 1    
    73   37   38 2    
    74   37   39 am   BACKBONE|DICT|INTERRES
    75   39   40 1    
    76   39   95 1    
    77   40   41 1    
    78   40   42 1    
    79   40   96 1    
    80   41   97 1    
    81   41   98 1    
    82   41   99 1    
    83   42   43 2    
    84   42   44 am   BACKBONE|DICT|INTERRES
    85   44   45 1    
    86   44  100 1    
    87   45   46 1    
    88   45   47 1    
    89   45  101 1    
    90   46  102 1    
    91   46  103 1    
    92   46  104 1    
    93   47   48 2    
    94   47   49 am   BACKBONE|DICT|INTERRES
    95   49   50 1    
    96   49  105 1    
    97   50   51 1    
    98   50   52 1    
    99   50  106 1    
   100   51  107 1    
   101   51  108 1    
   102   51  109 1    
   103   52   53 2    
   104   52   54 am   BACKBONE|DICT|INTERRES
   105   54   55 1    
   106   54  110 1    
   107   55   56 1    
   108   55   59 1    
   109   55  111 1    
   110   56   57 am   BACKBONE|DICT|INTERRES
   111   56   58 2    
   112   57  112 1    
   113   57  113 1    
   114   59   60 1    
   115   59  114 1    
   116   59  115 1    
   117   60   61 1    
   118   61  116 1    
   119   61  117 1    
@<TRIPOS>SUBSTRUCTURE
     1 UNK         1 GROUP             0       ****    0 ROOT    
