@<TRIPOS>MOLECULE
3R8
117   119    1
SMALL
USER_CHARGES


@<TRIPOS>ATOM
      1 CA         19.7708  -26.1664  -49.7028 C.3       0 UNK        -0.2013 
      2 C          20.2864  -26.7085  -48.3783 C.2       0 UNK         0.4866 
      3 O          21.3318  -26.2672  -47.8999 O.2       0 UNK        -0.5176 
      4 N          19.5664  -27.6677  -47.7847 N.am      1 UNK        -0.4884 
      5 CA         19.8685  -28.2622  -46.4816 C.3       1 UNK         0.0853 
      6 C6         19.2130  -29.6600  -46.3000 C.3       10 UNK        -0.0849 
      7 S7         17.4535  -29.7644  -46.7946 S.3       10 UNK        -0.2776 
      8 C8         16.8674  -31.1921  -45.8229 C.3       10 UNK         0.0316 
      9 C9         16.8712  -30.9218  -44.3237 C.ar      10 UNK        -0.0863 
     10 C10        17.6966  -31.6638  -43.4729 C.ar      10 UNK        -0.1009 
     11 C11        17.7156  -31.4063  -42.0988 C.ar      10 UNK        -0.0712 
     12 C12        16.8766  -30.4204  -41.5721 C.ar      10 UNK        -0.0894 
     13 C13        16.0401  -29.6792  -42.4101 C.ar      10 UNK        -0.0745 
     14 C14        16.0411  -29.9346  -43.7843 C.ar      10 UNK        -0.0972 
     15 C15        15.1343  -28.6023  -41.8357 C.3       10 UNK         0.0209 
     16 S16        15.9310  -26.9679  -41.8853 S.3       10 UNK        -0.2568 
     17 C17        17.0274  -27.0193  -40.4246 C.3       10 UNK        -0.0983 
     18 CA         18.5189  -27.3001  -40.7512 C.3       3 UNK         0.0876 
     19 N          19.0077  -26.4781  -41.8653 N.am      3 UNK        -0.4424 
     20 C          20.2410  -26.5074  -42.3832 C.2       2 UNK         0.4918 
     21 O          21.1792  -27.1476  -41.9057 O.2       2 UNK        -0.4875 
     22 CA         20.4578  -25.6939  -43.6681 C.3       2 UNK         0.0481 
     23 CB         21.7303  -24.8344  -43.5811 C.3       2 UNK        -0.1831 
     24 N          20.5532  -26.5899  -44.8197 N.am      2 UNK        -0.4498 
     25 C          19.5272  -27.2735  -45.3458 C.2       1 UNK         0.5027 
     26 O          18.3582  -27.1212  -44.9885 O.2       1 UNK        -0.4969 
     27 C          19.3643  -27.1642  -39.4676 C.2       3 UNK         0.5005 
     28 O          19.6218  -28.1617  -38.7928 O.2       3 UNK        -0.5279 
     29 N          19.7851  -25.9280  -39.1651 N.am      4 UNK        -0.4463 
     30 CA         20.5786  -25.5790  -37.9854 C.3       4 UNK         0.0283 
     31 CB         20.4259  -24.0737  -37.7110 C.3       4 UNK        -0.1875 
     32 C          22.0679  -25.9496  -38.1017 C.2       4 UNK         0.4949 
     33 O          22.7446  -26.0012  -37.0743 O.2       4 UNK        -0.5039 
     34 N          22.5674  -26.1772  -39.3260 N.am      5 UNK        -0.4663 
     35 CA         23.9769  -26.4918  -39.5801 C.3       5 UNK         0.0242 
     36 CB         24.3300  -26.1410  -41.0340 C.3       5 UNK        -0.1982 
     37 C          24.3270  -27.9582  -39.2861 C.2       5 UNK         0.5017 
     38 O          25.4945  -28.2477  -39.0224 O.2       5 UNK        -0.5012 
     39 N          23.3293  -28.8533  -39.3650 N.am      6 UNK        -0.4439 
     40 CA         23.3695  -30.3101  -39.1536 C.3       6 UNK         0.0297 
     41 CB         23.8071  -30.6620  -37.7190 C.3       6 UNK        -0.2006 
     42 C          24.1965  -31.0918  -40.1930 C.2       6 UNK         0.4892 
     43 O          23.7271  -32.1119  -40.6942 O.2       6 UNK        -0.5089 
     44 N          25.3929  -30.5972  -40.5308 N.am      7 UNK        -0.4243 
     45 CA         26.2733  -31.1420  -41.5681 C.3       7 UNK         0.0196 
     46 CB         27.6605  -30.4933  -41.4368 C.3       7 UNK        -0.2007 
     47 C          25.7226  -30.9504  -42.9934 C.2       7 UNK         0.5020 
     48 O          26.1068  -31.6959  -43.8940 O.2       7 UNK        -0.5147 
     49 N          24.8375  -29.9605  -43.1747 N.am      8 UNK        -0.4734 
     50 CA         24.1792  -29.6494  -44.4455 C.3       8 UNK         0.0238 
     51 CB         23.7411  -28.1764  -44.4309 C.3       8 UNK        -0.1912 
     52 C          22.9796  -30.5624  -44.7600 C.2       8 UNK         0.5038 
     53 O          22.4819  -30.5077  -45.8846 O.2       8 UNK        -0.5046 
     54 N          22.5173  -31.3555  -43.7829 N.am      9 UNK        -0.4200 
     55 CA         21.4201  -32.3209  -43.9382 C.3       9 UNK         0.0839 
     56 C          21.7667  -33.4491  -44.9481 C.2       9 UNK         0.5513 
     57 N          20.8234  -33.8395  -45.7945 N.am      9 UNK        -0.7519 
     58 O          22.8640  -34.0028  -44.9371 O.2       9 UNK        -0.4960 
     59 C59        20.9976  -32.9309  -42.5779 C.3       10 UNK        -0.0876 
     60 S60        20.3775  -31.6888  -41.3884 S.3       10 UNK        -0.2414 
     61 C61        18.6385  -32.1884  -41.1772 C.3       10 UNK         0.0169 
     62 H62        20.5120  -26.3229  -50.4861 H         1 UNK         0.0903 
     63 H63        18.8450  -26.6525  -50.0100 H         1 UNK         0.0903 
     64 H64        19.5814  -25.0964  -49.6216 H         1 UNK         0.0903 
     65 H65        18.6996  -27.9815  -48.2000 H         1 UNK         0.3096 
     66 H66        20.9472  -28.4293  -46.4454 H         1 UNK         0.1121 
     67 H67        19.7614  -30.3910  -46.8964 H         1 UNK         0.0849 
     68 H68        19.3236  -29.9882  -45.2657 H         1 UNK         0.0849 
     69 H69        15.8506  -31.4352  -46.1345 H         1 UNK         0.0865 
     70 H70        17.4764  -32.0638  -46.0669 H         1 UNK         0.0865 
     71 H71        18.3331  -32.4366  -43.8782 H         1 UNK         0.1346 
     72 H72        16.8819  -30.2209  -40.5093 H         1 UNK         0.1412 
     73 H73        15.4045  -29.3548  -44.4391 H         1 UNK         0.1426 
     74 H74        14.8373  -28.8468  -40.8147 H         1 UNK         0.0716 
     75 H75        14.2104  -28.5564  -42.4144 H         1 UNK         0.0716 
     76 H76        16.9246  -26.0524  -39.9277 H         1 UNK         0.0695 
     77 H77        16.6500  -27.7574  -39.7146 H         1 UNK         0.0695 
     78 H78        18.6121  -28.3367  -41.0793 H         1 UNK         0.0983 
     79 H79        18.2908  -25.9708  -42.3655 H         1 UNK         0.3095 
     80 H80        19.6091  -25.0223  -43.8148 H         1 UNK         0.0454 
     81 H81        22.6308  -25.4430  -43.5002 H         1 UNK         0.0851 
     82 H82        21.8374  -24.1982  -44.4597 H         1 UNK         0.0851 
     83 H83        21.7008  -24.1792  -42.7095 H         1 UNK         0.0851 
     84 H84        21.4734  -26.7195  -45.2136 H         1 UNK         0.2976 
     85 H85        19.5299  -25.1721  -39.7848 H         1 UNK         0.3116 
     86 H86        20.1756  -26.1217  -37.1274 H         1 UNK         0.0646 
     87 H87        20.9745  -23.7825  -36.8140 H         1 UNK         0.0847 
     88 H88        19.3824  -23.8020  -37.5502 H         1 UNK         0.0847 
     89 H89        20.8086  -23.4706  -38.5353 H         1 UNK         0.0847 
     90 H90        21.9460  -26.1730  -40.1259 H         1 UNK         0.3040 
     91 H91        24.5961  -25.8729  -38.9262 H         1 UNK         0.1015 
     92 H92        24.1075  -25.0975  -41.2575 H         1 UNK         0.0786 
     93 H93        23.7837  -26.7622  -41.7422 H         1 UNK         0.0786 
     94 H94        25.3935  -26.2927  -41.2242 H         1 UNK         0.0786 
     95 H95        22.4204  -28.4877  -39.6187 H         1 UNK         0.3172 
     96 H96        22.3367  -30.6435  -39.2650 H         1 UNK         0.0595 
     97 H97        23.1744  -30.1694  -36.9807 H         1 UNK         0.0839 
     98 H98        24.8398  -30.3734  -37.5215 H         1 UNK         0.0839 
     99 H99        23.7332  -31.7361  -37.5440 H         1 UNK         0.0839 
    100 H100       25.6990  -29.7548  -40.0480 H         1 UNK         0.2998 
    101 H101       26.3755  -32.2159  -41.3975 H         1 UNK         0.0822 
    102 H102       28.0963  -30.6845  -40.4559 H         1 UNK         0.0787 
    103 H103       28.3513  -30.8928  -42.1808 H         1 UNK         0.0787 
    104 H104       27.6153  -29.4127  -41.5791 H         1 UNK         0.0787 
    105 H105       24.5823  -29.3985  -42.3761 H         1 UNK         0.3055 
    106 H106       24.9022  -29.7811  -45.2540 H         1 UNK         0.1106 
    107 H107       23.3437  -27.8807  -45.4025 H         1 UNK         0.0828 
    108 H108       22.9632  -28.0006  -43.6883 H         1 UNK         0.0828 
    109 H109       24.5770  -27.5119  -44.2114 H         1 UNK         0.0828 
    110 H110       22.9913  -31.3637  -42.8909 H         1 UNK         0.2931 
    111 H111       20.5696  -31.7658  -44.3349 H         1 UNK         0.0412 
    112 H112       19.9183  -33.3987  -45.8138 H         1 UNK         0.3472 
    113 H113       21.0297  -34.5828  -46.4439 H         1 UNK         0.3472 
    114 H114       20.2367  -33.6980  -42.7294 H         1 UNK         0.0970 
    115 H115       21.8424  -33.4467  -42.1174 H         1 UNK         0.0970 
    116 H116       18.5143  -33.2593  -41.3412 H         1 UNK         0.0612 
    117 H117       18.3643  -32.0149  -40.1355 H         1 UNK         0.0612 
@<TRIPOS>BOND
     1    1    2 1    
     2    1   62 1    
     3    1   63 1    
     4    1   64 1    
     5    2    3 2    
     6    2    4 am   BACKBONE|DICT|INTERRES
     7    4    5 1    
     8    4   65 1    
     9    5    6 1    
    10    5   25 1    
    11    5   66 1    
    12    6    7 1    
    13    6   67 1    
    14    6   68 1    
    15    7    8 1    
    16    8    9 1    
    17    8   69 1    
    18    8   70 1    
    19    9   10 ar   
    20    9   14 ar   
    21   10   11 ar   
    22   10   71 1    
    23   11   12 ar   
    24   11   61 1    
    25   12   13 ar   
    26   12   72 1    
    27   13   14 ar   
    28   13   15 1    
    29   14   73 1    
    30   15   16 1    
    31   15   74 1    
    32   15   75 1    
    33   16   17 1    
    34   17   18 1    
    35   17   76 1    
    36   17   77 1    
    37   18   19 1    
    38   18   27 1    
    39   18   78 1    
    40   19   20 am   BACKBONE|DICT|INTERRES
    41   19   79 1    
    42   20   21 2    
    43   20   22 1    
    44   22   23 1    
    45   22   24 1    
    46   22   80 1    
    47   23   81 1    
    48   23   82 1    
    49   23   83 1    
    50   24   25 am   BACKBONE|DICT|INTERRES
    51   24   84 1    
    52   25   26 2    
    53   27   28 2    
    54   27   29 am   BACKBONE|DICT|INTERRES
    55   29   30 1    
    56   29   85 1    
    57   30   31 1    
    58   30   32 1    
    59   30   86 1    
    60   31   87 1    
    61   31   88 1    
    62   31   89 1    
    63   32   33 2    
    64   32   34 am   BACKBONE|DICT|INTERRES
    65   34   35 1    
    66   34   90 1    
    67   35   36 1    
    68   35   37 1    
    69   35   91 1    
    70   36   92 1    
    71   36   93 1    
    72   36   94 1    
    73   37   38 2    
    74   37   39 am   BACKBONE|DICT|INTERRES
    75   39   40 1    
    76   39   95 1    
    77   40   41 1    
    78   40   42 1    
    79   40   96 1    
    80   41   97 1    
    81   41   98 1    
    82   41   99 1    
    83   42   43 2    
    84   42   44 am   BACKBONE|DICT|INTERRES
    85   44   45 1    
    86   44  100 1    
    87   45   46 1    
    88   45   47 1    
    89   45  101 1    
    90   46  102 1    
    91   46  103 1    
    92   46  104 1    
    93   47   48 2    
    94   47   49 am   BACKBONE|DICT|INTERRES
    95   49   50 1    
    96   49  105 1    
    97   50   51 1    
    98   50   52 1    
    99   50  106 1    
   100   51  107 1    
   101   51  108 1    
   102   51  109 1    
   103   52   53 2    
   104   52   54 am   BACKBONE|DICT|INTERRES
   105   54   55 1    
   106   54  110 1    
   107   55   56 1    
   108   55   59 1    
   109   55  111 1    
   110   56   57 am   BACKBONE|DICT|INTERRES
   111   56   58 2    
   112   57  112 1    
   113   57  113 1    
   114   59   60 1    
   115   59  114 1    
   116   59  115 1    
   117   60   61 1    
   118   61  116 1    
   119   61  117 1    
@<TRIPOS>SUBSTRUCTURE
     1 UNK         1 GROUP             0       ****    0 ROOT    
