@<TRIPOS>MOLECULE
3R8
117   119    1
SMALL
USER_CHARGES


@<TRIPOS>ATOM
      1 CA         16.9047  -27.1945  -47.5118 C.3       0 UNK        -0.2013 
      2 C          16.6720  -25.7386  -47.1204 C.2       0 UNK         0.4866 
      3 O          16.2986  -24.9384  -47.9756 O.2       0 UNK        -0.5176 
      4 N          16.8807  -25.3354  -45.8601 N.am      1 UNK        -0.4884 
      5 CA         17.3452  -26.1421  -44.7221 C.3       1 UNK         0.0853 
      6 C6         16.2446  -26.3192  -43.6399 C.3       10 UNK        -0.0849 
      7 S7         14.9083  -27.4204  -44.2221 S.3       10 UNK        -0.2776 
      8 C8         14.9918  -28.8213  -43.0466 C.3       10 UNK         0.0316 
      9 C9         16.3722  -29.4661  -42.9248 C.ar      10 UNK        -0.0863 
     10 C10        16.8658  -29.8132  -41.6631 C.ar      10 UNK        -0.1009 
     11 C11        18.1311  -30.3911  -41.5131 C.ar      10 UNK        -0.0712 
     12 C12        18.9239  -30.5842  -42.6531 C.ar      10 UNK        -0.0894 
     13 C13        18.4265  -30.2870  -43.9245 C.ar      10 UNK        -0.0745 
     14 C14        17.1471  -29.7415  -44.0546 C.ar      10 UNK        -0.0972 
     15 C15        19.2478  -30.5846  -45.1677 C.3       10 UNK         0.0209 
     16 S16        19.9878  -29.0750  -45.8587 S.3       10 UNK        -0.2568 
     17 C17        21.7232  -29.1520  -45.2786 C.3       10 UNK        -0.0983 
     18 CA         22.1610  -27.9843  -44.3511 C.3       3 UNK         0.0876 
     19 N          21.5423  -26.7168  -44.7448 N.am      3 UNK        -0.4424 
     20 C          21.7831  -25.4991  -44.2451 C.2       2 UNK         0.4918 
     21 O          22.6720  -25.2560  -43.4299 O.2       2 UNK        -0.4875 
     22 CA         20.8024  -24.3875  -44.6723 C.3       2 UNK         0.0481 
     23 CB         21.3671  -23.6049  -45.8673 C.3       2 UNK        -0.1831 
     24 N          19.4571  -24.8884  -45.0031 N.am      2 UNK        -0.4498 
     25 C          18.6570  -25.5604  -44.1567 C.2       1 UNK         0.5027 
     26 O          18.9612  -25.7689  -42.9834 O.2       1 UNK        -0.4969 
     27 C          22.0013  -28.3370  -42.8548 C.2       3 UNK         0.5005 
     28 O          22.8064  -29.1226  -42.3516 O.2       3 UNK        -0.5279 
     29 N          21.0347  -27.7276  -42.1483 N.am      4 UNK        -0.4463 
     30 CA         20.8816  -27.8393  -40.6955 C.3       4 UNK         0.0283 
     31 CB         19.5551  -27.2004  -40.2567 C.3       4 UNK        -0.1875 
     32 C          22.0486  -27.2138  -39.9140 C.2       4 UNK         0.4949 
     33 O          22.3911  -27.7226  -38.8478 O.2       4 UNK        -0.5039 
     34 N          22.6632  -26.1517  -40.4591 N.am      5 UNK        -0.4663 
     35 CA         23.8407  -25.4996  -39.8736 C.3       5 UNK         0.0242 
     36 CB         24.0363  -24.1143  -40.5095 C.3       5 UNK        -0.1982 
     37 C          25.1141  -26.3499  -40.0199 C.2       5 UNK         0.5017 
     38 O          25.9853  -26.2922  -39.1522 O.2       5 UNK        -0.5012 
     39 N          25.1810  -27.1427  -41.0983 N.am      6 UNK        -0.4439 
     40 CA         26.2242  -28.1415  -41.3430 C.3       6 UNK         0.0297 
     41 CB         26.3159  -28.4006  -42.8568 C.3       6 UNK        -0.2006 
     42 C          25.9730  -29.4637  -40.5915 C.2       6 UNK         0.4892 
     43 O          26.8819  -30.2921  -40.5287 O.2       6 UNK        -0.5089 
     44 N          24.7487  -29.6458  -40.0705 N.am      7 UNK        -0.4243 
     45 CA         24.1968  -30.8612  -39.4615 C.3       7 UNK         0.0196 
     46 CB         24.9312  -31.2130  -38.1509 C.3       7 UNK        -0.2007 
     47 C          24.1253  -32.0405  -40.4520 C.2       7 UNK         0.5020 
     48 O          24.2475  -33.1975  -40.0470 O.2       7 UNK        -0.5147 
     49 N          23.9033  -31.7353  -41.7371 N.am      8 UNK        -0.4734 
     50 CA         23.8109  -32.6998  -42.8356 C.3       8 UNK         0.0238 
     51 CB         24.4507  -32.0787  -44.0914 C.3       8 UNK        -0.1912 
     52 C          22.3503  -33.1347  -43.0526 C.2       8 UNK         0.5038 
     53 O          21.8506  -33.0967  -44.1777 O.2       8 UNK        -0.5046 
     54 N          21.6849  -33.5048  -41.9536 N.am      9 UNK        -0.4200 
     55 CA         20.2485  -33.8131  -41.8820 C.3       9 UNK         0.0839 
     56 C          19.8854  -35.2820  -42.2417 C.2       9 UNK         0.5513 
     57 N          20.8440  -36.1588  -42.5157 N.am      9 UNK        -0.7519 
     58 O          18.7087  -35.6318  -42.2805 O.2       9 UNK        -0.4960 
     59 C59        19.6453  -33.3959  -40.5108 C.3       10 UNK        -0.0876 
     60 S60        20.1377  -31.7188  -39.9637 S.3       10 UNK        -0.2414 
     61 C61        18.5810  -30.7724  -40.0993 C.3       10 UNK         0.0169 
     62 H62        17.9584  -27.4550  -47.4228 H         1 UNK         0.0903 
     63 H63        16.3168  -27.8672  -46.8889 H         1 UNK         0.0903 
     64 H64        16.6084  -27.3637  -48.5468 H         1 UNK         0.0903 
     65 H65        16.7108  -24.3626  -45.6420 H         1 UNK         0.3096 
     66 H66        17.6378  -27.1385  -45.0512 H         1 UNK         0.1121 
     67 H67        15.8146  -25.3541  -43.3672 H         1 UNK         0.0849 
     68 H68        16.6527  -26.7340  -42.7165 H         1 UNK         0.0849 
     69 H69        14.2779  -29.5841  -43.3598 H         1 UNK         0.0865 
     70 H70        14.6513  -28.4659  -42.0728 H         1 UNK         0.0865 
     71 H71        16.2591  -29.6346  -40.7855 H         1 UNK         0.1346 
     72 H72        19.9237  -30.9825  -42.5663 H         1 UNK         0.1412 
     73 H73        16.7616  -29.5158  -45.0390 H         1 UNK         0.1426 
     74 H74        18.5982  -31.0262  -45.9248 H         1 UNK         0.0716 
     75 H75        20.0119  -31.3341  -44.9624 H         1 UNK         0.0716 
     76 H76        22.3438  -29.1325  -46.1756 H         1 UNK         0.0695 
     77 H77        21.9228  -30.1226  -44.8226 H         1 UNK         0.0695 
     78 H78        23.2357  -27.8491  -44.4908 H         1 UNK         0.0983 
     79 H79        20.7873  -26.8137  -45.4082 H         1 UNK         0.3095 
     80 H80        20.7011  -23.7003  -43.8298 H         1 UNK         0.0454 
     81 H81        21.4688  -24.2338  -46.7527 H         1 UNK         0.0851 
     82 H82        22.3554  -23.2035  -45.6380 H         1 UNK         0.0851 
     83 H83        20.7296  -22.7594  -46.1261 H         1 UNK         0.0851 
     84 H84        19.1352  -24.7457  -45.9502 H         1 UNK         0.2976 
     85 H85        20.3962  -27.0921  -42.6168 H         1 UNK         0.3116 
     86 H86        20.8518  -28.9012  -40.4499 H         1 UNK         0.0646 
     87 H87        18.7107  -27.6082  -40.8119 H         1 UNK         0.0847 
     88 H88        19.5588  -26.1199  -40.4048 H         1 UNK         0.0847 
     89 H89        19.3679  -27.3812  -39.1976 H         1 UNK         0.0847 
     90 H90        22.3474  -25.8035  -41.3574 H         1 UNK         0.3040 
     91 H91        23.6591  -25.3607  -38.8052 H         1 UNK         0.1015 
     92 H92        24.8635  -23.5836  -40.0362 H         1 UNK         0.0786 
     93 H93        23.1466  -23.4947  -40.3954 H         1 UNK         0.0786 
     94 H94        24.2633  -24.1838  -41.5738 H         1 UNK         0.0786 
     95 H95        24.4122  -27.1161  -41.7530 H         1 UNK         0.3172 
     96 H96        27.1835  -27.7441  -41.0048 H         1 UNK         0.0595 
     97 H97        25.3964  -28.8346  -43.2510 H         1 UNK         0.0839 
     98 H98        27.1240  -29.0975  -43.0837 H         1 UNK         0.0839 
     99 H99        26.5190  -27.4819  -43.4072 H         1 UNK         0.0839 
    100 H100       24.0796  -28.8999  -40.2038 H         1 UNK         0.2998 
    101 H101       23.1628  -30.6236  -39.2058 H         1 UNK         0.0822 
    102 H102       24.9602  -30.3602  -37.4727 H         1 UNK         0.0787 
    103 H103       24.4263  -32.0255  -37.6270 H         1 UNK         0.0787 
    104 H104       25.9573  -31.5334  -38.3335 H         1 UNK         0.0787 
    105 H105       23.6950  -30.7658  -41.9690 H         1 UNK         0.3055 
    106 H106       24.3774  -33.6000  -42.5866 H         1 UNK         0.1106 
    107 H107       24.4076  -32.7659  -44.9374 H         1 UNK         0.0828 
    108 H108       25.5012  -31.8428  -43.9209 H         1 UNK         0.0828 
    109 H109       23.9494  -31.1584  -44.3885 H         1 UNK         0.0828 
    110 H110       22.1857  -33.5130  -41.0754 H         1 UNK         0.2931 
    111 H111       19.7468  -33.2193  -42.6457 H         1 UNK         0.0412 
    112 H112       21.8119  -35.8809  -42.4917 H         1 UNK         0.3472 
    113 H113       20.5953  -37.1070  -42.7513 H         1 UNK         0.3472 
    114 H114       18.5561  -33.4590  -40.5450 H         1 UNK         0.0970 
    115 H115       19.9600  -34.0958  -39.7346 H         1 UNK         0.0970 
    116 H116       18.6967  -29.8580  -39.5178 H         1 UNK         0.0612 
    117 H117       17.7887  -31.3409  -39.6101 H         1 UNK         0.0612 
@<TRIPOS>BOND
     1    1    2 1    
     2    1   62 1    
     3    1   63 1    
     4    1   64 1    
     5    2    3 2    
     6    2    4 am   BACKBONE|DICT|INTERRES
     7    4    5 1    
     8    4   65 1    
     9    5    6 1    
    10    5   25 1    
    11    5   66 1    
    12    6    7 1    
    13    6   67 1    
    14    6   68 1    
    15    7    8 1    
    16    8    9 1    
    17    8   69 1    
    18    8   70 1    
    19    9   10 ar   
    20    9   14 ar   
    21   10   11 ar   
    22   10   71 1    
    23   11   12 ar   
    24   11   61 1    
    25   12   13 ar   
    26   12   72 1    
    27   13   14 ar   
    28   13   15 1    
    29   14   73 1    
    30   15   16 1    
    31   15   74 1    
    32   15   75 1    
    33   16   17 1    
    34   17   18 1    
    35   17   76 1    
    36   17   77 1    
    37   18   19 1    
    38   18   27 1    
    39   18   78 1    
    40   19   20 am   BACKBONE|DICT|INTERRES
    41   19   79 1    
    42   20   21 2    
    43   20   22 1    
    44   22   23 1    
    45   22   24 1    
    46   22   80 1    
    47   23   81 1    
    48   23   82 1    
    49   23   83 1    
    50   24   25 am   BACKBONE|DICT|INTERRES
    51   24   84 1    
    52   25   26 2    
    53   27   28 2    
    54   27   29 am   BACKBONE|DICT|INTERRES
    55   29   30 1    
    56   29   85 1    
    57   30   31 1    
    58   30   32 1    
    59   30   86 1    
    60   31   87 1    
    61   31   88 1    
    62   31   89 1    
    63   32   33 2    
    64   32   34 am   BACKBONE|DICT|INTERRES
    65   34   35 1    
    66   34   90 1    
    67   35   36 1    
    68   35   37 1    
    69   35   91 1    
    70   36   92 1    
    71   36   93 1    
    72   36   94 1    
    73   37   38 2    
    74   37   39 am   BACKBONE|DICT|INTERRES
    75   39   40 1    
    76   39   95 1    
    77   40   41 1    
    78   40   42 1    
    79   40   96 1    
    80   41   97 1    
    81   41   98 1    
    82   41   99 1    
    83   42   43 2    
    84   42   44 am   BACKBONE|DICT|INTERRES
    85   44   45 1    
    86   44  100 1    
    87   45   46 1    
    88   45   47 1    
    89   45  101 1    
    90   46  102 1    
    91   46  103 1    
    92   46  104 1    
    93   47   48 2    
    94   47   49 am   BACKBONE|DICT|INTERRES
    95   49   50 1    
    96   49  105 1    
    97   50   51 1    
    98   50   52 1    
    99   50  106 1    
   100   51  107 1    
   101   51  108 1    
   102   51  109 1    
   103   52   53 2    
   104   52   54 am   BACKBONE|DICT|INTERRES
   105   54   55 1    
   106   54  110 1    
   107   55   56 1    
   108   55   59 1    
   109   55  111 1    
   110   56   57 am   BACKBONE|DICT|INTERRES
   111   56   58 2    
   112   57  112 1    
   113   57  113 1    
   114   59   60 1    
   115   59  114 1    
   116   59  115 1    
   117   60   61 1    
   118   61  116 1    
   119   61  117 1    
@<TRIPOS>SUBSTRUCTURE
     1 UNK         1 GROUP             0       ****    0 ROOT    
