@<TRIPOS>MOLECULE
3R8
117   119    1
SMALL
USER_CHARGES


@<TRIPOS>ATOM
      1 CA         20.8589  -32.2139  -47.2886 C.3       0 UNK        -0.2013 
      2 C          19.5955  -31.5266  -46.7932 C.2       0 UNK         0.4866 
      3 O          18.7314  -32.1811  -46.2098 O.2       0 UNK        -0.5176 
      4 N          19.4843  -30.2118  -47.0113 N.am      1 UNK        -0.4884 
      5 CA         18.3786  -29.3788  -46.5335 C.3       1 UNK         0.0853 
      6 C6         17.0932  -29.5605  -47.3893 C.3       10 UNK        -0.0849 
      7 S7         15.5285  -29.0675  -46.5838 S.3       10 UNK        -0.2776 
      8 C8         15.4432  -30.1406  -45.1070 C.3       10 UNK         0.0316 
      9 C9         16.0371  -29.4803  -43.8651 C.ar      10 UNK        -0.0863 
     10 C10        16.9949  -30.1487  -43.0941 C.ar      10 UNK        -0.1009 
     11 C11        17.5477  -29.5452  -41.9539 C.ar      10 UNK        -0.0712 
     12 C12        17.0979  -28.2761  -41.5768 C.ar      10 UNK        -0.0894 
     13 C13        16.1508  -27.5919  -42.3413 C.ar      10 UNK        -0.0745 
     14 C14        15.6170  -28.2045  -43.4767 C.ar      10 UNK        -0.0972 
     15 C15        15.7007  -26.1908  -41.9539 C.3       10 UNK         0.0209 
     16 S16        16.5480  -24.9247  -42.9545 S.3       10 UNK        -0.2568 
     17 C17        17.9833  -24.4803  -41.9164 C.3       10 UNK        -0.0983 
     18 CA         19.2219  -25.3868  -42.1254 C.3       3 UNK         0.0876 
     19 N          19.6125  -25.5122  -43.5304 N.am      3 UNK        -0.4424 
     20 C          20.5405  -26.3610  -43.9862 C.2       2 UNK         0.4918 
     21 O          21.2264  -27.0877  -43.2621 O.2       2 UNK        -0.4875 
     22 CA         20.6740  -26.4624  -45.5101 C.3       2 UNK         0.0481 
     23 CB         22.1410  -26.3945  -45.9639 C.3       2 UNK        -0.1831 
     24 N          20.1026  -27.7444  -45.9098 N.am      2 UNK        -0.4498 
     25 C          18.8493  -27.9196  -46.3529 C.2       1 UNK         0.5027 
     26 O          18.0957  -26.9833  -46.6226 O.2       1 UNK        -0.4969 
     27 C          20.3984  -24.9225  -41.2450 C.2       3 UNK         0.5005 
     28 O          20.9569  -23.8514  -41.4931 O.2       3 UNK        -0.5279 
     29 N          20.7440  -25.7465  -40.2438 N.am      4 UNK        -0.4463 
     30 CA         21.8135  -25.5552  -39.2552 C.3       4 UNK         0.0283 
     31 CB         21.5194  -24.3339  -38.3573 C.3       4 UNK        -0.1875 
     32 C          23.2407  -25.5214  -39.8426 C.2       4 UNK         0.4949 
     33 O          24.1553  -25.0531  -39.1630 O.2       4 UNK        -0.5039 
     34 N          23.4293  -26.0312  -41.0698 N.am      5 UNK        -0.4663 
     35 CA         24.7400  -26.1171  -41.7248 C.3       5 UNK         0.0242 
     36 CB         24.5447  -26.3874  -43.2236 C.3       5 UNK        -0.1982 
     37 C          25.6503  -27.1887  -41.1014 C.2       5 UNK         0.5017 
     38 O          26.8644  -26.9930  -41.0380 O.2       5 UNK        -0.5012 
     39 N          25.0403  -28.2887  -40.6494 N.am      6 UNK        -0.4439 
     40 CA         25.6493  -29.4442  -40.0001 C.3       6 UNK         0.0297 
     41 CB         26.5321  -30.2265  -40.9958 C.3       6 UNK        -0.2006 
     42 C          24.5091  -30.3287  -39.4828 C.2       6 UNK         0.4892 
     43 O          23.3560  -30.1262  -39.8749 O.2       6 UNK        -0.5089 
     44 N          24.8492  -31.3344  -38.6655 N.am      7 UNK        -0.4243 
     45 CA         23.9155  -32.3592  -38.1754 C.3       7 UNK         0.0196 
     46 CB         24.6258  -33.2364  -37.1319 C.3       7 UNK        -0.2007 
     47 C          23.3138  -33.2331  -39.2951 C.2       7 UNK         0.5020 
     48 O          22.2110  -33.7538  -39.1327 O.2       7 UNK        -0.5147 
     49 N          24.0364  -33.3517  -40.4174 N.am      8 UNK        -0.4734 
     50 CA         23.5910  -34.0060  -41.6507 C.3       8 UNK         0.0238 
     51 CB         24.8296  -34.5351  -42.3959 C.3       8 UNK        -0.1912 
     52 C          22.7539  -33.0868  -42.5659 C.2       8 UNK         0.5038 
     53 O          22.3630  -33.5312  -43.6461 O.2       8 UNK        -0.5046 
     54 N          22.5116  -31.8353  -42.1459 N.am      9 UNK        -0.4200 
     55 CA         21.7802  -30.7914  -42.8850 C.3       9 UNK         0.0839 
     56 C          22.5297  -30.2733  -44.1494 C.2       9 UNK         0.5513 
     57 N          23.8514  -30.3773  -44.2166 N.am      9 UNK        -0.7519 
     58 O          21.9141  -29.7652  -45.0819 O.2       9 UNK        -0.4960 
     59 C59        20.2953  -31.1539  -43.1776 C.3       10 UNK        -0.0876 
     60 S60        19.3632  -31.7460  -41.7225 S.3       10 UNK        -0.2414 
     61 C61        18.6259  -30.2025  -41.0868 C.3       10 UNK         0.0169 
     62 H62        20.6087  -32.9844  -48.0172 H         1 UNK         0.0903 
     63 H63        21.5484  -31.5110  -47.7558 H         1 UNK         0.0903 
     64 H64        21.3763  -32.6864  -46.4534 H         1 UNK         0.0903 
     65 H65        20.2281  -29.7164  -47.4857 H         1 UNK         0.3096 
     66 H66        18.1634  -29.7173  -45.5220 H         1 UNK         0.1121 
     67 H67        17.1864  -29.0171  -48.3311 H         1 UNK         0.0849 
     68 H68        16.9755  -30.6075  -47.6720 H         1 UNK         0.0849 
     69 H69        14.3962  -30.3700  -44.9046 H         1 UNK         0.0865 
     70 H70        15.9286  -31.0948  -45.3205 H         1 UNK         0.0865 
     71 H71        17.3104  -31.1370  -43.3972 H         1 UNK         0.1346 
     72 H72        17.4988  -27.8118  -40.6865 H         1 UNK         0.1412 
     73 H73        14.8806  -27.6785  -44.0692 H         1 UNK         0.1426 
     74 H74        15.8590  -26.0077  -40.8902 H         1 UNK         0.0716 
     75 H75        14.6257  -26.1011  -42.1176 H         1 UNK         0.0716 
     76 H76        17.6770  -24.4854  -40.8686 H         1 UNK         0.0695 
     77 H77        18.2357  -23.4433  -42.1468 H         1 UNK         0.0695 
     78 H78        18.9511  -26.3912  -41.8062 H         1 UNK         0.0983 
     79 H79        19.0737  -24.9682  -44.1884 H         1 UNK         0.3095 
     80 H80        20.1395  -25.6344  -45.9804 H         1 UNK         0.0454 
     81 H81        22.5907  -25.4425  -45.6813 H         1 UNK         0.0851 
     82 H82        22.2223  -26.4813  -47.0472 H         1 UNK         0.0851 
     83 H83        22.7429  -27.1891  -45.5223 H         1 UNK         0.0851 
     84 H84        20.6617  -28.5594  -45.6587 H         1 UNK         0.2976 
     85 H85        20.2373  -26.6161  -40.1517 H         1 UNK         0.3116 
     86 H86        21.7848  -26.4394  -38.6166 H         1 UNK         0.0646 
     87 H87        21.6050  -23.3963  -38.9074 H         1 UNK         0.0847 
     88 H88        22.2187  -24.2825  -37.5218 H         1 UNK         0.0847 
     89 H89        20.5169  -24.3839  -37.9325 H         1 UNK         0.0847 
     90 H90        22.6311  -26.3806  -41.5870 H         1 UNK         0.3040 
     91 H91        25.2429  -25.1534  -41.6148 H         1 UNK         0.1015 
     92 H92        24.0296  -27.3328  -43.3996 H         1 UNK         0.0786 
     93 H93        25.5034  -26.4360  -43.7418 H         1 UNK         0.0786 
     94 H94        23.9635  -25.5931  -43.6906 H         1 UNK         0.0786 
     95 H95        24.0308  -28.3548  -40.7139 H         1 UNK         0.3172 
     96 H96        26.2458  -29.1030  -39.1519 H         1 UNK         0.0595 
     97 H97        26.9792  -31.1041  -40.5279 H         1 UNK         0.0839 
     98 H98        27.3561  -29.6179  -41.3675 H         1 UNK         0.0839 
     99 H99        25.9602  -30.5700  -41.8579 H         1 UNK         0.0839 
    100 H100       25.8152  -31.4302  -38.3849 H         1 UNK         0.2998 
    101 H101       23.0855  -31.8456  -37.6850 H         1 UNK         0.0822 
    102 H102       23.9477  -33.9907  -36.7299 H         1 UNK         0.0787 
    103 H103       25.4806  -33.7620  -37.5597 H         1 UNK         0.0787 
    104 H104       24.9820  -32.6428  -36.2896 H         1 UNK         0.0787 
    105 H105       24.9407  -32.9043  -40.4453 H         1 UNK         0.3055 
    106 H106       22.9573  -34.8578  -41.3930 H         1 UNK         0.1106 
    107 H107       24.5432  -35.0842  -43.2941 H         1 UNK         0.0828 
    108 H108       25.4914  -33.7260  -42.7071 H         1 UNK         0.0828 
    109 H109       25.4050  -35.2204  -41.7732 H         1 UNK         0.0828 
    110 H110       22.8590  -31.5449  -41.2395 H         1 UNK         0.2931 
    111 H111       21.7611  -29.9321  -42.2138 H         1 UNK         0.0412 
    112 H112       24.3708  -30.8034  -43.4687 H         1 UNK         0.3472 
    113 H113       24.3264  -30.0424  -45.0392 H         1 UNK         0.3472 
    114 H114       19.7788  -30.2934  -43.6048 H         1 UNK         0.0970 
    115 H115       20.2455  -31.9368  -43.9345 H         1 UNK         0.0970 
    116 H116       18.1932  -30.4180  -40.1090 H         1 UNK         0.0612 
    117 H117       19.4339  -29.4891  -40.9162 H         1 UNK         0.0612 
@<TRIPOS>BOND
     1    1    2 1    
     2    1   62 1    
     3    1   63 1    
     4    1   64 1    
     5    2    3 2    
     6    2    4 am   BACKBONE|DICT|INTERRES
     7    4    5 1    
     8    4   65 1    
     9    5    6 1    
    10    5   25 1    
    11    5   66 1    
    12    6    7 1    
    13    6   67 1    
    14    6   68 1    
    15    7    8 1    
    16    8    9 1    
    17    8   69 1    
    18    8   70 1    
    19    9   10 ar   
    20    9   14 ar   
    21   10   11 ar   
    22   10   71 1    
    23   11   12 ar   
    24   11   61 1    
    25   12   13 ar   
    26   12   72 1    
    27   13   14 ar   
    28   13   15 1    
    29   14   73 1    
    30   15   16 1    
    31   15   74 1    
    32   15   75 1    
    33   16   17 1    
    34   17   18 1    
    35   17   76 1    
    36   17   77 1    
    37   18   19 1    
    38   18   27 1    
    39   18   78 1    
    40   19   20 am   BACKBONE|DICT|INTERRES
    41   19   79 1    
    42   20   21 2    
    43   20   22 1    
    44   22   23 1    
    45   22   24 1    
    46   22   80 1    
    47   23   81 1    
    48   23   82 1    
    49   23   83 1    
    50   24   25 am   BACKBONE|DICT|INTERRES
    51   24   84 1    
    52   25   26 2    
    53   27   28 2    
    54   27   29 am   BACKBONE|DICT|INTERRES
    55   29   30 1    
    56   29   85 1    
    57   30   31 1    
    58   30   32 1    
    59   30   86 1    
    60   31   87 1    
    61   31   88 1    
    62   31   89 1    
    63   32   33 2    
    64   32   34 am   BACKBONE|DICT|INTERRES
    65   34   35 1    
    66   34   90 1    
    67   35   36 1    
    68   35   37 1    
    69   35   91 1    
    70   36   92 1    
    71   36   93 1    
    72   36   94 1    
    73   37   38 2    
    74   37   39 am   BACKBONE|DICT|INTERRES
    75   39   40 1    
    76   39   95 1    
    77   40   41 1    
    78   40   42 1    
    79   40   96 1    
    80   41   97 1    
    81   41   98 1    
    82   41   99 1    
    83   42   43 2    
    84   42   44 am   BACKBONE|DICT|INTERRES
    85   44   45 1    
    86   44  100 1    
    87   45   46 1    
    88   45   47 1    
    89   45  101 1    
    90   46  102 1    
    91   46  103 1    
    92   46  104 1    
    93   47   48 2    
    94   47   49 am   BACKBONE|DICT|INTERRES
    95   49   50 1    
    96   49  105 1    
    97   50   51 1    
    98   50   52 1    
    99   50  106 1    
   100   51  107 1    
   101   51  108 1    
   102   51  109 1    
   103   52   53 2    
   104   52   54 am   BACKBONE|DICT|INTERRES
   105   54   55 1    
   106   54  110 1    
   107   55   56 1    
   108   55   59 1    
   109   55  111 1    
   110   56   57 am   BACKBONE|DICT|INTERRES
   111   56   58 2    
   112   57  112 1    
   113   57  113 1    
   114   59   60 1    
   115   59  114 1    
   116   59  115 1    
   117   60   61 1    
   118   61  116 1    
   119   61  117 1    
@<TRIPOS>SUBSTRUCTURE
     1 UNK         1 GROUP             0       ****    0 ROOT    
