@<TRIPOS>MOLECULE
3R8
117   119    1
SMALL
USER_CHARGES


@<TRIPOS>ATOM
      1 CA         24.3546  -28.1650  -46.4398 C.3       0 UNK        -0.2013 
      2 C          22.9931  -27.5579  -46.7469 C.2       0 UNK         0.4866 
      3 O          22.9104  -26.5914  -47.5043 O.2       0 UNK        -0.5176 
      4 N          21.9310  -28.1166  -46.1503 N.am      1 UNK        -0.4884 
      5 CA         20.5187  -27.7302  -46.3159 C.3       1 UNK         0.0853 
      6 C6         19.9408  -28.0679  -47.7149 C.3       10 UNK        -0.0849 
      7 S7         19.9725  -29.8672  -48.0164 S.3       10 UNK        -0.2776 
      8 C8         18.2513  -30.3379  -47.6394 C.3       10 UNK         0.0316 
      9 C9         17.8926  -30.1637  -46.1666 C.ar      10 UNK        -0.0863 
     10 C10        18.3986  -31.0497  -45.2092 C.ar      10 UNK        -0.1009 
     11 C11        18.0273  -30.9380  -43.8630 C.ar      10 UNK        -0.0712 
     12 C12        17.1291  -29.9328  -43.4869 C.ar      10 UNK        -0.0894 
     13 C13        16.6117  -29.0416  -44.4315 C.ar      10 UNK        -0.0745 
     14 C14        17.0075  -29.1557  -45.7683 C.ar      10 UNK        -0.0972 
     15 C15        15.5617  -28.0107  -44.0295 C.3       10 UNK         0.0209 
     16 S16        16.2360  -26.3228  -43.9217 S.3       10 UNK        -0.2568 
     17 C17        16.7358  -26.1852  -42.1674 C.3       10 UNK        -0.0983 
     18 CA         18.1814  -26.6792  -41.9152 C.3       3 UNK         0.0876 
     19 N          19.1979  -26.1041  -42.8000 N.am      3 UNK        -0.4424 
     20 C          19.4906  -24.8248  -43.0749 C.2       2 UNK         0.4918 
     21 O          18.9017  -23.8475  -42.6133 O.2       2 UNK        -0.4875 
     22 CA         20.6570  -24.6074  -44.0638 C.3       2 UNK         0.0481 
     23 CB         21.9227  -24.1655  -43.3113 C.3       2 UNK        -0.1831 
     24 N          20.9649  -25.8106  -44.8489 N.am      2 UNK        -0.4498 
     25 C          20.2031  -26.2917  -45.8444 C.2       1 UNK         0.5027 
     26 O          19.2534  -25.6739  -46.3276 O.2       1 UNK        -0.4969 
     27 C          18.6209  -26.5584  -40.4437 C.2       3 UNK         0.5005 
     28 O          18.9459  -25.4624  -39.9833 O.2       3 UNK        -0.5279 
     29 N          18.7087  -27.7058  -39.7501 N.am      4 UNK        -0.4463 
     30 CA         19.3052  -27.9314  -38.4195 C.3       4 UNK         0.0283 
     31 CB         18.6279  -27.0914  -37.3191 C.3       4 UNK        -0.1875 
     32 C          20.8364  -27.7575  -38.4049 C.2       4 UNK         0.4949 
     33 O          21.5447  -28.6375  -37.9194 O.2       4 UNK        -0.5039 
     34 N          21.3269  -26.6721  -39.0129 N.am      5 UNK        -0.4663 
     35 CA         22.7379  -26.4112  -39.3136 C.3       5 UNK         0.0242 
     36 CB         22.9559  -24.8879  -39.3374 C.3       5 UNK        -0.1982 
     37 C          23.1930  -27.0601  -40.6390 C.2       5 UNK         0.5017 
     38 O          24.2848  -26.7547  -41.1203 O.2       5 UNK        -0.5012 
     39 N          22.3539  -27.9284  -41.2216 N.am      6 UNK        -0.4439 
     40 CA         22.5341  -28.6362  -42.4929 C.3       6 UNK         0.0297 
     41 CB         21.1595  -29.1686  -42.9398 C.3       6 UNK        -0.2006 
     42 C          23.5966  -29.7557  -42.4478 C.2       6 UNK         0.4892 
     43 O          23.3215  -30.8745  -42.8846 O.2       6 UNK        -0.5089 
     44 N          24.7912  -29.4384  -41.9296 N.am      7 UNK        -0.4243 
     45 CA         25.9593  -30.3133  -41.7823 C.3       7 UNK         0.0196 
     46 CB         26.6253  -30.5457  -43.1587 C.3       7 UNK        -0.2007 
     47 C          25.6068  -31.6110  -41.0286 C.2       7 UNK         0.5020 
     48 O          25.3813  -31.5617  -39.8189 O.2       7 UNK        -0.5147 
     49 N          25.5226  -32.7320  -41.7576 N.am      8 UNK        -0.4734 
     50 CA         25.1531  -34.0581  -41.2544 C.3       8 UNK         0.0238 
     51 CB         25.3568  -35.0915  -42.3744 C.3       8 UNK        -0.1912 
     52 C          23.7248  -34.1604  -40.6842 C.2       8 UNK         0.5038 
     53 O          23.4766  -35.0742  -39.8955 O.2       8 UNK        -0.5046 
     54 N          22.8270  -33.2430  -41.0691 N.am      9 UNK        -0.4200 
     55 CA         21.4649  -33.1209  -40.5263 C.3       9 UNK         0.0839 
     56 C          21.1993  -31.7465  -39.8473 C.2       9 UNK         0.5513 
     57 N          22.2266  -31.0080  -39.4426 N.am      9 UNK        -0.7519 
     58 O          20.0521  -31.3571  -39.6454 O.2       9 UNK        -0.4960 
     59 C59        20.3807  -33.5847  -41.5384 C.3       10 UNK        -0.0876 
     60 S60        20.2079  -32.5502  -43.0342 S.3       10 UNK        -0.2414 
     61 C61        18.5040  -31.9342  -42.8065 C.3       10 UNK         0.0169 
     62 H62        24.8061  -28.5533  -47.3530 H         1 UNK         0.0903 
     63 H63        25.0193  -27.4063  -46.0272 H         1 UNK         0.0903 
     64 H64        24.2875  -28.9829  -45.7213 H         1 UNK         0.0903 
     65 H65        22.0789  -28.9417  -45.5865 H         1 UNK         0.3096 
     66 H66        19.9697  -28.3491  -45.6054 H         1 UNK         0.1121 
     67 H67        20.5091  -27.5649  -48.4988 H         1 UNK         0.0849 
     68 H68        18.9116  -27.7195  -47.8180 H         1 UNK         0.0849 
     69 H69        17.5734  -29.7663  -48.2754 H         1 UNK         0.0865 
     70 H70        18.1084  -31.3835  -47.9160 H         1 UNK         0.0865 
     71 H71        19.0662  -31.8407  -45.5221 H         1 UNK         0.1346 
     72 H72        16.8031  -29.8656  -42.4580 H         1 UNK         0.1412 
     73 H73        16.5967  -28.4766  -46.5034 H         1 UNK         0.1426 
     74 H74        15.0841  -28.2850  -43.0878 H         1 UNK         0.0716 
     75 H75        14.7655  -28.0126  -44.7754 H         1 UNK         0.0716 
     76 H76        16.0276  -26.7381  -41.5482 H         1 UNK         0.0695 
     77 H77        16.6360  -25.1390  -41.8733 H         1 UNK         0.0695 
     78 H78        18.1879  -27.7412  -42.1577 H         1 UNK         0.0983 
     79 H79        19.7725  -26.7834  -43.2685 H         1 UNK         0.3095 
     80 H80        20.3677  -23.8078  -44.7488 H         1 UNK         0.0454 
     81 H81        22.2776  -24.9361  -42.6271 H         1 UNK         0.0851 
     82 H82        21.7328  -23.2680  -42.7208 H         1 UNK         0.0851 
     83 H83        22.7330  -23.9309  -44.0017 H         1 UNK         0.0851 
     84 H84        21.7732  -26.3462  -44.5688 H         1 UNK         0.2976 
     85 H85        18.4192  -28.5575  -40.2121 H         1 UNK         0.3116 
     86 H86        19.1109  -28.9805  -38.1886 H         1 UNK         0.0646 
     87 H87        18.8132  -26.0239  -37.4390 H         1 UNK         0.0847 
     88 H88        19.0032  -27.3723  -36.3343 H         1 UNK         0.0847 
     89 H89        17.5491  -27.2457  -37.3103 H         1 UNK         0.0847 
     90 H90        20.6473  -26.0082  -39.3800 H         1 UNK         0.3040 
     91 H91        23.3588  -26.8349  -38.5210 H         1 UNK         0.1015 
     92 H92        22.3654  -24.4076  -40.1186 H         1 UNK         0.0786 
     93 H93        24.0029  -24.6398  -39.5179 H         1 UNK         0.0786 
     94 H94        22.6800  -24.4351  -38.3848 H         1 UNK         0.0786 
     95 H95        21.5185  -28.1554  -40.7040 H         1 UNK         0.3172 
     96 H96        22.8784  -27.9158  -43.2371 H         1 UNK         0.0595 
     97 H97        21.2298  -29.7717  -43.8457 H         1 UNK         0.0839 
     98 H98        20.4617  -28.3673  -43.1527 H         1 UNK         0.0839 
     99 H99        20.7121  -29.7995  -42.1717 H         1 UNK         0.0839 
    100 H100       24.8952  -28.4895  -41.5790 H         1 UNK         0.2998 
    101 H101       26.6741  -29.7794  -41.1537 H         1 UNK         0.0822 
    102 H102       27.5023  -31.1888  -43.0697 H         1 UNK         0.0787 
    103 H103       25.9457  -31.0036  -43.8788 H         1 UNK         0.0787 
    104 H104       26.9657  -29.6032  -43.5886 H         1 UNK         0.0787 
    105 H105       25.6758  -32.6539  -42.7528 H         1 UNK         0.3055 
    106 H106       25.8361  -34.2988  -40.4366 H         1 UNK         0.1106 
    107 H107       25.1232  -36.0985  -42.0247 H         1 UNK         0.0828 
    108 H108       24.7143  -34.8880  -43.2321 H         1 UNK         0.0828 
    109 H109       26.3900  -35.1040  -42.7217 H         1 UNK         0.0828 
    110 H110       23.1026  -32.5144  -41.7221 H         1 UNK         0.2931 
    111 H111       21.3730  -33.8082  -39.6840 H         1 UNK         0.0412 
    112 H112       23.1785  -31.3276  -39.5622 H         1 UNK         0.3472 
    113 H113       22.0396  -30.1544  -38.9265 H         1 UNK         0.3472 
    114 H114       19.4169  -33.6606  -41.0321 H         1 UNK         0.0970 
    115 H115       20.6078  -34.6002  -41.8656 H         1 UNK         0.0970 
    116 H116       17.8208  -32.7845  -42.8039 H         1 UNK         0.0612 
    117 H117       18.4387  -31.4778  -41.8180 H         1 UNK         0.0612 
@<TRIPOS>BOND
     1    1    2 1    
     2    1   62 1    
     3    1   63 1    
     4    1   64 1    
     5    2    3 2    
     6    2    4 am   BACKBONE|DICT|INTERRES
     7    4    5 1    
     8    4   65 1    
     9    5    6 1    
    10    5   25 1    
    11    5   66 1    
    12    6    7 1    
    13    6   67 1    
    14    6   68 1    
    15    7    8 1    
    16    8    9 1    
    17    8   69 1    
    18    8   70 1    
    19    9   10 ar   
    20    9   14 ar   
    21   10   11 ar   
    22   10   71 1    
    23   11   12 ar   
    24   11   61 1    
    25   12   13 ar   
    26   12   72 1    
    27   13   14 ar   
    28   13   15 1    
    29   14   73 1    
    30   15   16 1    
    31   15   74 1    
    32   15   75 1    
    33   16   17 1    
    34   17   18 1    
    35   17   76 1    
    36   17   77 1    
    37   18   19 1    
    38   18   27 1    
    39   18   78 1    
    40   19   20 am   BACKBONE|DICT|INTERRES
    41   19   79 1    
    42   20   21 2    
    43   20   22 1    
    44   22   23 1    
    45   22   24 1    
    46   22   80 1    
    47   23   81 1    
    48   23   82 1    
    49   23   83 1    
    50   24   25 am   BACKBONE|DICT|INTERRES
    51   24   84 1    
    52   25   26 2    
    53   27   28 2    
    54   27   29 am   BACKBONE|DICT|INTERRES
    55   29   30 1    
    56   29   85 1    
    57   30   31 1    
    58   30   32 1    
    59   30   86 1    
    60   31   87 1    
    61   31   88 1    
    62   31   89 1    
    63   32   33 2    
    64   32   34 am   BACKBONE|DICT|INTERRES
    65   34   35 1    
    66   34   90 1    
    67   35   36 1    
    68   35   37 1    
    69   35   91 1    
    70   36   92 1    
    71   36   93 1    
    72   36   94 1    
    73   37   38 2    
    74   37   39 am   BACKBONE|DICT|INTERRES
    75   39   40 1    
    76   39   95 1    
    77   40   41 1    
    78   40   42 1    
    79   40   96 1    
    80   41   97 1    
    81   41   98 1    
    82   41   99 1    
    83   42   43 2    
    84   42   44 am   BACKBONE|DICT|INTERRES
    85   44   45 1    
    86   44  100 1    
    87   45   46 1    
    88   45   47 1    
    89   45  101 1    
    90   46  102 1    
    91   46  103 1    
    92   46  104 1    
    93   47   48 2    
    94   47   49 am   BACKBONE|DICT|INTERRES
    95   49   50 1    
    96   49  105 1    
    97   50   51 1    
    98   50   52 1    
    99   50  106 1    
   100   51  107 1    
   101   51  108 1    
   102   51  109 1    
   103   52   53 2    
   104   52   54 am   BACKBONE|DICT|INTERRES
   105   54   55 1    
   106   54  110 1    
   107   55   56 1    
   108   55   59 1    
   109   55  111 1    
   110   56   57 am   BACKBONE|DICT|INTERRES
   111   56   58 2    
   112   57  112 1    
   113   57  113 1    
   114   59   60 1    
   115   59  114 1    
   116   59  115 1    
   117   60   61 1    
   118   61  116 1    
   119   61  117 1    
@<TRIPOS>SUBSTRUCTURE
     1 UNK         1 GROUP             0       ****    0 ROOT    
