@<TRIPOS>MOLECULE
3R8
117   119    1
SMALL
USER_CHARGES


@<TRIPOS>ATOM
      1 CA         16.5486  -25.8669  -49.7306 C.3       0 UNK        -0.2013 
      2 C          16.5544  -25.7615  -48.2128 C.2       0 UNK         0.4866 
      3 O          16.4160  -24.6604  -47.6799 O.2       0 UNK        -0.5176 
      4 N          16.7144  -26.8997  -47.5224 N.am      1 UNK        -0.4884 
      5 CA         16.7509  -27.0405  -46.0585 C.3       1 UNK         0.0853 
      6 C6         15.3801  -26.7778  -45.3730 C.3       10 UNK        -0.0849 
      7 S7         14.2063  -28.1278  -45.7392 S.3       10 UNK        -0.2776 
      8 C8         14.0944  -29.0008  -44.1351 C.3       10 UNK         0.0316 
      9 C9         15.4535  -29.3666  -43.5425 C.ar      10 UNK        -0.0863 
     10 C10        16.3522  -30.1626  -44.2592 C.ar      10 UNK        -0.1009 
     11 C11        17.6122  -30.4580  -43.7323 C.ar      10 UNK        -0.0712 
     12 C12        17.9553  -29.9892  -42.4602 C.ar      10 UNK        -0.0894 
     13 C13        17.0555  -29.2200  -41.7130 C.ar      10 UNK        -0.0745 
     14 C14        15.8098  -28.9079  -42.2690 C.ar      10 UNK        -0.0972 
     15 C15        17.3745  -28.7473  -40.2920 C.3       10 UNK         0.0209 
     16 S16        19.1425  -28.4437  -39.9374 S.3       10 UNK        -0.2568 
     17 C17        19.4734  -26.9802  -40.9707 C.3       10 UNK        -0.0983 
     18 CA         20.8832  -27.0268  -41.6263 C.3       3 UNK         0.0876 
     19 N          20.8706  -26.3898  -42.9410 N.am      3 UNK        -0.4424 
     20 C          20.5868  -27.0205  -44.0807 C.2       2 UNK         0.4918 
     21 O          20.4404  -28.2394  -44.1796 O.2       2 UNK        -0.4875 
     22 CA         20.3991  -26.1410  -45.3276 C.3       2 UNK         0.0481 
     23 CB         21.5568  -26.3412  -46.3183 C.3       2 UNK        -0.1831 
     24 N          19.1311  -26.4877  -45.9717 N.am      2 UNK        -0.4498 
     25 C          17.9262  -26.2701  -45.4214 C.2       1 UNK         0.5027 
     26 O          17.7433  -25.5326  -44.4501 O.2       1 UNK        -0.4969 
     27 C          21.9953  -26.3916  -40.7696 C.2       3 UNK         0.5005 
     28 O          22.9053  -25.7664  -41.3239 O.2       3 UNK        -0.5279 
     29 N          21.9073  -26.5586  -39.4412 N.am      4 UNK        -0.4463 
     30 CA         22.8013  -26.0277  -38.4033 C.3       4 UNK         0.0283 
     31 CB         22.6970  -24.4889  -38.3145 C.3       4 UNK        -0.1875 
     32 C          24.2459  -26.5299  -38.5683 C.2       4 UNK         0.4949 
     33 O          24.5832  -27.5784  -38.0193 O.2       4 UNK        -0.5039 
     34 N          25.0582  -25.7952  -39.3417 N.am      5 UNK        -0.4663 
     35 CA         26.4025  -26.1959  -39.7655 C.3       5 UNK         0.0242 
     36 CB         27.0965  -25.0107  -40.4548 C.3       5 UNK        -0.1982 
     37 C          26.3828  -27.4271  -40.6884 C.2       5 UNK         0.5017 
     38 O          27.2897  -28.2564  -40.6078 O.2       5 UNK        -0.5012 
     39 N          25.3244  -27.5596  -41.5018 N.am      6 UNK        -0.4439 
     40 CA         25.0034  -28.7687  -42.2613 C.3       6 UNK         0.0297 
     41 CB         24.2207  -28.3848  -43.5294 C.3       6 UNK        -0.2006 
     42 C          24.2342  -29.7499  -41.3587 C.2       6 UNK         0.4892 
     43 O          23.0452  -29.9949  -41.5737 O.2       6 UNK        -0.5089 
     44 N          24.9251  -30.2569  -40.3289 N.am      7 UNK        -0.4243 
     45 CA         24.4029  -31.2030  -39.3433 C.3       7 UNK         0.0196 
     46 CB         25.4564  -31.4307  -38.2482 C.3       7 UNK        -0.2007 
     47 C          24.0065  -32.5297  -40.0065 C.2       7 UNK         0.5020 
     48 O          24.7779  -33.0590  -40.8103 O.2       7 UNK        -0.5147 
     49 N          22.7979  -33.0151  -39.6878 N.am      8 UNK        -0.4734 
     50 CA         22.1453  -34.1972  -40.2750 C.3       8 UNK         0.0238 
     51 CB         22.8548  -35.4897  -39.8164 C.3       8 UNK        -0.1912 
     52 C          21.9934  -34.1154  -41.8110 C.2       8 UNK         0.5038 
     53 O          22.0162  -35.1484  -42.4828 O.2       8 UNK        -0.5046 
     54 N          21.8620  -32.8856  -42.3293 N.am      9 UNK        -0.4200 
     55 CA         21.8309  -32.5301  -43.7569 C.3       9 UNK         0.0839 
     56 C          23.1984  -32.6946  -44.4873 C.2       9 UNK         0.5513 
     57 N          24.3155  -32.8743  -43.7903 N.am      9 UNK        -0.7519 
     58 O          23.2571  -32.6276  -45.7124 O.2       9 UNK        -0.4960 
     59 C59        20.6461  -33.1722  -44.5412 C.3       10 UNK        -0.0876 
     60 S60        19.0239  -32.8421  -43.7720 S.3       10 UNK        -0.2414 
     61 C61        18.6244  -31.2474  -44.5474 C.3       10 UNK         0.0169 
     62 H62        17.3567  -25.2689  -50.1512 H         1 UNK         0.0903 
     63 H63        16.6752  -26.8946  -50.0704 H         1 UNK         0.0903 
     64 H64        15.6055  -25.4929  -50.1283 H         1 UNK         0.0903 
     65 H65        16.8113  -27.7658  -48.0349 H         1 UNK         0.3096 
     66 H66        17.0060  -28.0841  -45.8750 H         1 UNK         0.1121 
     67 H67        14.9528  -25.8296  -45.7017 H         1 UNK         0.0849 
     68 H68        15.4821  -26.6950  -44.2897 H         1 UNK         0.0849 
     69 H69        13.5268  -28.3775  -43.4422 H         1 UNK         0.0865 
     70 H70        13.5108  -29.9125  -44.2700 H         1 UNK         0.0865 
     71 H71        16.0801  -30.5221  -45.2424 H         1 UNK         0.1346 
     72 H72        18.9286  -30.2334  -42.0580 H         1 UNK         0.1412 
     73 H73        15.1098  -28.3092  -41.7018 H         1 UNK         0.1426 
     74 H74        16.8214  -27.8339  -40.0670 H         1 UNK         0.0716 
     75 H75        17.0126  -29.5041  -39.5951 H         1 UNK         0.0716 
     76 H76        19.3213  -26.0717  -40.3845 H         1 UNK         0.0695 
     77 H77        18.7064  -26.9484  -41.7469 H         1 UNK         0.0695 
     78 H78        21.1806  -28.0696  -41.7602 H         1 UNK         0.0983 
     79 H79        21.0684  -25.3986  -42.9437 H         1 UNK         0.3095 
     80 H80        20.3668  -25.0891  -45.0356 H         1 UNK         0.0454 
     81 H81        21.4348  -25.7177  -47.2040 H         1 UNK         0.0851 
     82 H82        21.6359  -27.3790  -46.6451 H         1 UNK         0.0851 
     83 H83        22.5099  -26.0721  -45.8610 H         1 UNK         0.0851 
     84 H84        19.1864  -27.1067  -46.7673 H         1 UNK         0.2976 
     85 H85        21.1401  -27.1262  -39.1025 H         1 UNK         0.3116 
     86 H86        22.4426  -26.4304  -37.4546 H         1 UNK         0.0646 
     87 H87        21.6886  -24.1828  -38.0363 H         1 UNK         0.0847 
     88 H88        23.3721  -24.0948  -37.5536 H         1 UNK         0.0847 
     89 H89        22.9395  -23.9945  -39.2554 H         1 UNK         0.0847 
     90 H90        24.6636  -24.9803  -39.7912 H         1 UNK         0.3040 
     91 H91        26.9738  -26.4619  -38.8732 H         1 UNK         0.1015 
     92 H92        26.5575  -24.6892  -41.3470 H         1 UNK         0.0786 
     93 H93        28.1084  -25.2777  -40.7633 H         1 UNK         0.0786 
     94 H94        27.1789  -24.1548  -39.7847 H         1 UNK         0.0786 
     95 H95        24.6015  -26.8461  -41.4622 H         1 UNK         0.3172 
     96 H96        25.9244  -29.2622  -42.5793 H         1 UNK         0.0595 
     97 H97        23.2976  -27.8611  -43.2888 H         1 UNK         0.0839 
     98 H98        23.9509  -29.2711  -44.1056 H         1 UNK         0.0839 
     99 H99        24.8108  -27.7400  -44.1804 H         1 UNK         0.0839 
    100 H100       25.8933  -29.9798  -40.2283 H         1 UNK         0.2998 
    101 H101       23.5206  -30.7488  -38.8871 H         1 UNK         0.0822 
    102 H102       25.0846  -32.1159  -37.4852 H         1 UNK         0.0787 
    103 H103       26.3737  -31.8597  -38.6540 H         1 UNK         0.0787 
    104 H104       25.7140  -30.4966  -37.7476 H         1 UNK         0.0787 
    105 H105       22.2379  -32.4979  -39.0228 H         1 UNK         0.3055 
    106 H106       21.1287  -34.2204  -39.8787 H         1 UNK         0.1106 
    107 H107       22.3011  -36.3747  -40.1324 H         1 UNK         0.0828 
    108 H108       23.8592  -35.5697  -40.2336 H         1 UNK         0.0828 
    109 H109       22.9380  -35.5336  -38.7306 H         1 UNK         0.0828 
    110 H110       21.9077  -32.0951  -41.7002 H         1 UNK         0.2931 
    111 H111       21.6628  -31.4525  -43.7604 H         1 UNK         0.0412 
    112 H112       25.1886  -32.9713  -44.2833 H         1 UNK         0.3472 
    113 H113       24.3016  -32.9357  -42.7780 H         1 UNK         0.3472 
    114 H114       20.7773  -34.2523  -44.6177 H         1 UNK         0.0970 
    115 H115       20.6212  -32.8063  -45.5694 H         1 UNK         0.0970 
    116 H116       19.5316  -30.6513  -44.6447 H         1 UNK         0.0612 
    117 H117       18.2619  -31.4256  -45.5609 H         1 UNK         0.0612 
@<TRIPOS>BOND
     1    1    2 1    
     2    1   62 1    
     3    1   63 1    
     4    1   64 1    
     5    2    3 2    
     6    2    4 am   BACKBONE|DICT|INTERRES
     7    4    5 1    
     8    4   65 1    
     9    5    6 1    
    10    5   25 1    
    11    5   66 1    
    12    6    7 1    
    13    6   67 1    
    14    6   68 1    
    15    7    8 1    
    16    8    9 1    
    17    8   69 1    
    18    8   70 1    
    19    9   10 ar   
    20    9   14 ar   
    21   10   11 ar   
    22   10   71 1    
    23   11   12 ar   
    24   11   61 1    
    25   12   13 ar   
    26   12   72 1    
    27   13   14 ar   
    28   13   15 1    
    29   14   73 1    
    30   15   16 1    
    31   15   74 1    
    32   15   75 1    
    33   16   17 1    
    34   17   18 1    
    35   17   76 1    
    36   17   77 1    
    37   18   19 1    
    38   18   27 1    
    39   18   78 1    
    40   19   20 am   BACKBONE|DICT|INTERRES
    41   19   79 1    
    42   20   21 2    
    43   20   22 1    
    44   22   23 1    
    45   22   24 1    
    46   22   80 1    
    47   23   81 1    
    48   23   82 1    
    49   23   83 1    
    50   24   25 am   BACKBONE|DICT|INTERRES
    51   24   84 1    
    52   25   26 2    
    53   27   28 2    
    54   27   29 am   BACKBONE|DICT|INTERRES
    55   29   30 1    
    56   29   85 1    
    57   30   31 1    
    58   30   32 1    
    59   30   86 1    
    60   31   87 1    
    61   31   88 1    
    62   31   89 1    
    63   32   33 2    
    64   32   34 am   BACKBONE|DICT|INTERRES
    65   34   35 1    
    66   34   90 1    
    67   35   36 1    
    68   35   37 1    
    69   35   91 1    
    70   36   92 1    
    71   36   93 1    
    72   36   94 1    
    73   37   38 2    
    74   37   39 am   BACKBONE|DICT|INTERRES
    75   39   40 1    
    76   39   95 1    
    77   40   41 1    
    78   40   42 1    
    79   40   96 1    
    80   41   97 1    
    81   41   98 1    
    82   41   99 1    
    83   42   43 2    
    84   42   44 am   BACKBONE|DICT|INTERRES
    85   44   45 1    
    86   44  100 1    
    87   45   46 1    
    88   45   47 1    
    89   45  101 1    
    90   46  102 1    
    91   46  103 1    
    92   46  104 1    
    93   47   48 2    
    94   47   49 am   BACKBONE|DICT|INTERRES
    95   49   50 1    
    96   49  105 1    
    97   50   51 1    
    98   50   52 1    
    99   50  106 1    
   100   51  107 1    
   101   51  108 1    
   102   51  109 1    
   103   52   53 2    
   104   52   54 am   BACKBONE|DICT|INTERRES
   105   54   55 1    
   106   54  110 1    
   107   55   56 1    
   108   55   59 1    
   109   55  111 1    
   110   56   57 am   BACKBONE|DICT|INTERRES
   111   56   58 2    
   112   57  112 1    
   113   57  113 1    
   114   59   60 1    
   115   59  114 1    
   116   59  115 1    
   117   60   61 1    
   118   61  116 1    
   119   61  117 1    
@<TRIPOS>SUBSTRUCTURE
     1 UNK         1 GROUP             0       ****    0 ROOT    
