@<TRIPOS>MOLECULE
3R8
117   119    1
SMALL
USER_CHARGES


@<TRIPOS>ATOM
      1 CA         16.3683  -24.5515  -41.8557 C.3       0 UNK        -0.2013 
      2 C          16.4814  -24.4989  -43.3714 C.2       0 UNK         0.4866 
      3 O          16.9656  -23.5076  -43.9187 O.2       0 UNK        -0.5176 
      4 N          16.0454  -25.5634  -44.0555 N.am      1 UNK        -0.4884 
      5 CA         16.0798  -25.7697  -45.5105 C.3       1 UNK         0.0853 
      6 C6         15.0411  -26.8407  -45.9786 C.3       10 UNK        -0.0849 
      7 S7         14.6619  -28.1849  -44.7907 S.3       10 UNK        -0.2776 
      8 C8         15.9124  -29.4532  -45.1891 C.3       10 UNK         0.0316 
      9 C9         16.6892  -29.9167  -43.9595 C.ar      10 UNK        -0.0863 
     10 C10        16.9512  -31.2768  -43.7677 C.ar      10 UNK        -0.1009 
     11 C11        17.6889  -31.7169  -42.6630 C.ar      10 UNK        -0.0712 
     12 C12        18.1531  -30.7786  -41.7329 C.ar      10 UNK        -0.0894 
     13 C13        17.9155  -29.4139  -41.9205 C.ar      10 UNK        -0.0745 
     14 C14        17.1830  -28.9938  -43.0327 C.ar      10 UNK        -0.0972 
     15 C15        18.4970  -28.3894  -40.9522 C.3       10 UNK         0.0209 
     16 S16        19.5268  -27.1276  -41.7819 S.3       10 UNK        -0.2568 
     17 C17        20.6437  -28.1690  -42.7923 C.3       10 UNK        -0.0983 
     18 CA         21.3741  -27.4486  -43.9541 C.3       3 UNK         0.0876 
     19 N          20.5360  -26.4540  -44.6219 N.am      3 UNK        -0.4424 
     20 C          20.7132  -26.0035  -45.8686 C.2       2 UNK         0.4918 
     21 O          21.5851  -26.4328  -46.6269 O.2       2 UNK        -0.4875 
     22 CA         19.7689  -24.8764  -46.3332 C.3       2 UNK         0.0481 
     23 CB         19.7733  -24.6888  -47.8653 C.3       2 UNK        -0.1831 
     24 N          18.3941  -24.9999  -45.8289 N.am      2 UNK        -0.4498 
     25 C          17.5130  -25.9834  -46.0658 C.2       1 UNK         0.5027 
     26 O          17.7898  -26.9961  -46.7089 O.2       1 UNK        -0.4969 
     27 C          22.7194  -26.8343  -43.5267 C.2       3 UNK         0.5005 
     28 O          22.8508  -26.3411  -42.4048 O.2       3 UNK        -0.5279 
     29 N          23.7055  -26.8855  -44.4323 N.am      4 UNK        -0.4463 
     30 CA         25.0699  -26.3893  -44.2301 C.3       4 UNK         0.0283 
     31 CB         25.8524  -26.5149  -45.5469 C.3       4 UNK        -0.1875 
     32 C          25.8332  -27.0821  -43.0856 C.2       4 UNK         0.4949 
     33 O          26.7330  -26.4660  -42.5143 O.2       4 UNK        -0.5039 
     34 N          25.4599  -28.3278  -42.7608 N.am      5 UNK        -0.4663 
     35 CA         26.0161  -29.1047  -41.6522 C.3       5 UNK         0.0242 
     36 CB         26.4369  -30.4870  -42.1795 C.3       5 UNK        -0.1982 
     37 C          25.0345  -29.2066  -40.4675 C.2       5 UNK         0.5017 
     38 O          25.2589  -30.0322  -39.5802 O.2       5 UNK        -0.5012 
     39 N          23.9833  -28.3679  -40.4546 N.am      6 UNK        -0.4439 
     40 CA         22.9758  -28.2069  -39.3994 C.3       6 UNK         0.0297 
     41 CB         23.5876  -27.4615  -38.1921 C.3       6 UNK        -0.2006 
     42 C          22.2908  -29.5354  -39.0286 C.2       6 UNK         0.4892 
     43 O          21.4859  -30.0354  -39.8129 O.2       6 UNK        -0.5089 
     44 N          22.6374  -30.1024  -37.8644 N.am      7 UNK        -0.4243 
     45 CA         22.1389  -31.3884  -37.3657 C.3       7 UNK         0.0196 
     46 CB         22.6635  -31.6109  -35.9381 C.3       7 UNK        -0.2007 
     47 C          22.4888  -32.5923  -38.2617 C.2       7 UNK         0.5020 
     48 O          21.7747  -33.5939  -38.2191 O.2       7 UNK        -0.5147 
     49 N          23.5554  -32.4744  -39.0651 N.am      8 UNK        -0.4734 
     50 CA         23.9441  -33.4562  -40.0814 C.3       8 UNK         0.0238 
     51 CB         25.4778  -33.5617  -40.1169 C.3       8 UNK        -0.1912 
     52 C          23.3427  -33.1519  -41.4703 C.2       8 UNK         0.5038 
     53 O          23.7090  -33.8234  -42.4359 O.2       8 UNK        -0.5046 
     54 N          22.4203  -32.1824  -41.5498 N.am      9 UNK        -0.4200 
     55 CA         21.6348  -31.8125  -42.7352 C.3       9 UNK         0.0839 
     56 C          22.5061  -31.1265  -43.8278 C.2       9 UNK         0.5513 
     57 N          22.3379  -31.4498  -45.1034 N.am      9 UNK        -0.7519 
     58 O          23.2944  -30.2310  -43.5301 O.2       9 UNK        -0.4960 
     59 C59        20.7013  -32.9569  -43.2388 C.3       10 UNK        -0.0876 
     60 S60        19.6346  -33.6234  -41.9099 S.3       10 UNK        -0.2414 
     61 C61        17.9520  -33.2110  -42.4864 C.3       10 UNK         0.0169 
     62 H62        15.7581  -23.7240  -41.4951 H         1 UNK         0.0903 
     63 H63        15.9170  -25.4823  -41.5122 H         1 UNK         0.0903 
     64 H64        17.3570  -24.4697  -41.4045 H         1 UNK         0.0903 
     65 H65        15.6328  -26.3356  -43.5498 H         1 UNK         0.3096 
     66 H66        15.7613  -24.8277  -45.9639 H         1 UNK         0.1121 
     67 H67        14.0913  -26.3304  -46.1464 H         1 UNK         0.0849 
     68 H68        15.2877  -27.2668  -46.9529 H         1 UNK         0.0849 
     69 H69        16.6210  -29.0839  -45.9279 H         1 UNK         0.0865 
     70 H70        15.4007  -30.2952  -45.6576 H         1 UNK         0.0865 
     71 H71        16.5839  -31.9975  -44.4858 H         1 UNK         0.1346 
     72 H72        18.7259  -31.1081  -40.8765 H         1 UNK         0.1412 
     73 H73        17.0224  -27.9380  -43.1864 H         1 UNK         0.1426 
     74 H74        19.1001  -28.8804  -40.1877 H         1 UNK         0.0716 
     75 H75        17.6808  -27.8908  -40.4282 H         1 UNK         0.0716 
     76 H76        20.0592  -28.9700  -43.2413 H         1 UNK         0.0695 
     77 H77        21.3501  -28.6673  -42.1269 H         1 UNK         0.0695 
     78 H78        21.6079  -28.2236  -44.6884 H         1 UNK         0.0983 
     79 H79        19.8099  -26.0465  -44.0506 H         1 UNK         0.3095 
     80 H80        20.1642  -23.9597  -45.8937 H         1 UNK         0.0454 
     81 H81        19.1236  -23.8676  -48.1674 H         1 UNK         0.0851 
     82 H82        19.4416  -25.5886  -48.3844 H         1 UNK         0.0851 
     83 H83        20.7750  -24.4562  -48.2289 H         1 UNK         0.0851 
     84 H84        18.0645  -24.2370  -45.2397 H         1 UNK         0.2976 
     85 H85        23.4930  -27.2640  -45.3461 H         1 UNK         0.3116 
     86 H86        24.9970  -25.3298  -43.9758 H         1 UNK         0.0646 
     87 H87        26.8646  -26.1227  -45.4385 H         1 UNK         0.0847 
     88 H88        25.3744  -25.9531  -46.3497 H         1 UNK         0.0847 
     89 H89        25.9390  -27.5540  -45.8674 H         1 UNK         0.0847 
     90 H90        24.6985  -28.7720  -43.2670 H         1 UNK         0.3040 
     91 H91        26.9126  -28.6160  -41.2648 H         1 UNK         0.1015 
     92 H92        27.0292  -30.4022  -43.0907 H         1 UNK         0.0786 
     93 H93        25.5763  -31.1199  -42.3976 H         1 UNK         0.0786 
     94 H94        27.0574  -31.0039  -41.4480 H         1 UNK         0.0786 
     95 H95        23.8659  -27.7443  -41.2468 H         1 UNK         0.3172 
     96 H96        22.1941  -27.5700  -39.8169 H         1 UNK         0.0595 
     97 H97        24.4413  -27.9890  -37.7653 H         1 UNK         0.0839 
     98 H98        22.8508  -27.3191  -37.4002 H         1 UNK         0.0839 
     99 H99        23.9322  -26.4696  -38.4850 H         1 UNK         0.0839 
    100 H100       23.3345  -29.6378  -37.3010 H         1 UNK         0.2998 
    101 H101       21.0494  -31.3237  -37.3258 H         1 UNK         0.0822 
    102 H102       23.7530  -31.6590  -35.9121 H         1 UNK         0.0787 
    103 H103       22.3449  -30.8123  -35.2678 H         1 UNK         0.0787 
    104 H104       22.2861  -32.5476  -35.5250 H         1 UNK         0.0787 
    105 H105       24.0855  -31.6069  -39.0526 H         1 UNK         0.3055 
    106 H106       23.5601  -34.4401  -39.8025 H         1 UNK         0.1106 
    107 H107       25.8149  -34.2556  -40.8880 H         1 UNK         0.0828 
    108 H108       25.9416  -32.5985  -40.3139 H         1 UNK         0.0828 
    109 H109       25.8668  -33.9257  -39.1659 H         1 UNK         0.0828 
    110 H110       22.2024  -31.6416  -40.7198 H         1 UNK         0.2931 
    111 H111       20.9749  -31.0217  -42.3833 H         1 UNK         0.0412 
    112 H112       21.6917  -32.1697  -45.3829 H         1 UNK         0.3472 
    113 H113       22.8972  -30.9847  -45.8005 H         1 UNK         0.3472 
    114 H114       20.0654  -32.5986  -44.0499 H         1 UNK         0.0970 
    115 H115       21.2879  -33.7794  -43.6508 H         1 UNK         0.0970 
    116 H116       17.7735  -33.7449  -43.4212 H         1 UNK         0.0612 
    117 H117       17.2342  -33.6040  -41.7656 H         1 UNK         0.0612 
@<TRIPOS>BOND
     1    1    2 1    
     2    1   62 1    
     3    1   63 1    
     4    1   64 1    
     5    2    3 2    
     6    2    4 am   BACKBONE|DICT|INTERRES
     7    4    5 1    
     8    4   65 1    
     9    5    6 1    
    10    5   25 1    
    11    5   66 1    
    12    6    7 1    
    13    6   67 1    
    14    6   68 1    
    15    7    8 1    
    16    8    9 1    
    17    8   69 1    
    18    8   70 1    
    19    9   10 ar   
    20    9   14 ar   
    21   10   11 ar   
    22   10   71 1    
    23   11   12 ar   
    24   11   61 1    
    25   12   13 ar   
    26   12   72 1    
    27   13   14 ar   
    28   13   15 1    
    29   14   73 1    
    30   15   16 1    
    31   15   74 1    
    32   15   75 1    
    33   16   17 1    
    34   17   18 1    
    35   17   76 1    
    36   17   77 1    
    37   18   19 1    
    38   18   27 1    
    39   18   78 1    
    40   19   20 am   BACKBONE|DICT|INTERRES
    41   19   79 1    
    42   20   21 2    
    43   20   22 1    
    44   22   23 1    
    45   22   24 1    
    46   22   80 1    
    47   23   81 1    
    48   23   82 1    
    49   23   83 1    
    50   24   25 am   BACKBONE|DICT|INTERRES
    51   24   84 1    
    52   25   26 2    
    53   27   28 2    
    54   27   29 am   BACKBONE|DICT|INTERRES
    55   29   30 1    
    56   29   85 1    
    57   30   31 1    
    58   30   32 1    
    59   30   86 1    
    60   31   87 1    
    61   31   88 1    
    62   31   89 1    
    63   32   33 2    
    64   32   34 am   BACKBONE|DICT|INTERRES
    65   34   35 1    
    66   34   90 1    
    67   35   36 1    
    68   35   37 1    
    69   35   91 1    
    70   36   92 1    
    71   36   93 1    
    72   36   94 1    
    73   37   38 2    
    74   37   39 am   BACKBONE|DICT|INTERRES
    75   39   40 1    
    76   39   95 1    
    77   40   41 1    
    78   40   42 1    
    79   40   96 1    
    80   41   97 1    
    81   41   98 1    
    82   41   99 1    
    83   42   43 2    
    84   42   44 am   BACKBONE|DICT|INTERRES
    85   44   45 1    
    86   44  100 1    
    87   45   46 1    
    88   45   47 1    
    89   45  101 1    
    90   46  102 1    
    91   46  103 1    
    92   46  104 1    
    93   47   48 2    
    94   47   49 am   BACKBONE|DICT|INTERRES
    95   49   50 1    
    96   49  105 1    
    97   50   51 1    
    98   50   52 1    
    99   50  106 1    
   100   51  107 1    
   101   51  108 1    
   102   51  109 1    
   103   52   53 2    
   104   52   54 am   BACKBONE|DICT|INTERRES
   105   54   55 1    
   106   54  110 1    
   107   55   56 1    
   108   55   59 1    
   109   55  111 1    
   110   56   57 am   BACKBONE|DICT|INTERRES
   111   56   58 2    
   112   57  112 1    
   113   57  113 1    
   114   59   60 1    
   115   59  114 1    
   116   59  115 1    
   117   60   61 1    
   118   61  116 1    
   119   61  117 1    
@<TRIPOS>SUBSTRUCTURE
     1 UNK         1 GROUP             0       ****    0 ROOT    
