@<TRIPOS>MOLECULE
3R8
117   119    1
SMALL
USER_CHARGES


@<TRIPOS>ATOM
      1 CA         14.5872  -24.6802  -47.6027 C.3       0 UNK        -0.2013 
      2 C          15.8949  -25.0680  -46.9299 C.2       0 UNK         0.4866 
      3 O          16.8448  -25.4557  -47.6105 O.2       0 UNK        -0.5176 
      4 N          15.9647  -24.9490  -45.5981 N.am      1 UNK        -0.4884 
      5 CA         17.1095  -25.3139  -44.7496 C.3       1 UNK         0.0853 
      6 C6         16.6589  -25.5861  -43.2896 C.3       10 UNK        -0.0849 
      7 S7         15.6489  -27.1000  -43.1524 S.3       10 UNK        -0.2776 
      8 C8         16.4541  -27.9552  -41.7535 C.3       10 UNK         0.0316 
      9 C9         17.5613  -28.9245  -42.1664 C.ar      10 UNK        -0.0863 
     10 C10        17.5622  -30.2203  -41.6405 C.ar      10 UNK        -0.1009 
     11 C11        18.5917  -31.1127  -41.9457 C.ar      10 UNK        -0.0712 
     12 C12        19.6149  -30.7170  -42.8100 C.ar      10 UNK        -0.0894 
     13 C13        19.6394  -29.4246  -43.3407 C.ar      10 UNK        -0.0745 
     14 C14        18.6118  -28.5317  -43.0062 C.ar      10 UNK        -0.0972 
     15 C15        20.8364  -28.9943  -44.1855 C.3       10 UNK         0.0209 
     16 S16        20.4091  -27.8859  -45.5631 S.3       10 UNK        -0.2568 
     17 C17        22.0607  -27.2118  -45.9729 C.3       10 UNK        -0.0983 
     18 CA         22.2663  -25.7421  -45.5194 C.3       3 UNK         0.0876 
     19 N          21.1585  -24.9006  -45.9708 N.am      3 UNK        -0.4424 
     20 C          21.1148  -23.5632  -45.9852 C.2       2 UNK         0.4918 
     21 O          22.0746  -22.8389  -45.7234 O.2       2 UNK        -0.4875 
     22 CA         19.7461  -22.9338  -46.3155 C.3       2 UNK         0.0481 
     23 CB         19.6934  -22.5019  -47.7891 C.3       2 UNK        -0.1831 
     24 N          18.6104  -23.8234  -46.0315 N.am      2 UNK        -0.4498 
     25 C          18.2715  -24.2924  -44.8218 C.2       1 UNK         0.5027 
     26 O          18.8798  -23.9797  -43.7966 O.2       1 UNK        -0.4969 
     27 C          22.5482  -25.6362  -44.0001 C.2       3 UNK         0.5005 
     28 O          23.6702  -25.9360  -43.5924 O.2       3 UNK        -0.5279 
     29 N          21.5555  -25.2009  -43.2016 N.am      4 UNK        -0.4463 
     30 CA         21.6213  -24.9345  -41.7572 C.3       4 UNK         0.0283 
     31 CB         22.4800  -23.6813  -41.4867 C.3       4 UNK        -0.1875 
     32 C          22.0690  -26.1538  -40.9260 C.2       4 UNK         0.4949 
     33 O          23.0685  -26.0835  -40.2077 O.2       4 UNK        -0.5039 
     34 N          21.3246  -27.2610  -41.0612 N.am      5 UNK        -0.4663 
     35 CA         21.5148  -28.5850  -40.4422 C.3       5 UNK         0.0242 
     36 CB         21.4745  -28.5151  -38.9034 C.3       5 UNK        -0.1982 
     37 C          22.7624  -29.3400  -40.9356 C.2       5 UNK         0.5017 
     38 O          22.6513  -30.5046  -41.3202 O.2       5 UNK        -0.5012 
     39 N          23.9261  -28.6749  -40.9031 N.am      6 UNK        -0.4439 
     40 CA         25.2479  -29.1160  -41.3783 C.3       6 UNK         0.0297 
     41 CB         25.2329  -29.2370  -42.9173 C.3       6 UNK        -0.2006 
     42 C          25.7933  -30.4049  -40.7231 C.2       6 UNK         0.4892 
     43 O          26.7660  -30.9670  -41.2286 O.2       6 UNK        -0.5089 
     44 N          25.1437  -30.8685  -39.6428 N.am      7 UNK        -0.4243 
     45 CA         25.2810  -32.1903  -39.0147 C.3       7 UNK         0.0196 
     46 CB         26.6635  -32.3453  -38.3457 C.3       7 UNK        -0.2007 
     47 C          24.9458  -33.3562  -39.9741 C.2       7 UNK         0.5020 
     48 O          25.4288  -34.4710  -39.7714 O.2       7 UNK        -0.5147 
     49 N          24.1314  -33.0853  -41.0049 N.am      8 UNK        -0.4734 
     50 CA         23.7809  -34.0369  -42.0628 C.3       8 UNK         0.0238 
     51 CB         23.5463  -33.2519  -43.3649 C.3       8 UNK        -0.1912 
     52 C          22.5476  -34.8904  -41.7249 C.2       8 UNK         0.5038 
     53 O          22.3140  -35.8951  -42.3985 O.2       8 UNK        -0.5046 
     54 N          21.7677  -34.4622  -40.7256 N.am      9 UNK        -0.4200 
     55 CA         20.5084  -35.0843  -40.2964 C.3       9 UNK         0.0839 
     56 C          20.6992  -36.5080  -39.7067 C.2       9 UNK         0.5513 
     57 N          19.7457  -37.4030  -39.9264 N.am      9 UNK        -0.7519 
     58 O          21.6751  -36.7916  -39.0151 O.2       9 UNK        -0.4960 
     59 C59        19.7257  -34.1805  -39.3041 C.3       10 UNK        -0.0876 
     60 S60        19.6464  -32.4202  -39.7852 S.3       10 UNK        -0.2414 
     61 C61        18.6357  -32.4844  -41.2961 C.3       10 UNK         0.0169 
     62 H62        14.1820  -25.5303  -48.1509 H         1 UNK         0.0903 
     63 H63        13.8382  -24.3538  -46.8814 H         1 UNK         0.0903 
     64 H64        14.7552  -23.8677  -48.3092 H         1 UNK         0.0903 
     65 H65        15.1556  -24.6077  -45.0979 H         1 UNK         0.3096 
     66 H66        17.5262  -26.2443  -45.1429 H         1 UNK         0.1121 
     67 H67        17.5151  -25.6865  -42.6213 H         1 UNK         0.0849 
     68 H68        16.0851  -24.7426  -42.9014 H         1 UNK         0.0849 
     69 H69        16.8520  -27.2317  -41.0409 H         1 UNK         0.0865 
     70 H70        15.6721  -28.4937  -41.2157 H         1 UNK         0.0865 
     71 H71        16.7781  -30.5290  -40.9624 H         1 UNK         0.1346 
     72 H72        20.4242  -31.4023  -43.0231 H         1 UNK         0.1412 
     73 H73        18.6411  -27.5250  -43.3910 H         1 UNK         0.1426 
     74 H74        21.3466  -29.8670  -44.5966 H         1 UNK         0.0716 
     75 H75        21.5568  -28.4973  -43.5373 H         1 UNK         0.0716 
     76 H76        22.1668  -27.2657  -47.0575 H         1 UNK         0.0695 
     77 H77        22.8453  -27.8600  -45.5770 H         1 UNK         0.0695 
     78 H78        23.1669  -25.3703  -46.0132 H         1 UNK         0.0983 
     79 H79        20.3223  -25.4034  -46.2306 H         1 UNK         0.3095 
     80 H80        19.6357  -22.0440  -45.6925 H         1 UNK         0.0454 
     81 H81        20.5116  -21.8203  -48.0261 H         1 UNK         0.0851 
     82 H82        18.7638  -21.9803  -48.0169 H         1 UNK         0.0851 
     83 H83        19.7738  -23.3553  -48.4636 H         1 UNK         0.0851 
     84 H84        18.0792  -24.1720  -46.8250 H         1 UNK         0.2976 
     85 H85        20.6747  -24.9468  -43.6358 H         1 UNK         0.3116 
     86 H86        20.6024  -24.7045  -41.4415 H         1 UNK         0.0646 
     87 H87        23.5222  -23.8353  -41.7686 H         1 UNK         0.0847 
     88 H88        22.1075  -22.8193  -42.0403 H         1 UNK         0.0847 
     89 H89        22.4651  -23.4181  -40.4284 H         1 UNK         0.0847 
     90 H90        20.5448  -27.2086  -41.7010 H         1 UNK         0.3040 
     91 H91        20.6543  -29.1823  -40.7430 H         1 UNK         0.1015 
     92 H92        21.5058  -29.5163  -38.4711 H         1 UNK         0.0786 
     93 H93        20.5559  -28.0433  -38.5548 H         1 UNK         0.0786 
     94 H94        22.3152  -27.9574  -38.4903 H         1 UNK         0.0786 
     95 H95        23.8741  -27.7132  -40.5689 H         1 UNK         0.3172 
     96 H96        25.9452  -28.3208  -41.1117 H         1 UNK         0.0595 
     97 H97        24.5883  -30.0502  -43.2522 H         1 UNK         0.0839 
     98 H98        26.2319  -29.4314  -43.3092 H         1 UNK         0.0839 
     99 H99        24.8805  -28.3179  -43.3842 H         1 UNK         0.0839 
    100 H100       24.3647  -30.3143  -39.3166 H         1 UNK         0.2998 
    101 H101       24.5284  -32.2295  -38.2258 H         1 UNK         0.0822 
    102 H102       26.7100  -33.2578  -37.7502 H         1 UNK         0.0787 
    103 H103       26.8759  -31.5123  -37.6757 H         1 UNK         0.0787 
    104 H104       27.4667  -32.3981  -39.0812 H         1 UNK         0.0787 
    105 H105       23.7469  -32.1479  -41.0957 H         1 UNK         0.3055 
    106 H106       24.6158  -34.7229  -42.2235 H         1 UNK         0.1106 
    107 H107       24.4346  -32.6893  -43.6527 H         1 UNK         0.0828 
    108 H108       23.3074  -33.9235  -44.1907 H         1 UNK         0.0828 
    109 H109       22.7203  -32.5462  -43.2678 H         1 UNK         0.0828 
    110 H110       22.0386  -33.6240  -40.2344 H         1 UNK         0.2931 
    111 H111       19.9013  -35.1910  -41.1970 H         1 UNK         0.0412 
    112 H112       19.8427  -38.3282  -39.5370 H         1 UNK         0.3472 
    113 H113       18.9357  -37.1777  -40.4834 H         1 UNK         0.3472 
    114 H114       18.7075  -34.5521  -39.1749 H         1 UNK         0.0970 
    115 H115       20.1861  -34.2195  -38.3148 H         1 UNK         0.0970 
    116 H116       19.0557  -33.2045  -41.9987 H         1 UNK         0.0612 
    117 H117       17.6302  -32.8301  -41.0514 H         1 UNK         0.0612 
@<TRIPOS>BOND
     1    1    2 1    
     2    1   62 1    
     3    1   63 1    
     4    1   64 1    
     5    2    3 2    
     6    2    4 am   BACKBONE|DICT|INTERRES
     7    4    5 1    
     8    4   65 1    
     9    5    6 1    
    10    5   25 1    
    11    5   66 1    
    12    6    7 1    
    13    6   67 1    
    14    6   68 1    
    15    7    8 1    
    16    8    9 1    
    17    8   69 1    
    18    8   70 1    
    19    9   10 ar   
    20    9   14 ar   
    21   10   11 ar   
    22   10   71 1    
    23   11   12 ar   
    24   11   61 1    
    25   12   13 ar   
    26   12   72 1    
    27   13   14 ar   
    28   13   15 1    
    29   14   73 1    
    30   15   16 1    
    31   15   74 1    
    32   15   75 1    
    33   16   17 1    
    34   17   18 1    
    35   17   76 1    
    36   17   77 1    
    37   18   19 1    
    38   18   27 1    
    39   18   78 1    
    40   19   20 am   BACKBONE|DICT|INTERRES
    41   19   79 1    
    42   20   21 2    
    43   20   22 1    
    44   22   23 1    
    45   22   24 1    
    46   22   80 1    
    47   23   81 1    
    48   23   82 1    
    49   23   83 1    
    50   24   25 am   BACKBONE|DICT|INTERRES
    51   24   84 1    
    52   25   26 2    
    53   27   28 2    
    54   27   29 am   BACKBONE|DICT|INTERRES
    55   29   30 1    
    56   29   85 1    
    57   30   31 1    
    58   30   32 1    
    59   30   86 1    
    60   31   87 1    
    61   31   88 1    
    62   31   89 1    
    63   32   33 2    
    64   32   34 am   BACKBONE|DICT|INTERRES
    65   34   35 1    
    66   34   90 1    
    67   35   36 1    
    68   35   37 1    
    69   35   91 1    
    70   36   92 1    
    71   36   93 1    
    72   36   94 1    
    73   37   38 2    
    74   37   39 am   BACKBONE|DICT|INTERRES
    75   39   40 1    
    76   39   95 1    
    77   40   41 1    
    78   40   42 1    
    79   40   96 1    
    80   41   97 1    
    81   41   98 1    
    82   41   99 1    
    83   42   43 2    
    84   42   44 am   BACKBONE|DICT|INTERRES
    85   44   45 1    
    86   44  100 1    
    87   45   46 1    
    88   45   47 1    
    89   45  101 1    
    90   46  102 1    
    91   46  103 1    
    92   46  104 1    
    93   47   48 2    
    94   47   49 am   BACKBONE|DICT|INTERRES
    95   49   50 1    
    96   49  105 1    
    97   50   51 1    
    98   50   52 1    
    99   50  106 1    
   100   51  107 1    
   101   51  108 1    
   102   51  109 1    
   103   52   53 2    
   104   52   54 am   BACKBONE|DICT|INTERRES
   105   54   55 1    
   106   54  110 1    
   107   55   56 1    
   108   55   59 1    
   109   55  111 1    
   110   56   57 am   BACKBONE|DICT|INTERRES
   111   56   58 2    
   112   57  112 1    
   113   57  113 1    
   114   59   60 1    
   115   59  114 1    
   116   59  115 1    
   117   60   61 1    
   118   61  116 1    
   119   61  117 1    
@<TRIPOS>SUBSTRUCTURE
     1 UNK         1 GROUP             0       ****    0 ROOT    
