@<TRIPOS>MOLECULE
3R8
117   119    1
SMALL
USER_CHARGES


@<TRIPOS>ATOM
      1 CA         13.1095  -25.5784  -43.4907 C.3       0 UNK        -0.2013 
      2 C          14.2587  -26.4742  -43.0520 C.2       0 UNK         0.4866 
      3 O          14.1929  -27.0606  -41.9710 O.2       0 UNK        -0.5176 
      4 N          15.3024  -26.5802  -43.8866 N.am      1 UNK        -0.4884 
      5 CA         16.5286  -27.3636  -43.6622 C.3       1 UNK         0.0853 
      6 C6         16.2754  -28.8963  -43.5952 C.3       10 UNK        -0.0849 
      7 S7         15.5125  -29.5023  -45.1425 S.3       10 UNK        -0.2776 
      8 C8         16.5485  -30.9406  -45.5880 C.3       10 UNK         0.0316 
      9 C9         18.0507  -30.6677  -45.6608 C.ar      10 UNK        -0.0863 
     10 C10        18.9373  -31.6759  -45.2747 C.ar      10 UNK        -0.1009 
     11 C11        20.3187  -31.4758  -45.3232 C.ar      10 UNK        -0.0712 
     12 C12        20.8186  -30.2434  -45.7614 C.ar      10 UNK        -0.0894 
     13 C13        19.9454  -29.2332  -46.1821 C.ar      10 UNK        -0.0745 
     14 C14        18.5651  -29.4549  -46.1341 C.ar      10 UNK        -0.0972 
     15 C15        20.4788  -27.9292  -46.7631 C.3       10 UNK         0.0209 
     16 S16        20.1650  -26.4967  -45.6813 S.3       10 UNK        -0.2568 
     17 C17        21.7607  -26.3230  -44.8124 C.3       10 UNK        -0.0983 
     18 CA         21.6024  -25.6995  -43.4008 C.3       3 UNK         0.0876 
     19 N          20.6872  -26.4996  -42.5849 N.am      3 UNK        -0.4424 
     20 C          20.2070  -26.1962  -41.3731 C.2       2 UNK         0.4918 
     21 O          20.4954  -25.1758  -40.7448 O.2       2 UNK        -0.4875 
     22 CA         19.1822  -27.2051  -40.8126 C.3       2 UNK         0.0481 
     23 CB         18.4929  -26.7222  -39.5195 C.3       2 UNK        -0.1831 
     24 N          18.1926  -27.6038  -41.8271 N.am      2 UNK        -0.4498 
     25 C          17.3629  -26.7807  -42.4948 C.2       1 UNK         0.5027 
     26 O          17.2824  -25.5714  -42.2591 O.2       1 UNK        -0.4969 
     27 C          22.9834  -25.5179  -42.7348 C.2       3 UNK         0.5005 
     28 O          23.3599  -26.2998  -41.8599 O.2       3 UNK        -0.5279 
     29 N          23.7585  -24.5321  -43.2097 N.am      4 UNK        -0.4463 
     30 CA         25.1176  -24.2327  -42.7322 C.3       4 UNK         0.0283 
     31 CB         25.6438  -22.9805  -43.4524 C.3       4 UNK        -0.1875 
     32 C          26.1220  -25.3953  -42.8788 C.2       4 UNK         0.4949 
     33 O          27.0871  -25.4552  -42.1168 O.2       4 UNK        -0.5039 
     34 N          25.8695  -26.2946  -43.8386 N.am      5 UNK        -0.4663 
     35 CA         26.6478  -27.5088  -44.0905 C.3       5 UNK         0.0242 
     36 CB         26.9970  -27.5556  -45.5896 C.3       5 UNK        -0.1982 
     37 C          25.9095  -28.7920  -43.6577 C.2       5 UNK         0.5017 
     38 O          26.4115  -29.8813  -43.9405 O.2       5 UNK        -0.5012 
     39 N          24.7373  -28.6742  -43.0134 N.am      6 UNK        -0.4439 
     40 CA         23.9393  -29.8177  -42.5650 C.3       6 UNK         0.0297 
     41 CB         22.4927  -29.3727  -42.2869 C.3       6 UNK        -0.2006 
     42 C          24.5297  -30.4538  -41.3006 C.2       6 UNK         0.4892 
     43 O          24.9456  -29.7361  -40.3887 O.2       6 UNK        -0.5089 
     44 N          24.4593  -31.7874  -41.2237 N.am      7 UNK        -0.4243 
     45 CA         24.7553  -32.5767  -40.0246 C.3       7 UNK         0.0196 
     46 CB         25.3378  -33.9359  -40.4554 C.3       7 UNK        -0.2007 
     47 C          23.4835  -32.7184  -39.1655 C.2       7 UNK         0.5020 
     48 O          23.0669  -33.8351  -38.8571 O.2       7 UNK        -0.5147 
     49 N          22.8496  -31.5741  -38.8636 N.am      8 UNK        -0.4734 
     50 CA         21.5376  -31.4016  -38.2156 C.3       8 UNK         0.0238 
     51 CB         21.5505  -31.9628  -36.7777 C.3       8 UNK        -0.1912 
     52 C          20.3403  -31.9341  -39.0366 C.2       8 UNK         0.5038 
     53 O          19.2267  -31.9867  -38.5120 O.2       8 UNK        -0.5046 
     54 N          20.5804  -32.3097  -40.2985 N.am      9 UNK        -0.4200 
     55 CA         19.5851  -32.7772  -41.2686 C.3       9 UNK         0.0839 
     56 C          18.6134  -31.6609  -41.7378 C.2       9 UNK         0.5513 
     57 N          17.3923  -32.0321  -42.1000 N.am      9 UNK        -0.7519 
     58 O          18.9516  -30.4799  -41.7929 O.2       9 UNK        -0.4960 
     59 C59        20.2526  -33.5363  -42.4507 C.3       10 UNK        -0.0876 
     60 S60        21.6864  -32.6856  -43.2061 S.3       10 UNK        -0.2414 
     61 C61        21.2643  -32.6184  -44.9746 C.3       10 UNK         0.0169 
     62 H62        13.2897  -25.1306  -44.4679 H         1 UNK         0.0903 
     63 H63        12.1861  -26.1543  -43.5476 H         1 UNK         0.0903 
     64 H64        12.9656  -24.7735  -42.7704 H         1 UNK         0.0903 
     65 H65        15.2929  -26.0480  -44.7455 H         1 UNK         0.3096 
     66 H66        17.1508  -27.1838  -44.5406 H         1 UNK         0.1121 
     67 H67        17.2104  -29.4319  -43.4449 H         1 UNK         0.0849 
     68 H68        15.6326  -29.1552  -42.7528 H         1 UNK         0.0849 
     69 H69        16.3456  -31.7348  -44.8679 H         1 UNK         0.0865 
     70 H70        16.2193  -31.3178  -46.5569 H         1 UNK         0.0865 
     71 H71        18.5479  -32.6288  -44.9459 H         1 UNK         0.1346 
     72 H72        21.8875  -30.0878  -45.8130 H         1 UNK         0.1412 
     73 H73        17.8924  -28.6800  -46.4745 H         1 UNK         0.1426 
     74 H74        19.9879  -27.7487  -47.7205 H         1 UNK         0.0716 
     75 H75        21.5443  -28.0044  -46.9858 H         1 UNK         0.0716 
     76 H76        22.4056  -25.7054  -45.4401 H         1 UNK         0.0695 
     77 H77        22.2426  -27.3001  -44.7501 H         1 UNK         0.0695 
     78 H78        21.1558  -24.7079  -43.5015 H         1 UNK         0.0983 
     79 H79        20.3633  -27.3518  -43.0162 H         1 UNK         0.3095 
     80 H80        19.7465  -28.1053  -40.5646 H         1 UNK         0.0454 
     81 H81        19.2264  -26.5360  -38.7342 H         1 UNK         0.0851 
     82 H82        17.7954  -27.4690  -39.1405 H         1 UNK         0.0851 
     83 H83        17.9410  -25.7945  -39.6729 H         1 UNK         0.0851 
     84 H84        18.2195  -28.5907  -42.0662 H         1 UNK         0.2976 
     85 H85        23.3960  -23.9329  -43.9384 H         1 UNK         0.3116 
     86 H86        25.0443  -24.0062  -41.6664 H         1 UNK         0.0646 
     87 H87        25.0018  -22.1178  -43.2735 H         1 UNK         0.0847 
     88 H88        25.7128  -23.1327  -44.5302 H         1 UNK         0.0847 
     89 H89        26.6411  -22.7164  -43.0975 H         1 UNK         0.0847 
     90 H90        25.0562  -26.1528  -44.4196 H         1 UNK         0.3040 
     91 H91        27.5829  -27.4832  -43.5264 H         1 UNK         0.1015 
     92 H92        27.6308  -28.4129  -45.8209 H         1 UNK         0.0786 
     93 H93        27.5425  -26.6631  -45.8968 H         1 UNK         0.0786 
     94 H94        26.1035  -27.6334  -46.2103 H         1 UNK         0.0786 
     95 H95        24.4266  -27.7587  -42.7020 H         1 UNK         0.3172 
     96 H96        23.9195  -30.5616  -43.3645 H         1 UNK         0.0595 
     97 H97        21.8798  -30.1964  -41.9256 H         1 UNK         0.0839 
     98 H98        22.0117  -28.9955  -43.1869 H         1 UNK         0.0839 
     99 H99        22.4453  -28.6051  -41.5160 H         1 UNK         0.0839 
    100 H100       24.0668  -32.2944  -42.0058 H         1 UNK         0.2998 
    101 H101       25.5067  -32.0665  -39.4179 H         1 UNK         0.0822 
    102 H102       26.2458  -33.8081  -41.0451 H         1 UNK         0.0787 
    103 H103       25.6000  -34.5418  -39.5870 H         1 UNK         0.0787 
    104 H104       24.6279  -34.5098  -41.0528 H         1 UNK         0.0787 
    105 H105       23.2990  -30.7168  -39.1655 H         1 UNK         0.3055 
    106 H106       21.3805  -30.3241  -38.1429 H         1 UNK         0.1106 
    107 H107       22.3867  -31.5647  -36.2031 H         1 UNK         0.0828 
    108 H108       20.6377  -31.6946  -36.2443 H         1 UNK         0.0828 
    109 H109       21.6218  -33.0506  -36.7659 H         1 UNK         0.0828 
    110 H110       21.5197  -32.2212  -40.6523 H         1 UNK         0.2931 
    111 H111       18.9727  -33.5095  -40.7380 H         1 UNK         0.0412 
    112 H112       17.1046  -32.9964  -42.0425 H         1 UNK         0.3472 
    113 H113       16.7348  -31.3335  -42.4014 H         1 UNK         0.3472 
    114 H114       20.6195  -34.4958  -42.0832 H         1 UNK         0.0970 
    115 H115       19.5171  -33.7941  -43.2129 H         1 UNK         0.0970 
    116 H116       20.8387  -33.5735  -45.2862 H         1 UNK         0.0612 
    117 H117       22.1904  -32.5073  -45.5405 H         1 UNK         0.0612 
@<TRIPOS>BOND
     1    1    2 1    
     2    1   62 1    
     3    1   63 1    
     4    1   64 1    
     5    2    3 2    
     6    2    4 am   BACKBONE|DICT|INTERRES
     7    4    5 1    
     8    4   65 1    
     9    5    6 1    
    10    5   25 1    
    11    5   66 1    
    12    6    7 1    
    13    6   67 1    
    14    6   68 1    
    15    7    8 1    
    16    8    9 1    
    17    8   69 1    
    18    8   70 1    
    19    9   10 ar   
    20    9   14 ar   
    21   10   11 ar   
    22   10   71 1    
    23   11   12 ar   
    24   11   61 1    
    25   12   13 ar   
    26   12   72 1    
    27   13   14 ar   
    28   13   15 1    
    29   14   73 1    
    30   15   16 1    
    31   15   74 1    
    32   15   75 1    
    33   16   17 1    
    34   17   18 1    
    35   17   76 1    
    36   17   77 1    
    37   18   19 1    
    38   18   27 1    
    39   18   78 1    
    40   19   20 am   BACKBONE|DICT|INTERRES
    41   19   79 1    
    42   20   21 2    
    43   20   22 1    
    44   22   23 1    
    45   22   24 1    
    46   22   80 1    
    47   23   81 1    
    48   23   82 1    
    49   23   83 1    
    50   24   25 am   BACKBONE|DICT|INTERRES
    51   24   84 1    
    52   25   26 2    
    53   27   28 2    
    54   27   29 am   BACKBONE|DICT|INTERRES
    55   29   30 1    
    56   29   85 1    
    57   30   31 1    
    58   30   32 1    
    59   30   86 1    
    60   31   87 1    
    61   31   88 1    
    62   31   89 1    
    63   32   33 2    
    64   32   34 am   BACKBONE|DICT|INTERRES
    65   34   35 1    
    66   34   90 1    
    67   35   36 1    
    68   35   37 1    
    69   35   91 1    
    70   36   92 1    
    71   36   93 1    
    72   36   94 1    
    73   37   38 2    
    74   37   39 am   BACKBONE|DICT|INTERRES
    75   39   40 1    
    76   39   95 1    
    77   40   41 1    
    78   40   42 1    
    79   40   96 1    
    80   41   97 1    
    81   41   98 1    
    82   41   99 1    
    83   42   43 2    
    84   42   44 am   BACKBONE|DICT|INTERRES
    85   44   45 1    
    86   44  100 1    
    87   45   46 1    
    88   45   47 1    
    89   45  101 1    
    90   46  102 1    
    91   46  103 1    
    92   46  104 1    
    93   47   48 2    
    94   47   49 am   BACKBONE|DICT|INTERRES
    95   49   50 1    
    96   49  105 1    
    97   50   51 1    
    98   50   52 1    
    99   50  106 1    
   100   51  107 1    
   101   51  108 1    
   102   51  109 1    
   103   52   53 2    
   104   52   54 am   BACKBONE|DICT|INTERRES
   105   54   55 1    
   106   54  110 1    
   107   55   56 1    
   108   55   59 1    
   109   55  111 1    
   110   56   57 am   BACKBONE|DICT|INTERRES
   111   56   58 2    
   112   57  112 1    
   113   57  113 1    
   114   59   60 1    
   115   59  114 1    
   116   59  115 1    
   117   60   61 1    
   118   61  116 1    
   119   61  117 1    
@<TRIPOS>SUBSTRUCTURE
     1 UNK         1 GROUP             0       ****    0 ROOT    
