@<TRIPOS>MOLECULE
3R8
117   119    1
SMALL
USER_CHARGES


@<TRIPOS>ATOM
      1 CA         16.6700  -22.1635  -45.2136 C.3       0 UNK        -0.2013 
      2 C          16.9833  -23.6382  -45.0109 C.2       0 UNK         0.4866 
      3 O          17.2063  -24.3558  -45.9852 O.2       0 UNK        -0.5176 
      4 N          17.0157  -24.0931  -43.7513 N.am      1 UNK        -0.4884 
      5 CA         17.2910  -25.4849  -43.3606 C.3       1 UNK         0.0853 
      6 C6         16.4659  -25.8958  -42.1035 C.3       10 UNK        -0.0849 
      7 S7         15.5860  -27.4841  -42.3140 S.3       10 UNK        -0.2776 
      8 C8         16.7121  -28.6716  -41.5024 C.3       10 UNK         0.0316 
      9 C9         17.1406  -29.8094  -42.4247 C.ar      10 UNK        -0.0863 
     10 C10        17.1027  -31.1288  -41.9663 C.ar      10 UNK        -0.1009 
     11 C11        17.5255  -32.1798  -42.7853 C.ar      10 UNK        -0.0712 
     12 C12        17.9803  -31.9081  -44.0788 C.ar      10 UNK        -0.0894 
     13 C13        18.0350  -30.5938  -44.5509 C.ar      10 UNK        -0.0745 
     14 C14        17.6105  -29.5528  -43.7173 C.ar      10 UNK        -0.0972 
     15 C15        18.5157  -30.3239  -45.9742 C.3       10 UNK         0.0209 
     16 S16        19.5586  -28.8376  -46.1378 S.3       10 UNK        -0.2568 
     17 C17        21.1229  -29.3928  -45.3823 C.3       10 UNK        -0.0983 
     18 CA         22.1421  -28.2243  -45.3194 C.3       3 UNK         0.0876 
     19 N          21.6949  -27.1749  -44.4015 N.am      3 UNK        -0.4424 
     20 C          21.6246  -25.8709  -44.6874 C.2       2 UNK         0.4918 
     21 O          21.9022  -25.3872  -45.7867 O.2       2 UNK        -0.4875 
     22 CA         21.1255  -24.9500  -43.5586 C.3       2 UNK         0.0481 
     23 CB         21.7575  -23.5489  -43.6321 C.3       2 UNK        -0.1831 
     24 N          19.6694  -24.8231  -43.6006 N.am      2 UNK        -0.4498 
     25 C          18.8050  -25.7617  -43.1888 C.2       1 UNK         0.5027 
     26 O          19.1700  -26.8107  -42.6633 O.2       1 UNK        -0.4969 
     27 C          23.5953  -28.6304  -44.9789 C.2       3 UNK         0.5005 
     28 O          24.3696  -27.7831  -44.5235 O.2       3 UNK        -0.5279 
     29 N          23.9782  -29.8880  -45.2520 N.am      4 UNK        -0.4463 
     30 CA         25.3678  -30.3712  -45.2673 C.3       4 UNK         0.0283 
     31 CB         25.4053  -31.8106  -45.8053 C.3       4 UNK        -0.1875 
     32 C          26.1192  -30.2736  -43.9273 C.2       4 UNK         0.4949 
     33 O          27.3404  -30.1165  -43.9363 O.2       4 UNK        -0.5039 
     34 N          25.3847  -30.3397  -42.8127 N.am      5 UNK        -0.4663 
     35 CA         25.8838  -30.0882  -41.4596 C.3       5 UNK         0.0242 
     36 CB         25.9480  -31.4102  -40.6723 C.3       5 UNK        -0.1982 
     37 C          24.9967  -29.0316  -40.7851 C.2       5 UNK         0.5017 
     38 O          24.6453  -29.1762  -39.6130 O.2       5 UNK        -0.5012 
     39 N          24.6108  -28.0033  -41.5567 N.am      6 UNK        -0.4439 
     40 CA         23.6338  -26.9714  -41.2072 C.3       6 UNK         0.0297 
     41 CB         24.1694  -26.0448  -40.0913 C.3       6 UNK        -0.2006 
     42 C          22.2668  -27.6185  -40.9151 C.2       6 UNK         0.4892 
     43 O          21.7822  -28.3781  -41.7557 O.2       6 UNK        -0.5089 
     44 N          21.6850  -27.3344  -39.7436 N.am      7 UNK        -0.4243 
     45 CA         20.4071  -27.8886  -39.2922 C.3       7 UNK         0.0196 
     46 CB         19.9101  -27.0801  -38.0830 C.3       7 UNK        -0.2007 
     47 C          20.4488  -29.3936  -38.9609 C.2       7 UNK         0.5020 
     48 O          19.3860  -30.0036  -38.8525 O.2       7 UNK        -0.5147 
     49 N          21.6480  -29.9796  -38.8182 N.am      8 UNK        -0.4734 
     50 CA         21.8600  -31.4060  -38.5401 C.3       8 UNK         0.0238 
     51 CB         23.1229  -31.5732  -37.6748 C.3       8 UNK        -0.1912 
     52 C          21.9084  -32.2692  -39.8188 C.2       8 UNK         0.5038 
     53 O          22.5491  -33.3222  -39.8164 O.2       8 UNK        -0.5046 
     54 N          21.2356  -31.8145  -40.8831 N.am      9 UNK        -0.4200 
     55 CA         21.0309  -32.4659  -42.1881 C.3       9 UNK         0.0839 
     56 C          22.3010  -32.5604  -43.0741 C.2       9 UNK         0.5513 
     57 N          23.4409  -32.9559  -42.5282 N.am      9 UNK        -0.7519 
     58 O          22.2504  -32.2692  -44.2652 O.2       9 UNK        -0.4960 
     59 C59        20.3268  -33.8526  -42.1060 C.3       10 UNK        -0.0876 
     60 S60        18.8337  -33.8872  -41.0520 S.3       10 UNK        -0.2414 
     61 C61        17.5041  -33.6064  -42.2612 C.3       10 UNK         0.0169 
     62 H62        15.7732  -22.0517  -45.8225 H         1 UNK         0.0903 
     63 H63        16.5038  -21.6467  -44.2686 H         1 UNK         0.0903 
     64 H64        17.4946  -21.6714  -45.7288 H         1 UNK         0.0903 
     65 H65        16.8461  -23.4504  -42.9893 H         1 UNK         0.3096 
     66 H66        16.9821  -26.1235  -44.1914 H         1 UNK         0.1121 
     67 H67        15.6880  -25.1569  -41.9045 H         1 UNK         0.0849 
     68 H68        17.0678  -25.9101  -41.1923 H         1 UNK         0.0849 
     69 H69        16.2064  -29.0659  -40.6197 H         1 UNK         0.0865 
     70 H70        17.6059  -28.1718  -41.1333 H         1 UNK         0.0865 
     71 H71        16.7623  -31.3425  -40.9621 H         1 UNK         0.1346 
     72 H72        18.3033  -32.7212  -44.7144 H         1 UNK         0.1412 
     73 H73        17.6490  -28.5343  -44.0744 H         1 UNK         0.1426 
     74 H74        17.6397  -30.2020  -46.6122 H         1 UNK         0.0716 
     75 H75        19.0666  -31.1804  -46.3660 H         1 UNK         0.0716 
     76 H76        21.4887  -30.2199  -45.9919 H         1 UNK         0.0695 
     77 H77        20.9249  -29.7901  -44.3848 H         1 UNK         0.0695 
     78 H78        22.2115  -27.8129  -46.3287 H         1 UNK         0.0983 
     79 H79        21.4396  -27.4955  -43.4706 H         1 UNK         0.3095 
     80 H80        21.4076  -25.3847  -42.5993 H         1 UNK         0.0454 
     81 H81        21.4554  -22.9329  -42.7851 H         1 UNK         0.0851 
     82 H82        21.4783  -23.0224  -44.5457 H         1 UNK         0.0851 
     83 H83        22.8462  -23.6131  -43.6132 H         1 UNK         0.0851 
     84 H84        19.2941  -24.0016  -44.0512 H         1 UNK         0.2976 
     85 H85        23.2738  -30.5584  -45.5330 H         1 UNK         0.3116 
     86 H86        25.9109  -29.7406  -45.9742 H         1 UNK         0.0646 
     87 H87        26.4296  -32.1829  -45.8551 H         1 UNK         0.0847 
     88 H88        24.9937  -31.8694  -46.8129 H         1 UNK         0.0847 
     89 H89        24.8414  -32.4960  -45.1732 H         1 UNK         0.0847 
     90 H90        24.3856  -30.4682  -42.9044 H         1 UNK         0.3040 
     91 H91        26.8898  -29.6642  -41.4955 H         1 UNK         0.1015 
     92 H92        26.5506  -32.1541  -41.1933 H         1 UNK         0.0786 
     93 H93        24.9568  -31.8322  -40.5112 H         1 UNK         0.0786 
     94 H94        26.3985  -31.2575  -39.6908 H         1 UNK         0.0786 
     95 H95        24.8871  -28.0113  -42.5344 H         1 UNK         0.3172 
     96 H96        23.5069  -26.3643  -42.1036 H         1 UNK         0.0595 
     97 H97        24.3148  -26.5688  -39.1459 H         1 UNK         0.0839 
     98 H98        23.4908  -25.2100  -39.9109 H         1 UNK         0.0839 
     99 H99        25.1296  -25.6132  -40.3741 H         1 UNK         0.0839 
    100 H100       22.1655  -26.7194  -39.1031 H         1 UNK         0.2998 
    101 H101       19.6891  -27.7618  -40.1044 H         1 UNK         0.0822 
    102 H102       19.7915  -26.0254  -38.3321 H         1 UNK         0.0787 
    103 H103       18.9378  -27.4413  -37.7446 H         1 UNK         0.0787 
    104 H104       20.5968  -27.1534  -37.2388 H         1 UNK         0.0787 
    105 H105       22.4841  -29.4273  -38.9721 H         1 UNK         0.3055 
    106 H106       21.0160  -31.7795  -37.9558 H         1 UNK         0.1106 
    107 H107       23.2404  -32.6074  -37.3485 H         1 UNK         0.0828 
    108 H108       24.0269  -31.3020  -38.2189 H         1 UNK         0.0828 
    109 H109       23.0743  -30.9576  -36.7766 H         1 UNK         0.0828 
    110 H110       20.7739  -30.9221  -40.7834 H         1 UNK         0.2931 
    111 H111       20.3580  -31.7887  -42.7121 H         1 UNK         0.0412 
    112 H112       23.4425  -33.2181  -41.5482 H         1 UNK         0.3472 
    113 H113       24.2704  -33.0549  -43.0883 H         1 UNK         0.3472 
    114 H114       21.0169  -34.5994  -41.7089 H         1 UNK         0.0970 
    115 H115       20.0621  -34.2005  -43.1061 H         1 UNK         0.0970 
    116 H116       17.5884  -34.3282  -43.0751 H         1 UNK         0.0612 
    117 H117       16.5443  -33.7982  -41.7795 H         1 UNK         0.0612 
@<TRIPOS>BOND
     1    1    2 1    
     2    1   62 1    
     3    1   63 1    
     4    1   64 1    
     5    2    3 2    
     6    2    4 am   BACKBONE|DICT|INTERRES
     7    4    5 1    
     8    4   65 1    
     9    5    6 1    
    10    5   25 1    
    11    5   66 1    
    12    6    7 1    
    13    6   67 1    
    14    6   68 1    
    15    7    8 1    
    16    8    9 1    
    17    8   69 1    
    18    8   70 1    
    19    9   10 ar   
    20    9   14 ar   
    21   10   11 ar   
    22   10   71 1    
    23   11   12 ar   
    24   11   61 1    
    25   12   13 ar   
    26   12   72 1    
    27   13   14 ar   
    28   13   15 1    
    29   14   73 1    
    30   15   16 1    
    31   15   74 1    
    32   15   75 1    
    33   16   17 1    
    34   17   18 1    
    35   17   76 1    
    36   17   77 1    
    37   18   19 1    
    38   18   27 1    
    39   18   78 1    
    40   19   20 am   BACKBONE|DICT|INTERRES
    41   19   79 1    
    42   20   21 2    
    43   20   22 1    
    44   22   23 1    
    45   22   24 1    
    46   22   80 1    
    47   23   81 1    
    48   23   82 1    
    49   23   83 1    
    50   24   25 am   BACKBONE|DICT|INTERRES
    51   24   84 1    
    52   25   26 2    
    53   27   28 2    
    54   27   29 am   BACKBONE|DICT|INTERRES
    55   29   30 1    
    56   29   85 1    
    57   30   31 1    
    58   30   32 1    
    59   30   86 1    
    60   31   87 1    
    61   31   88 1    
    62   31   89 1    
    63   32   33 2    
    64   32   34 am   BACKBONE|DICT|INTERRES
    65   34   35 1    
    66   34   90 1    
    67   35   36 1    
    68   35   37 1    
    69   35   91 1    
    70   36   92 1    
    71   36   93 1    
    72   36   94 1    
    73   37   38 2    
    74   37   39 am   BACKBONE|DICT|INTERRES
    75   39   40 1    
    76   39   95 1    
    77   40   41 1    
    78   40   42 1    
    79   40   96 1    
    80   41   97 1    
    81   41   98 1    
    82   41   99 1    
    83   42   43 2    
    84   42   44 am   BACKBONE|DICT|INTERRES
    85   44   45 1    
    86   44  100 1    
    87   45   46 1    
    88   45   47 1    
    89   45  101 1    
    90   46  102 1    
    91   46  103 1    
    92   46  104 1    
    93   47   48 2    
    94   47   49 am   BACKBONE|DICT|INTERRES
    95   49   50 1    
    96   49  105 1    
    97   50   51 1    
    98   50   52 1    
    99   50  106 1    
   100   51  107 1    
   101   51  108 1    
   102   51  109 1    
   103   52   53 2    
   104   52   54 am   BACKBONE|DICT|INTERRES
   105   54   55 1    
   106   54  110 1    
   107   55   56 1    
   108   55   59 1    
   109   55  111 1    
   110   56   57 am   BACKBONE|DICT|INTERRES
   111   56   58 2    
   112   57  112 1    
   113   57  113 1    
   114   59   60 1    
   115   59  114 1    
   116   59  115 1    
   117   60   61 1    
   118   61  116 1    
   119   61  117 1    
@<TRIPOS>SUBSTRUCTURE
     1 UNK         1 GROUP             0       ****    0 ROOT    
