@<TRIPOS>MOLECULE
3R8
117   119    1
SMALL
USER_CHARGES


@<TRIPOS>ATOM
      1 CA         15.7938  -23.2429  -43.2101 C.3       0 UNK        -0.2013 
      2 C          16.5157  -24.5659  -43.4168 C.2       0 UNK         0.4866 
      3 O          17.5378  -24.6032  -44.1021 O.2       0 UNK        -0.5176 
      4 N          15.9889  -25.6506  -42.8339 N.am      1 UNK        -0.4884 
      5 CA         16.5613  -26.9992  -42.8862 C.3       1 UNK         0.0853 
      6 C6         15.5286  -28.0783  -42.4756 C.3       10 UNK        -0.0849 
      7 S7         14.3194  -28.3450  -43.8166 S.3       10 UNK        -0.2776 
      8 C8         14.9083  -29.9039  -44.5645 C.3       10 UNK         0.0316 
      9 C9         16.3966  -29.8770  -44.8955 C.ar      10 UNK        -0.0863 
     10 C10        17.2942  -30.6369  -44.1385 C.ar      10 UNK        -0.1009 
     11 C11        18.6631  -30.6037  -44.4154 C.ar      10 UNK        -0.0712 
     12 C12        19.1309  -29.8190  -45.4709 C.ar      10 UNK        -0.0894 
     13 C13        18.2473  -29.0562  -46.2398 C.ar      10 UNK        -0.0745 
     14 C14        16.8787  -29.0926  -45.9491 C.ar      10 UNK        -0.0972 
     15 C15        18.7649  -28.2141  -47.3984 C.3       10 UNK         0.0209 
     16 S16        19.4681  -26.6294  -46.8384 S.3       10 UNK        -0.2568 
     17 C17        21.2322  -27.0552  -46.6225 C.3       10 UNK        -0.0983 
     18 CA         21.9448  -26.1647  -45.5650 C.3       3 UNK         0.0876 
     19 N          21.2562  -26.1791  -44.2680 N.am      3 UNK        -0.4424 
     20 C          21.3056  -27.1368  -43.3301 C.2       2 UNK         0.4918 
     21 O          22.0272  -28.1318  -43.3823 O.2       2 UNK        -0.4875 
     22 CA         20.3352  -26.9676  -42.1604 C.3       2 UNK         0.0481 
     23 CB         20.6323  -25.6922  -41.3469 C.3       2 UNK        -0.1831 
     24 N          18.9870  -26.9400  -42.7125 N.am      2 UNK        -0.4498 
     25 C          17.8428  -27.0692  -42.0361 C.2       1 UNK         0.5027 
     26 O          17.7649  -27.2062  -40.8135 O.2       1 UNK        -0.4969 
     27 C          23.4600  -26.4504  -45.4170 C.2       3 UNK         0.5005 
     28 O          24.1208  -25.7821  -44.6192 O.2       3 UNK        -0.5279 
     29 N          23.9821  -27.4343  -46.1637 N.am      4 UNK        -0.4463 
     30 CA         25.3766  -27.8787  -46.1088 C.3       4 UNK         0.0283 
     31 CB         25.7241  -28.5966  -47.4235 C.3       4 UNK        -0.1875 
     32 C          25.6906  -28.7886  -44.9059 C.2       4 UNK         0.4949 
     33 O          26.8653  -28.9304  -44.5656 O.2       4 UNK        -0.5039 
     34 N          24.6655  -29.4003  -44.2910 N.am      5 UNK        -0.4663 
     35 CA         24.8174  -30.2646  -43.1136 C.3       5 UNK         0.0242 
     36 CB         23.5735  -31.1529  -42.9520 C.3       5 UNK        -0.1982 
     37 C          25.0825  -29.4613  -41.8297 C.2       5 UNK         0.5017 
     38 O          25.7580  -29.9731  -40.9378 O.2       5 UNK        -0.5012 
     39 N          24.5356  -28.2367  -41.7783 N.am      6 UNK        -0.4439 
     40 CA         24.7373  -27.1542  -40.8044 C.3       6 UNK         0.0297 
     41 CB         25.8870  -26.2592  -41.3083 C.3       6 UNK        -0.2006 
     42 C          24.9420  -27.5909  -39.3328 C.2       6 UNK         0.4892 
     43 O          26.0224  -27.3690  -38.7863 O.2       6 UNK        -0.5089 
     44 N          23.9568  -28.2095  -38.6687 N.am      7 UNK        -0.4243 
     45 CA         22.6205  -28.5809  -39.1341 C.3       7 UNK         0.0196 
     46 CB         21.5833  -27.6374  -38.4971 C.3       7 UNK        -0.2007 
     47 C          22.3807  -30.0561  -38.7828 C.2       7 UNK         0.5020 
     48 O          21.3632  -30.3923  -38.1751 O.2       7 UNK        -0.5147 
     49 N          23.3397  -30.9201  -39.1462 N.am      8 UNK        -0.4734 
     50 CA         23.3466  -32.3655  -38.8818 C.3       8 UNK         0.0238 
     51 CB         24.7917  -32.8803  -39.0218 C.3       8 UNK        -0.1912 
     52 C          22.3504  -33.1542  -39.7613 C.2       8 UNK         0.5038 
     53 O          22.7364  -34.1216  -40.4199 O.2       8 UNK        -0.5046 
     54 N          21.0907  -32.7105  -39.7681 N.am      9 UNK        -0.4200 
     55 CA         19.9836  -33.2580  -40.5648 C.3       9 UNK         0.0839 
     56 C          19.2689  -34.4765  -39.9139 C.2       9 UNK         0.5513 
     57 N          19.5997  -34.8710  -38.6899 N.am      9 UNK        -0.7519 
     58 O          18.4023  -35.0836  -40.5376 O.2       9 UNK        -0.4960 
     59 C59        18.9712  -32.1478  -40.9543 C.3       10 UNK        -0.0876 
     60 S60        19.7663  -30.7929  -41.8840 S.3       10 UNK        -0.2414 
     61 C61        19.6408  -31.4216  -43.5868 C.3       10 UNK         0.0169 
     62 H62        16.4554  -22.5275  -42.7223 H         1 UNK         0.0903 
     63 H63        14.9021  -23.3556  -42.5938 H         1 UNK         0.0903 
     64 H64        15.4915  -22.8273  -44.1709 H         1 UNK         0.0903 
     65 H65        15.1511  -25.5563  -42.2775 H         1 UNK         0.3096 
     66 H66        16.8529  -27.1924  -43.9206 H         1 UNK         0.1121 
     67 H67        14.9985  -27.7844  -41.5679 H         1 UNK         0.0849 
     68 H68        16.0131  -29.0264  -42.2362 H         1 UNK         0.0849 
     69 H69        14.6802  -30.7277  -43.8862 H         1 UNK         0.0865 
     70 H70        14.3396  -30.0972  -45.4751 H         1 UNK         0.0865 
     71 H71        16.9320  -31.2460  -43.3218 H         1 UNK         0.1346 
     72 H72        20.1870  -29.8127  -45.6928 H         1 UNK         0.1412 
     73 H73        16.1864  -28.5039  -46.5360 H         1 UNK         0.1426 
     74 H74        17.9522  -28.0015  -48.0947 H         1 UNK         0.0716 
     75 H75        19.5078  -28.7736  -47.9688 H         1 UNK         0.0716 
     76 H76        21.3205  -28.1051  -46.3504 H         1 UNK         0.0695 
     77 H77        21.7061  -26.9446  -47.5997 H         1 UNK         0.0695 
     78 H78        21.8856  -25.1343  -45.9196 H         1 UNK         0.0983 
     79 H79        20.6474  -25.3899  -44.1059 H         1 UNK         0.3095 
     80 H80        20.4325  -27.8378  -41.5090 H         1 UNK         0.0454 
     81 H81        20.4195  -24.7857  -41.9141 H         1 UNK         0.0851 
     82 H82        20.0348  -25.6564  -40.4361 H         1 UNK         0.0851 
     83 H83        21.6787  -25.6502  -41.0467 H         1 UNK         0.0851 
     84 H84        18.9363  -26.8301  -43.7178 H         1 UNK         0.2976 
     85 H85        23.3745  -27.9359  -46.7953 H         1 UNK         0.3116 
     86 H86        26.0177  -26.9982  -46.0260 H         1 UNK         0.0646 
     87 H87        26.7693  -28.9096  -47.4326 H         1 UNK         0.0847 
     88 H88        25.5777  -27.9440  -48.2843 H         1 UNK         0.0847 
     89 H89        25.1167  -29.4906  -47.5703 H         1 UNK         0.0847 
     90 H90        23.7203  -29.1954  -44.5873 H         1 UNK         0.3040 
     91 H91        25.6784  -30.9174  -43.2760 H         1 UNK         0.1015 
     92 H92        23.3652  -31.7186  -43.8600 H         1 UNK         0.0786 
     93 H93        22.6858  -30.5707  -42.7065 H         1 UNK         0.0786 
     94 H94        23.7173  -31.8759  -42.1488 H         1 UNK         0.0786 
     95 H95        23.9213  -28.0051  -42.5521 H         1 UNK         0.3172 
     96 H96        23.8317  -26.5487  -40.8211 H         1 UNK         0.0595 
     97 H97        26.0431  -25.4056  -40.6473 H         1 UNK         0.0839 
     98 H98        25.6744  -25.8622  -42.3012 H         1 UNK         0.0839 
     99 H99        26.8276  -26.8088  -41.3645 H         1 UNK         0.0839 
    100 H100       24.1603  -28.5062  -37.7244 H         1 UNK         0.2998 
    101 H101       22.5227  -28.5034  -40.2155 H         1 UNK         0.0822 
    102 H102       21.5605  -27.7370  -37.4111 H         1 UNK         0.0787 
    103 H103       21.7984  -26.5946  -38.7282 H         1 UNK         0.0787 
    104 H104       20.5797  -27.8535  -38.8669 H         1 UNK         0.0787 
    105 H105       24.1496  -30.5569  -39.6372 H         1 UNK         0.3055 
    106 H106       23.0388  -32.5233  -37.8456 H         1 UNK         0.1106 
    107 H107       25.1669  -32.7554  -40.0385 H         1 UNK         0.0828 
    108 H108       25.4684  -32.3531  -38.3491 H         1 UNK         0.0828 
    109 H109       24.8573  -33.9412  -38.7765 H         1 UNK         0.0828 
    110 H110       20.8791  -31.8963  -39.1981 H         1 UNK         0.2931 
    111 H111       20.4080  -33.6401  -41.4954 H         1 UNK         0.0412 
    112 H112       20.3096  -34.3807  -38.1699 H         1 UNK         0.3472 
    113 H113       19.1317  -35.6656  -38.2824 H         1 UNK         0.3472 
    114 H114       18.5135  -31.7226  -40.0594 H         1 UNK         0.0970 
    115 H115       18.1493  -32.5536  -41.5468 H         1 UNK         0.0970 
    116 H116       19.3383  -32.4693  -43.5944 H         1 UNK         0.0612 
    117 H117       20.6364  -31.3940  -44.0316 H         1 UNK         0.0612 
@<TRIPOS>BOND
     1    1    2 1    
     2    1   62 1    
     3    1   63 1    
     4    1   64 1    
     5    2    3 2    
     6    2    4 am   BACKBONE|DICT|INTERRES
     7    4    5 1    
     8    4   65 1    
     9    5    6 1    
    10    5   25 1    
    11    5   66 1    
    12    6    7 1    
    13    6   67 1    
    14    6   68 1    
    15    7    8 1    
    16    8    9 1    
    17    8   69 1    
    18    8   70 1    
    19    9   10 ar   
    20    9   14 ar   
    21   10   11 ar   
    22   10   71 1    
    23   11   12 ar   
    24   11   61 1    
    25   12   13 ar   
    26   12   72 1    
    27   13   14 ar   
    28   13   15 1    
    29   14   73 1    
    30   15   16 1    
    31   15   74 1    
    32   15   75 1    
    33   16   17 1    
    34   17   18 1    
    35   17   76 1    
    36   17   77 1    
    37   18   19 1    
    38   18   27 1    
    39   18   78 1    
    40   19   20 am   BACKBONE|DICT|INTERRES
    41   19   79 1    
    42   20   21 2    
    43   20   22 1    
    44   22   23 1    
    45   22   24 1    
    46   22   80 1    
    47   23   81 1    
    48   23   82 1    
    49   23   83 1    
    50   24   25 am   BACKBONE|DICT|INTERRES
    51   24   84 1    
    52   25   26 2    
    53   27   28 2    
    54   27   29 am   BACKBONE|DICT|INTERRES
    55   29   30 1    
    56   29   85 1    
    57   30   31 1    
    58   30   32 1    
    59   30   86 1    
    60   31   87 1    
    61   31   88 1    
    62   31   89 1    
    63   32   33 2    
    64   32   34 am   BACKBONE|DICT|INTERRES
    65   34   35 1    
    66   34   90 1    
    67   35   36 1    
    68   35   37 1    
    69   35   91 1    
    70   36   92 1    
    71   36   93 1    
    72   36   94 1    
    73   37   38 2    
    74   37   39 am   BACKBONE|DICT|INTERRES
    75   39   40 1    
    76   39   95 1    
    77   40   41 1    
    78   40   42 1    
    79   40   96 1    
    80   41   97 1    
    81   41   98 1    
    82   41   99 1    
    83   42   43 2    
    84   42   44 am   BACKBONE|DICT|INTERRES
    85   44   45 1    
    86   44  100 1    
    87   45   46 1    
    88   45   47 1    
    89   45  101 1    
    90   46  102 1    
    91   46  103 1    
    92   46  104 1    
    93   47   48 2    
    94   47   49 am   BACKBONE|DICT|INTERRES
    95   49   50 1    
    96   49  105 1    
    97   50   51 1    
    98   50   52 1    
    99   50  106 1    
   100   51  107 1    
   101   51  108 1    
   102   51  109 1    
   103   52   53 2    
   104   52   54 am   BACKBONE|DICT|INTERRES
   105   54   55 1    
   106   54  110 1    
   107   55   56 1    
   108   55   59 1    
   109   55  111 1    
   110   56   57 am   BACKBONE|DICT|INTERRES
   111   56   58 2    
   112   57  112 1    
   113   57  113 1    
   114   59   60 1    
   115   59  114 1    
   116   59  115 1    
   117   60   61 1    
   118   61  116 1    
   119   61  117 1    
@<TRIPOS>SUBSTRUCTURE
     1 UNK         1 GROUP             0       ****    0 ROOT    
