@<TRIPOS>MOLECULE
3R8
117   119    1
SMALL
USER_CHARGES


@<TRIPOS>ATOM
      1 CA         18.1129  -29.0776  -38.8813 C.3       0 UNK        -0.2013 
      2 C          18.3948  -28.9729  -40.3710 C.2       0 UNK         0.4866 
      3 O          17.4589  -28.9503  -41.1710 O.2       0 UNK        -0.5176 
      4 N          19.6756  -28.8994  -40.7567 N.am      1 UNK        -0.4884 
      5 CA         20.1438  -28.7011  -42.1320 C.3       1 UNK         0.0853 
      6 C6         21.6207  -29.1652  -42.2599 C.3       10 UNK        -0.0849 
      7 S7         22.3852  -29.0938  -43.9171 S.3       10 UNK        -0.2776 
      8 C8         22.0413  -30.7582  -44.5723 C.3       10 UNK         0.0316 
      9 C9         20.5998  -30.8348  -45.0400 C.ar      10 UNK        -0.0863 
     10 C10        19.6195  -31.4208  -44.2369 C.ar      10 UNK        -0.1009 
     11 C11        18.2692  -31.3590  -44.6023 C.ar      10 UNK        -0.0712 
     12 C12        17.9188  -30.7235  -45.8010 C.ar      10 UNK        -0.0894 
     13 C13        18.8981  -30.1667  -46.6312 C.ar      10 UNK        -0.0745 
     14 C14        20.2389  -30.2456  -46.2518 C.ar      10 UNK        -0.0972 
     15 C15        18.5118  -29.4770  -47.9337 C.3       10 UNK         0.0209 
     16 S16        18.1328  -27.7071  -47.7009 S.3       10 UNK        -0.2568 
     17 C17        19.7967  -26.9594  -47.5607 C.3       10 UNK        -0.0983 
     18 CA         19.8405  -25.7054  -46.6496 C.3       3 UNK         0.0876 
     19 N          19.2297  -25.9594  -45.3480 N.am      3 UNK        -0.4424 
     20 C          18.7947  -25.0226  -44.4975 C.2       2 UNK         0.4918 
     21 O          18.8554  -23.8129  -44.7182 O.2       2 UNK        -0.4875 
     22 CA         18.1943  -25.5211  -43.1669 C.3       2 UNK         0.0481 
     23 CB         16.6594  -25.4942  -43.2319 C.3       2 UNK        -0.1831 
     24 N          18.6313  -26.8640  -42.7613 N.am      2 UNK        -0.4498 
     25 C          19.9022  -27.2467  -42.5818 C.2       1 UNK         0.5027 
     26 O          20.8540  -26.4919  -42.7648 O.2       1 UNK        -0.4969 
     27 C          21.2902  -25.1754  -46.5499 C.2       3 UNK         0.5005 
     28 O          21.7222  -24.4965  -47.4840 O.2       3 UNK        -0.5279 
     29 N          22.0337  -25.5068  -45.4771 N.am      4 UNK        -0.4463 
     30 CA         23.4807  -25.2393  -45.3964 C.3       4 UNK         0.0283 
     31 CB         24.2485  -26.3451  -46.1496 C.3       4 UNK        -0.1875 
     32 C          24.0581  -25.0611  -43.9793 C.2       4 UNK         0.4949 
     33 O          25.2079  -24.6341  -43.8725 O.2       4 UNK        -0.5039 
     34 N          23.3004  -25.3977  -42.9252 N.am      5 UNK        -0.4663 
     35 CA         23.6818  -25.3952  -41.5029 C.3       5 UNK         0.0242 
     36 CB         23.9770  -23.9627  -41.0088 C.3       5 UNK        -0.1982 
     37 C          24.8079  -26.3936  -41.1596 C.2       5 UNK         0.5017 
     38 O          25.5399  -26.1835  -40.1911 O.2       5 UNK        -0.5012 
     39 N          24.9324  -27.4592  -41.9618 N.am      6 UNK        -0.4439 
     40 CA         26.0234  -28.4326  -41.8923 C.3       6 UNK         0.0297 
     41 CB         26.2706  -28.9868  -43.3060 C.3       6 UNK        -0.2006 
     42 C          25.7814  -29.5896  -40.9066 C.2       6 UNK         0.4892 
     43 O          26.7405  -30.2902  -40.5793 O.2       6 UNK        -0.5089 
     44 N          24.5317  -29.8062  -40.4755 N.am      7 UNK        -0.4243 
     45 CA         24.1108  -30.9621  -39.6830 C.3       7 UNK         0.0196 
     46 CB         24.0513  -32.2138  -40.5882 C.3       7 UNK        -0.2007 
     47 C          22.7495  -30.7014  -39.0228 C.2       7 UNK         0.5020 
     48 O          22.1197  -29.6702  -39.2699 O.2       7 UNK        -0.5147 
     49 N          22.2967  -31.6737  -38.2233 N.am      8 UNK        -0.4734 
     50 CA         20.9667  -31.6972  -37.6051 C.3       8 UNK         0.0238 
     51 CB         21.0554  -32.4675  -36.2763 C.3       8 UNK        -0.1912 
     52 C          19.8822  -32.3154  -38.5119 C.2       8 UNK         0.5038 
     53 O          18.7177  -32.3318  -38.1126 O.2       8 UNK        -0.5046 
     54 N          20.2707  -32.8423  -39.6832 N.am      9 UNK        -0.4200 
     55 CA         19.4496  -33.5930  -40.6530 C.3       9 UNK         0.0839 
     56 C          19.0093  -34.9983  -40.1465 C.2       9 UNK         0.5513 
     57 N          18.4853  -35.1184  -38.9344 N.am      9 UNK        -0.7519 
     58 O          19.1688  -35.9907  -40.8522 O.2       9 UNK        -0.4960 
     59 C59        18.2537  -32.7687  -41.2103 C.3       10 UNK        -0.0876 
     60 S60        17.5997  -33.4272  -42.7870 S.3       10 UNK        -0.2414 
     61 C61        17.1639  -31.9053  -43.6979 C.3       10 UNK         0.0169 
     62 H62        17.5312  -28.2178  -38.5506 H         1 UNK         0.0903 
     63 H63        17.5362  -29.9776  -38.6707 H         1 UNK         0.0903 
     64 H64        19.0301  -29.1111  -38.2946 H         1 UNK         0.0903 
     65 H65        20.4139  -28.9515  -40.0598 H         1 UNK         0.3096 
     66 H66        19.5313  -29.3191  -42.7840 H         1 UNK         0.1121 
     67 H67        22.2390  -28.5521  -41.6053 H         1 UNK         0.0849 
     68 H68        21.7115  -30.1873  -41.8915 H         1 UNK         0.0849 
     69 H69        22.7104  -30.9565  -45.4110 H         1 UNK         0.0865 
     70 H70        22.2587  -31.5182  -43.8203 H         1 UNK         0.0865 
     71 H71        19.9108  -31.8739  -43.3012 H         1 UNK         0.1346 
     72 H72        16.8781  -30.6517  -46.0868 H         1 UNK         0.1412 
     73 H73        21.0069  -29.8153  -46.8790 H         1 UNK         0.1426 
     74 H74        17.6344  -29.9673  -48.3581 H         1 UNK         0.0716 
     75 H75        19.3052  -29.5859  -48.6748 H         1 UNK         0.0716 
     76 H76        20.1318  -26.7059  -48.5683 H         1 UNK         0.0695 
     77 H77        20.4990  -27.7036  -47.1911 H         1 UNK         0.0695 
     78 H78        19.2530  -24.9236  -47.1366 H         1 UNK         0.0983 
     79 H79        19.1052  -26.9290  -45.0983 H         1 UNK         0.3095 
     80 H80        18.5164  -24.8273  -42.3880 H         1 UNK         0.0454 
     81 H81        16.2959  -24.5006  -43.4978 H         1 UNK         0.0851 
     82 H82        16.2159  -25.7524  -42.2701 H         1 UNK         0.0851 
     83 H83        16.2758  -26.1921  -43.9773 H         1 UNK         0.0851 
     84 H84        17.9080  -27.5325  -42.5119 H         1 UNK         0.2976 
     85 H85        21.6089  -26.0391  -44.7271 H         1 UNK         0.3116 
     86 H86        23.6840  -24.2902  -45.8971 H         1 UNK         0.0646 
     87 H87        24.0601  -27.3292  -45.7204 H         1 UNK         0.0847 
     88 H88        23.9683  -26.3807  -47.2023 H         1 UNK         0.0847 
     89 H89        25.3255  -26.1756  -46.1133 H         1 UNK         0.0847 
     90 H90        22.3555  -25.7486  -43.0782 H         1 UNK         0.3040 
     91 H91        22.8045  -25.7489  -40.9587 H         1 UNK         0.1015 
     92 H92        24.0995  -23.9395  -39.9253 H         1 UNK         0.0786 
     93 H93        23.1610  -23.2832  -41.2548 H         1 UNK         0.0786 
     94 H94        24.8918  -23.5622  -41.4463 H         1 UNK         0.0786 
     95 H95        24.2802  -27.5581  -42.7277 H         1 UNK         0.3172 
     96 H96        26.9331  -27.9194  -41.5728 H         1 UNK         0.0595 
     97 H97        25.4086  -29.5395  -43.6815 H         1 UNK         0.0839 
     98 H98        27.1214  -29.6695  -43.3147 H         1 UNK         0.0839 
     99 H99        26.4923  -28.1877  -44.0139 H         1 UNK         0.0839 
    100 H100       23.7978  -29.1507  -40.7044 H         1 UNK         0.2998 
    101 H101       24.8374  -31.1229  -38.8835 H         1 UNK         0.0822 
    102 H102       23.7760  -33.1076  -40.0279 H         1 UNK         0.0787 
    103 H103       25.0183  -32.4229  -41.0457 H         1 UNK         0.0787 
    104 H104       23.3267  -32.0931  -41.3943 H         1 UNK         0.0787 
    105 H105       22.8846  -32.4787  -38.0547 H         1 UNK         0.3055 
    106 H106       20.6557  -30.6746  -37.3814 H         1 UNK         0.1106 
    107 H107       21.7856  -32.0164  -35.6041 H         1 UNK         0.0828 
    108 H108       20.0967  -32.4640  -35.7554 H         1 UNK         0.0828 
    109 H109       21.3379  -33.5098  -36.4296 H         1 UNK         0.0828 
    110 H110       21.2560  -32.8108  -39.8938 H         1 UNK         0.2931 
    111 H111       20.1304  -33.7696  -41.4875 H         1 UNK         0.0412 
    112 H112       18.3561  -34.2874  -38.3687 H         1 UNK         0.3472 
    113 H113       18.2039  -36.0237  -38.5921 H         1 UNK         0.3472 
    114 H114       18.5691  -31.7383  -41.3723 H         1 UNK         0.0970 
    115 H115       17.4399  -32.7170  -40.4848 H         1 UNK         0.0970 
    116 H116       16.8591  -31.1286  -42.9953 H         1 UNK         0.0612 
    117 H117       16.2829  -32.1328  -44.2998 H         1 UNK         0.0612 
@<TRIPOS>BOND
     1    1    2 1    
     2    1   62 1    
     3    1   63 1    
     4    1   64 1    
     5    2    3 2    
     6    2    4 am   BACKBONE|DICT|INTERRES
     7    4    5 1    
     8    4   65 1    
     9    5    6 1    
    10    5   25 1    
    11    5   66 1    
    12    6    7 1    
    13    6   67 1    
    14    6   68 1    
    15    7    8 1    
    16    8    9 1    
    17    8   69 1    
    18    8   70 1    
    19    9   10 ar   
    20    9   14 ar   
    21   10   11 ar   
    22   10   71 1    
    23   11   12 ar   
    24   11   61 1    
    25   12   13 ar   
    26   12   72 1    
    27   13   14 ar   
    28   13   15 1    
    29   14   73 1    
    30   15   16 1    
    31   15   74 1    
    32   15   75 1    
    33   16   17 1    
    34   17   18 1    
    35   17   76 1    
    36   17   77 1    
    37   18   19 1    
    38   18   27 1    
    39   18   78 1    
    40   19   20 am   BACKBONE|DICT|INTERRES
    41   19   79 1    
    42   20   21 2    
    43   20   22 1    
    44   22   23 1    
    45   22   24 1    
    46   22   80 1    
    47   23   81 1    
    48   23   82 1    
    49   23   83 1    
    50   24   25 am   BACKBONE|DICT|INTERRES
    51   24   84 1    
    52   25   26 2    
    53   27   28 2    
    54   27   29 am   BACKBONE|DICT|INTERRES
    55   29   30 1    
    56   29   85 1    
    57   30   31 1    
    58   30   32 1    
    59   30   86 1    
    60   31   87 1    
    61   31   88 1    
    62   31   89 1    
    63   32   33 2    
    64   32   34 am   BACKBONE|DICT|INTERRES
    65   34   35 1    
    66   34   90 1    
    67   35   36 1    
    68   35   37 1    
    69   35   91 1    
    70   36   92 1    
    71   36   93 1    
    72   36   94 1    
    73   37   38 2    
    74   37   39 am   BACKBONE|DICT|INTERRES
    75   39   40 1    
    76   39   95 1    
    77   40   41 1    
    78   40   42 1    
    79   40   96 1    
    80   41   97 1    
    81   41   98 1    
    82   41   99 1    
    83   42   43 2    
    84   42   44 am   BACKBONE|DICT|INTERRES
    85   44   45 1    
    86   44  100 1    
    87   45   46 1    
    88   45   47 1    
    89   45  101 1    
    90   46  102 1    
    91   46  103 1    
    92   46  104 1    
    93   47   48 2    
    94   47   49 am   BACKBONE|DICT|INTERRES
    95   49   50 1    
    96   49  105 1    
    97   50   51 1    
    98   50   52 1    
    99   50  106 1    
   100   51  107 1    
   101   51  108 1    
   102   51  109 1    
   103   52   53 2    
   104   52   54 am   BACKBONE|DICT|INTERRES
   105   54   55 1    
   106   54  110 1    
   107   55   56 1    
   108   55   59 1    
   109   55  111 1    
   110   56   57 am   BACKBONE|DICT|INTERRES
   111   56   58 2    
   112   57  112 1    
   113   57  113 1    
   114   59   60 1    
   115   59  114 1    
   116   59  115 1    
   117   60   61 1    
   118   61  116 1    
   119   61  117 1    
@<TRIPOS>SUBSTRUCTURE
     1 UNK         1 GROUP             0       ****    0 ROOT    
