@<TRIPOS>MOLECULE
3R8
117   119    1
SMALL
USER_CHARGES


@<TRIPOS>ATOM
      1 CA         14.8092  -21.8080  -43.0097 C.3       0 UNK        -0.2013 
      2 C          15.4999  -22.5028  -44.1735 C.2       0 UNK         0.4866 
      3 O          15.9088  -21.8408  -45.1281 O.2       0 UNK        -0.5176 
      4 N          15.6258  -23.8334  -44.1074 N.am      1 UNK        -0.4884 
      5 CA         16.3243  -24.6667  -45.0885 C.3       1 UNK         0.0853 
      6 C6         15.9413  -26.1705  -44.9687 C.3       10 UNK        -0.0849 
      7 S7         15.8781  -26.8111  -43.2555 S.3       10 UNK        -0.2776 
      8 C8         15.3283  -28.5277  -43.5107 C.3       10 UNK         0.0316 
      9 C9         16.4968  -29.4873  -43.6969 C.ar      10 UNK        -0.0863 
     10 C10        17.0576  -30.1346  -42.5903 C.ar      10 UNK        -0.1009 
     11 C11        18.0904  -31.0628  -42.7560 C.ar      10 UNK        -0.0712 
     12 C12        18.5776  -31.3263  -44.0408 C.ar      10 UNK        -0.0894 
     13 C13        18.0243  -30.6884  -45.1562 C.ar      10 UNK        -0.0745 
     14 C14        16.9824  -29.7717  -44.9764 C.ar      10 UNK        -0.0972 
     15 C15        18.5056  -31.0391  -46.5600 C.3       10 UNK         0.0209 
     16 S16        20.0968  -30.2616  -46.9906 S.3       10 UNK        -0.2568 
     17 C17        19.6467  -28.4922  -47.0692 C.3       10 UNK        -0.0983 
     18 CA         20.6398  -27.5040  -46.3978 C.3       3 UNK         0.0876 
     19 N          20.0999  -26.1478  -46.4887 N.am      3 UNK        -0.4424 
     20 C          20.7453  -25.0085  -46.2110 C.2       2 UNK         0.4918 
     21 O          21.9435  -24.9436  -45.9381 O.2       2 UNK        -0.4875 
     22 CA         19.8970  -23.7211  -46.2361 C.3       2 UNK         0.0481 
     23 CB         20.1649  -22.9277  -47.5251 C.3       2 UNK        -0.1831 
     24 N          18.4512  -23.9608  -46.1073 N.am      2 UNK        -0.4498 
     25 C          17.8488  -24.4400  -45.0077 C.2       1 UNK         0.5027 
     26 O          18.4553  -24.7267  -43.9745 O.2       1 UNK        -0.4969 
     27 C          21.0063  -27.8966  -44.9452 C.2       3 UNK         0.5005 
     28 O          21.9471  -28.6711  -44.7572 O.2       3 UNK        -0.5279 
     29 N          20.2774  -27.3673  -43.9491 N.am      4 UNK        -0.4463 
     30 CA         20.4564  -27.7214  -42.5424 C.3       4 UNK         0.0283 
     31 CB         19.2807  -27.1950  -41.7081 C.3       4 UNK        -0.1875 
     32 C          21.7893  -27.2237  -41.9659 C.2       4 UNK         0.4949 
     33 O          22.1348  -26.0520  -42.1313 O.2       4 UNK        -0.5039 
     34 N          22.4795  -28.1202  -41.2584 N.am      5 UNK        -0.4663 
     35 CA         23.7203  -27.8884  -40.5279 C.3       5 UNK         0.0242 
     36 CB         24.9078  -27.7510  -41.5003 C.3       5 UNK        -0.1982 
     37 C          23.9257  -29.0826  -39.5933 C.2       5 UNK         0.5017 
     38 O          23.4775  -30.1848  -39.9198 O.2       5 UNK        -0.5012 
     39 N          24.6348  -28.8691  -38.4778 N.am      6 UNK        -0.4439 
     40 CA         24.9171  -29.8937  -37.4625 C.3       6 UNK         0.0297 
     41 CB         25.6091  -29.2384  -36.2562 C.3       6 UNK        -0.2006 
     42 C          25.7482  -31.0854  -37.9766 C.2       6 UNK         0.4892 
     43 O          25.6115  -32.1876  -37.4463 O.2       6 UNK        -0.5089 
     44 N          26.5815  -30.8453  -38.9977 N.am      7 UNK        -0.4243 
     45 CA         27.3684  -31.8696  -39.6865 C.3       7 UNK         0.0196 
     46 CB         28.6318  -31.2137  -40.2685 C.3       7 UNK        -0.2007 
     47 C          26.5820  -32.5886  -40.7989 C.2       7 UNK         0.5020 
     48 O          27.0034  -33.6666  -41.2190 O.2       7 UNK        -0.5147 
     49 N          25.4872  -31.9838  -41.2811 N.am      8 UNK        -0.4734 
     50 CA         24.6684  -32.5084  -42.3758 C.3       8 UNK         0.0238 
     51 CB         24.1713  -31.3450  -43.2530 C.3       8 UNK        -0.1912 
     52 C          23.4855  -33.3292  -41.8483 C.2       8 UNK         0.5038 
     53 O          23.2584  -34.4407  -42.3285 O.2       8 UNK        -0.5046 
     54 N          22.7481  -32.7601  -40.8888 N.am      9 UNK        -0.4200 
     55 CA         21.5555  -33.3608  -40.2811 C.3       9 UNK         0.0839 
     56 C          21.9059  -34.4788  -39.2638 C.2       9 UNK         0.5513 
     57 N          21.0085  -35.4353  -39.0675 N.am      9 UNK        -0.7519 
     58 O          22.9570  -34.4729  -38.6270 O.2       9 UNK        -0.4960 
     59 C59        20.6407  -32.2836  -39.6421 C.3       10 UNK        -0.0876 
     60 S60        20.1045  -31.0218  -40.8471 S.3       10 UNK        -0.2414 
     61 C61        18.6381  -31.8260  -41.5574 C.3       10 UNK         0.0169 
     62 H62        13.9286  -21.2714  -43.3620 H         1 UNK         0.0903 
     63 H63        14.4914  -22.5150  -42.2435 H         1 UNK         0.0903 
     64 H64        15.4850  -21.0886  -42.5480 H         1 UNK         0.0903 
     65 H65        15.3044  -24.3312  -43.2880 H         1 UNK         0.3096 
     66 H66        15.9964  -24.3381  -46.0777 H         1 UNK         0.1121 
     67 H67        14.9510  -26.3138  -45.4040 H         1 UNK         0.0849 
     68 H68        16.6133  -26.7945  -45.5604 H         1 UNK         0.0849 
     69 H69        14.7409  -28.8340  -42.6437 H         1 UNK         0.0865 
     70 H70        14.6486  -28.5819  -44.3624 H         1 UNK         0.0865 
     71 H71        16.6754  -29.9311  -41.5992 H         1 UNK         0.1346 
     72 H72        19.3729  -32.0467  -44.1759 H         1 UNK         0.1412 
     73 H73        16.5339  -29.2930  -45.8360 H         1 UNK         0.1426 
     74 H74        17.7589  -30.7591  -47.3048 H         1 UNK         0.0716 
     75 H75        18.6160  -32.1216  -46.6391 H         1 UNK         0.0716 
     76 H76        19.5392  -28.2353  -48.1243 H         1 UNK         0.0695 
     77 H77        18.6560  -28.3590  -46.6362 H         1 UNK         0.0695 
     78 H78        21.5706  -27.5229  -46.9689 H         1 UNK         0.0983 
     79 H79        19.1261  -26.0762  -46.7390 H         1 UNK         0.3095 
     80 H80        20.2112  -23.1088  -45.3882 H         1 UNK         0.0454 
     81 H81        21.2275  -22.7053  -47.6328 H         1 UNK         0.0851 
     82 H82        19.8572  -23.4812  -48.4131 H         1 UNK         0.0851 
     83 H83        19.6367  -21.9741  -47.5222 H         1 UNK         0.0851 
     84 H84        17.8840  -23.7197  -46.9083 H         1 UNK         0.2976 
     85 H85        19.5771  -26.6662  -44.1543 H         1 UNK         0.3116 
     86 H86        20.4393  -28.8098  -42.4961 H         1 UNK         0.0646 
     87 H87        19.3987  -27.4597  -40.6566 H         1 UNK         0.0847 
     88 H88        18.3408  -27.6290  -42.0414 H         1 UNK         0.0847 
     89 H89        19.1945  -26.1096  -41.7662 H         1 UNK         0.0847 
     90 H90        22.1117  -29.0589  -41.1459 H         1 UNK         0.3040 
     91 H91        23.6157  -26.9790  -39.9321 H         1 UNK         0.1015 
     92 H92        24.7822  -26.8973  -42.1663 H         1 UNK         0.0786 
     93 H93        25.0268  -28.6397  -42.1208 H         1 UNK         0.0786 
     94 H94        25.8435  -27.5999  -40.9608 H         1 UNK         0.0786 
     95 H95        24.9817  -27.9387  -38.2901 H         1 UNK         0.3172 
     96 H96        23.9575  -30.2931  -37.1271 H         1 UNK         0.0595 
     97 H97        25.8067  -29.9727  -35.4737 H         1 UNK         0.0839 
     98 H98        24.9873  -28.4594  -35.8146 H         1 UNK         0.0839 
     99 H99        26.5655  -28.7917  -36.5312 H         1 UNK         0.0839 
    100 H100       26.6468  -29.9021  -39.3515 H         1 UNK         0.2998 
    101 H101       27.6813  -32.6272  -38.9643 H         1 UNK         0.0822 
    102 H102       29.2335  -30.7488  -39.4873 H         1 UNK         0.0787 
    103 H103       29.2630  -31.9532  -40.7637 H         1 UNK         0.0787 
    104 H104       28.3874  -30.4482  -41.0063 H         1 UNK         0.0787 
    105 H105       25.1484  -31.1485  -40.8218 H         1 UNK         0.3055 
    106 H106       25.2720  -33.1648  -43.0072 H         1 UNK         0.1106 
    107 H107       23.5487  -30.6442  -42.6955 H         1 UNK         0.0828 
    108 H108       25.0040  -30.7857  -43.6792 H         1 UNK         0.0828 
    109 H109       23.5711  -31.7135  -44.0860 H         1 UNK         0.0828 
    110 H110       23.0154  -31.8467  -40.5314 H         1 UNK         0.2931 
    111 H111       20.9900  -33.8324  -41.0875 H         1 UNK         0.0412 
    112 H112       20.1398  -35.4510  -39.5795 H         1 UNK         0.3472 
    113 H113       21.2089  -36.1651  -38.4011 H         1 UNK         0.3472 
    114 H114       19.7565  -32.7384  -39.1914 H         1 UNK         0.0970 
    115 H115       21.1663  -31.7754  -38.8312 H         1 UNK         0.0970 
    116 H116       18.8931  -32.8426  -41.8597 H         1 UNK         0.0612 
    117 H117       17.8717  -31.9181  -40.7863 H         1 UNK         0.0612 
@<TRIPOS>BOND
     1    1    2 1    
     2    1   62 1    
     3    1   63 1    
     4    1   64 1    
     5    2    3 2    
     6    2    4 am   BACKBONE|DICT|INTERRES
     7    4    5 1    
     8    4   65 1    
     9    5    6 1    
    10    5   25 1    
    11    5   66 1    
    12    6    7 1    
    13    6   67 1    
    14    6   68 1    
    15    7    8 1    
    16    8    9 1    
    17    8   69 1    
    18    8   70 1    
    19    9   10 ar   
    20    9   14 ar   
    21   10   11 ar   
    22   10   71 1    
    23   11   12 ar   
    24   11   61 1    
    25   12   13 ar   
    26   12   72 1    
    27   13   14 ar   
    28   13   15 1    
    29   14   73 1    
    30   15   16 1    
    31   15   74 1    
    32   15   75 1    
    33   16   17 1    
    34   17   18 1    
    35   17   76 1    
    36   17   77 1    
    37   18   19 1    
    38   18   27 1    
    39   18   78 1    
    40   19   20 am   BACKBONE|DICT|INTERRES
    41   19   79 1    
    42   20   21 2    
    43   20   22 1    
    44   22   23 1    
    45   22   24 1    
    46   22   80 1    
    47   23   81 1    
    48   23   82 1    
    49   23   83 1    
    50   24   25 am   BACKBONE|DICT|INTERRES
    51   24   84 1    
    52   25   26 2    
    53   27   28 2    
    54   27   29 am   BACKBONE|DICT|INTERRES
    55   29   30 1    
    56   29   85 1    
    57   30   31 1    
    58   30   32 1    
    59   30   86 1    
    60   31   87 1    
    61   31   88 1    
    62   31   89 1    
    63   32   33 2    
    64   32   34 am   BACKBONE|DICT|INTERRES
    65   34   35 1    
    66   34   90 1    
    67   35   36 1    
    68   35   37 1    
    69   35   91 1    
    70   36   92 1    
    71   36   93 1    
    72   36   94 1    
    73   37   38 2    
    74   37   39 am   BACKBONE|DICT|INTERRES
    75   39   40 1    
    76   39   95 1    
    77   40   41 1    
    78   40   42 1    
    79   40   96 1    
    80   41   97 1    
    81   41   98 1    
    82   41   99 1    
    83   42   43 2    
    84   42   44 am   BACKBONE|DICT|INTERRES
    85   44   45 1    
    86   44  100 1    
    87   45   46 1    
    88   45   47 1    
    89   45  101 1    
    90   46  102 1    
    91   46  103 1    
    92   46  104 1    
    93   47   48 2    
    94   47   49 am   BACKBONE|DICT|INTERRES
    95   49   50 1    
    96   49  105 1    
    97   50   51 1    
    98   50   52 1    
    99   50  106 1    
   100   51  107 1    
   101   51  108 1    
   102   51  109 1    
   103   52   53 2    
   104   52   54 am   BACKBONE|DICT|INTERRES
   105   54   55 1    
   106   54  110 1    
   107   55   56 1    
   108   55   59 1    
   109   55  111 1    
   110   56   57 am   BACKBONE|DICT|INTERRES
   111   56   58 2    
   112   57  112 1    
   113   57  113 1    
   114   59   60 1    
   115   59  114 1    
   116   59  115 1    
   117   60   61 1    
   118   61  116 1    
   119   61  117 1    
@<TRIPOS>SUBSTRUCTURE
     1 UNK         1 GROUP             0       ****    0 ROOT    
