@<TRIPOS>MOLECULE
3R8
117   119    1
SMALL
USER_CHARGES


@<TRIPOS>ATOM
      1 CA         14.8959  -23.8190  -44.5803 C.3       0 UNK        -0.2013 
      2 C          15.7212  -24.0499  -43.3178 C.2       0 UNK         0.4866 
      3 O          15.3025  -23.6318  -42.2398 O.2       0 UNK        -0.5176 
      4 N          16.8911  -24.6950  -43.3888 N.am      1 UNK        -0.4884 
      5 CA         17.5774  -25.1856  -44.5868 C.3       1 UNK         0.0853 
      6 C6         17.5217  -26.7297  -44.7085 C.3       10 UNK        -0.0849 
      7 S7         15.8446  -27.4533  -44.7897 S.3       10 UNK        -0.2776 
      8 C8         15.8850  -28.7155  -43.4564 C.3       10 UNK         0.0316 
      9 C9         17.1221  -29.6180  -43.4609 C.ar      10 UNK        -0.0863 
     10 C10        17.6509  -30.0749  -42.2483 C.ar      10 UNK        -0.1009 
     11 C11        18.8401  -30.8111  -42.2197 C.ar      10 UNK        -0.0712 
     12 C12        19.5087  -31.0850  -43.4170 C.ar      10 UNK        -0.0894 
     13 C13        18.9775  -30.6595  -44.6355 C.ar      10 UNK        -0.0745 
     14 C14        17.7698  -29.9604  -44.6526 C.ar      10 UNK        -0.0972 
     15 C15        19.7083  -30.9173  -45.9417 C.3       10 UNK         0.0209 
     16 S16        20.3665  -29.3673  -46.6388 S.3       10 UNK        -0.2568 
     17 C17        22.0162  -29.2354  -45.8637 C.3       10 UNK        -0.0983 
     18 CA         22.2133  -28.0421  -44.8907 C.3       3 UNK         0.0876 
     19 N          21.6130  -26.8017  -45.3920 N.am      3 UNK        -0.4424 
     20 C          22.0141  -25.5650  -45.0710 C.2       2 UNK         0.4918 
     21 O          22.9418  -25.3295  -44.2979 O.2       2 UNK        -0.4875 
     22 CA         21.1968  -24.4040  -45.6677 C.3       2 UNK         0.0481 
     23 CB         21.6305  -24.1224  -47.1148 C.3       2 UNK        -0.1831 
     24 N          19.7495  -24.6526  -45.6191 N.am      2 UNK        -0.4498 
     25 C          19.0521  -24.7576  -44.4787 C.2       1 UNK         0.5027 
     26 O          19.5572  -24.6058  -43.3634 O.2       1 UNK        -0.4969 
     27 C          21.8456  -28.3715  -43.4252 C.2       3 UNK         0.5005 
     28 O          22.4550  -29.2782  -42.8508 O.2       3 UNK        -0.5279 
     29 N          20.9256  -27.6069  -42.8120 N.am      4 UNK        -0.4463 
     30 CA         20.6434  -27.6701  -41.3742 C.3       4 UNK         0.0283 
     31 CB         19.2852  -27.0296  -41.0489 C.3       4 UNK        -0.1875 
     32 C          21.7531  -27.0217  -40.5336 C.2       4 UNK         0.4949 
     33 O          21.9937  -27.4773  -39.4172 O.2       4 UNK        -0.5039 
     34 N          22.4425  -26.0114  -41.0878 N.am      5 UNK        -0.4663 
     35 CA         23.6192  -25.3883  -40.4698 C.3       5 UNK         0.0242 
     36 CB         23.9444  -24.0685  -41.1868 C.3       5 UNK        -0.1982 
     37 C          24.8394  -26.3259  -40.4693 C.2       5 UNK         0.5017 
     38 O          25.6321  -26.2917  -39.5282 O.2       5 UNK        -0.5012 
     39 N          24.9404  -27.1702  -41.5060 N.am      6 UNK        -0.4439 
     40 CA         25.9070  -28.2671  -41.6046 C.3       6 UNK         0.0297 
     41 CB         26.0556  -28.6716  -43.0812 C.3       6 UNK        -0.2006 
     42 C          25.5128  -29.4921  -40.7553 C.2       6 UNK         0.4892 
     43 O          26.3711  -30.3357  -40.4955 O.2       6 UNK        -0.5089 
     44 N          24.2308  -29.5721  -40.3630 N.am      7 UNK        -0.4243 
     45 CA         23.5695  -30.6622  -39.6374 C.3       7 UNK         0.0196 
     46 CB         24.1196  -30.7822  -38.2010 C.3       7 UNK        -0.2007 
     47 C          23.6048  -31.9924  -40.4130 C.2       7 UNK         0.5020 
     48 O          23.7727  -33.0552  -39.8121 O.2       7 UNK        -0.5147 
     49 N          23.4391  -31.9153  -41.7427 N.am      8 UNK        -0.4734 
     50 CA         23.5885  -33.0491  -42.6660 C.3       8 UNK         0.0238 
     51 CB         23.5681  -32.5299  -44.1109 C.3       8 UNK        -0.1912 
     52 C          22.5404  -34.1624  -42.4855 C.2       8 UNK         0.5038 
     53 O          22.7938  -35.2986  -42.8870 O.2       8 UNK        -0.5046 
     54 N          21.3944  -33.8158  -41.8888 N.am      9 UNK        -0.4200 
     55 CA         20.3159  -34.7378  -41.5174 C.3       9 UNK         0.0839 
     56 C          20.5794  -35.5463  -40.2119 C.2       9 UNK         0.5513 
     57 N          21.6478  -35.2872  -39.4646 N.am      9 UNK        -0.7519 
     58 O          19.8053  -36.4407  -39.8807 O.2       9 UNK        -0.4960 
     59 C59        18.9361  -34.0255  -41.5309 C.3       10 UNK        -0.0876 
     60 S60        18.6814  -32.7702  -40.2225 S.3       10 UNK        -0.2414 
     61 C61        19.4382  -31.2536  -40.8919 C.3       10 UNK         0.0169 
     62 H62        13.9008  -23.4559  -44.3240 H         1 UNK         0.0903 
     63 H63        15.3700  -23.0721  -45.2163 H         1 UNK         0.0903 
     64 H64        14.7712  -24.7389  -45.1494 H         1 UNK         0.0903 
     65 H65        17.4567  -24.7638  -42.5528 H         1 UNK         0.3096 
     66 H66        17.1654  -24.7316  -45.4892 H         1 UNK         0.1121 
     67 H67        18.0602  -27.1806  -43.8756 H         1 UNK         0.0849 
     68 H68        18.0481  -27.0565  -45.6076 H         1 UNK         0.0849 
     69 H69        15.8128  -28.1926  -42.5013 H         1 UNK         0.0865 
     70 H70        14.9942  -29.3397  -43.5347 H         1 UNK         0.0865 
     71 H71        17.1553  -29.8314  -41.3183 H         1 UNK         0.1346 
     72 H72        20.4482  -31.6169  -43.4011 H         1 UNK         0.1412 
     73 H73        17.3705  -29.6297  -45.6013 H         1 UNK         0.1426 
     74 H74        19.0085  -31.3514  -46.6571 H         1 UNK         0.0716 
     75 H75        20.5067  -31.6499  -45.8169 H         1 UNK         0.0716 
     76 H76        22.7246  -29.1264  -46.6863 H         1 UNK         0.0695 
     77 H77        22.2866  -30.1780  -45.3914 H         1 UNK         0.0695 
     78 H78        23.2915  -27.8696  -44.8537 H         1 UNK         0.0983 
     79 H79        20.8446  -26.9219  -46.0365 H         1 UNK         0.3095 
     80 H80        21.4059  -23.5116  -45.0738 H         1 UNK         0.0454 
     81 H81        22.7014  -23.9204  -47.1677 H         1 UNK         0.0851 
     82 H82        21.1192  -23.2487  -47.5191 H         1 UNK         0.0851 
     83 H83        21.4261  -24.9664  -47.7747 H         1 UNK         0.0851 
     84 H84        19.2804  -24.7883  -46.5039 H         1 UNK         0.2976 
     85 H85        20.4876  -26.8607  -43.3318 H         1 UNK         0.3116 
     86 H86        20.5949  -28.7205  -41.0885 H         1 UNK         0.0646 
     87 H87        19.0295  -27.1889  -40.0006 H         1 UNK         0.0847 
     88 H88        19.2906  -25.9530  -41.2132 H         1 UNK         0.0847 
     89 H89        18.4806  -27.4615  -41.6401 H         1 UNK         0.0847 
     90 H90        22.1831  -25.6837  -42.0091 H         1 UNK         0.3040 
     91 H91        23.3776  -25.1608  -39.4288 H         1 UNK         0.1015 
     92 H92        24.7764  -23.5576  -40.7002 H         1 UNK         0.0786 
     93 H93        23.0932  -23.3875  -41.1720 H         1 UNK         0.0786 
     94 H94        24.2276  -24.2297  -42.2274 H         1 UNK         0.0786 
     95 H95        24.2519  -27.0983  -42.2406 H         1 UNK         0.3172 
     96 H96        26.8760  -27.9122  -41.2473 H         1 UNK         0.0595 
     97 H97        25.1280  -29.0760  -43.4872 H         1 UNK         0.0839 
     98 H98        26.8198  -29.4415  -43.1970 H         1 UNK         0.0839 
     99 H99        26.3551  -27.8250  -43.6992 H         1 UNK         0.0839 
    100 H100       23.6166  -28.8251  -40.6547 H         1 UNK         0.2998 
    101 H101       22.5176  -30.3821  -39.5635 H         1 UNK         0.0822 
    102 H102       23.5419  -31.5023  -37.6201 H         1 UNK         0.0787 
    103 H103       25.1580  -31.1149  -38.1906 H         1 UNK         0.0787 
    104 H104       24.0668  -29.8276  -37.6773 H         1 UNK         0.0787 
    105 H105       23.2628  -31.0025  -42.1554 H         1 UNK         0.3055 
    106 H106       24.5669  -33.4965  -42.4765 H         1 UNK         0.1106 
    107 H107       24.2904  -31.7273  -44.2618 H         1 UNK         0.0828 
    108 H108       23.8162  -33.3265  -44.8136 H         1 UNK         0.0828 
    109 H109       22.5819  -32.1574  -44.3822 H         1 UNK         0.0828 
    110 H110       21.3021  -32.8702  -41.5550 H         1 UNK         0.2931 
    111 H111       20.2662  -35.4926  -42.3047 H         1 UNK         0.0412 
    112 H112       21.8023  -35.8269  -38.6278 H         1 UNK         0.3472 
    113 H113       22.3035  -34.5577  -39.7182 H         1 UNK         0.3472 
    114 H114       18.7537  -33.5803  -42.5087 H         1 UNK         0.0970 
    115 H115       18.1466  -34.7706  -41.4177 H         1 UNK         0.0970 
    116 H116       19.2985  -30.4614  -40.1551 H         1 UNK         0.0612 
    117 H117       20.5160  -31.3829  -40.9811 H         1 UNK         0.0612 
@<TRIPOS>BOND
     1    1    2 1    
     2    1   62 1    
     3    1   63 1    
     4    1   64 1    
     5    2    3 2    
     6    2    4 am   BACKBONE|DICT|INTERRES
     7    4    5 1    
     8    4   65 1    
     9    5    6 1    
    10    5   25 1    
    11    5   66 1    
    12    6    7 1    
    13    6   67 1    
    14    6   68 1    
    15    7    8 1    
    16    8    9 1    
    17    8   69 1    
    18    8   70 1    
    19    9   10 ar   
    20    9   14 ar   
    21   10   11 ar   
    22   10   71 1    
    23   11   12 ar   
    24   11   61 1    
    25   12   13 ar   
    26   12   72 1    
    27   13   14 ar   
    28   13   15 1    
    29   14   73 1    
    30   15   16 1    
    31   15   74 1    
    32   15   75 1    
    33   16   17 1    
    34   17   18 1    
    35   17   76 1    
    36   17   77 1    
    37   18   19 1    
    38   18   27 1    
    39   18   78 1    
    40   19   20 am   BACKBONE|DICT|INTERRES
    41   19   79 1    
    42   20   21 2    
    43   20   22 1    
    44   22   23 1    
    45   22   24 1    
    46   22   80 1    
    47   23   81 1    
    48   23   82 1    
    49   23   83 1    
    50   24   25 am   BACKBONE|DICT|INTERRES
    51   24   84 1    
    52   25   26 2    
    53   27   28 2    
    54   27   29 am   BACKBONE|DICT|INTERRES
    55   29   30 1    
    56   29   85 1    
    57   30   31 1    
    58   30   32 1    
    59   30   86 1    
    60   31   87 1    
    61   31   88 1    
    62   31   89 1    
    63   32   33 2    
    64   32   34 am   BACKBONE|DICT|INTERRES
    65   34   35 1    
    66   34   90 1    
    67   35   36 1    
    68   35   37 1    
    69   35   91 1    
    70   36   92 1    
    71   36   93 1    
    72   36   94 1    
    73   37   38 2    
    74   37   39 am   BACKBONE|DICT|INTERRES
    75   39   40 1    
    76   39   95 1    
    77   40   41 1    
    78   40   42 1    
    79   40   96 1    
    80   41   97 1    
    81   41   98 1    
    82   41   99 1    
    83   42   43 2    
    84   42   44 am   BACKBONE|DICT|INTERRES
    85   44   45 1    
    86   44  100 1    
    87   45   46 1    
    88   45   47 1    
    89   45  101 1    
    90   46  102 1    
    91   46  103 1    
    92   46  104 1    
    93   47   48 2    
    94   47   49 am   BACKBONE|DICT|INTERRES
    95   49   50 1    
    96   49  105 1    
    97   50   51 1    
    98   50   52 1    
    99   50  106 1    
   100   51  107 1    
   101   51  108 1    
   102   51  109 1    
   103   52   53 2    
   104   52   54 am   BACKBONE|DICT|INTERRES
   105   54   55 1    
   106   54  110 1    
   107   55   56 1    
   108   55   59 1    
   109   55  111 1    
   110   56   57 am   BACKBONE|DICT|INTERRES
   111   56   58 2    
   112   57  112 1    
   113   57  113 1    
   114   59   60 1    
   115   59  114 1    
   116   59  115 1    
   117   60   61 1    
   118   61  116 1    
   119   61  117 1    
@<TRIPOS>SUBSTRUCTURE
     1 UNK         1 GROUP             0       ****    0 ROOT    
