@<TRIPOS>MOLECULE
3R8
117   119    1
SMALL
USER_CHARGES


@<TRIPOS>ATOM
      1 CA         20.7979  -30.0276  -44.2436 C.3       0 UNK        -0.2013 
      2 C          20.5490  -29.1556  -43.0291 C.2       0 UNK         0.4866 
      3 O          21.5027  -28.8544  -42.3133 O.2       0 UNK        -0.5176 
      4 N          19.2893  -28.7520  -42.8039 N.am      1 UNK        -0.4884 
      5 CA         18.8650  -27.8593  -41.7205 C.3       1 UNK         0.0853 
      6 C6         17.3598  -28.0569  -41.3674 C.3       10 UNK        -0.0849 
      7 S7         16.1322  -27.6460  -42.6692 S.3       10 UNK        -0.2776 
      8 C8         15.5264  -29.2629  -43.2471 C.3       10 UNK         0.0316 
      9 C9         16.4119  -29.8826  -44.3215 C.ar      10 UNK        -0.0863 
     10 C10        16.8267  -31.2102  -44.1977 C.ar      10 UNK        -0.1009 
     11 C11        17.5914  -31.8143  -45.1991 C.ar      10 UNK        -0.0712 
     12 C12        17.9370  -31.0792  -46.3383 C.ar      10 UNK        -0.0894 
     13 C13        17.5345  -29.7457  -46.4786 C.ar      10 UNK        -0.0745 
     14 C14        16.7605  -29.1600  -45.4691 C.ar      10 UNK        -0.0972 
     15 C15        17.8857  -28.9820  -47.7559 C.3       10 UNK         0.0209 
     16 S16        18.3528  -27.2343  -47.4974 S.3       10 UNK        -0.2568 
     17 C17        20.0395  -27.3872  -46.8209 C.3       10 UNK        -0.0983 
     18 CA         20.5298  -26.0803  -46.1463 C.3       3 UNK         0.0876 
     19 N          19.6183  -25.6526  -45.0817 N.am      3 UNK        -0.4424 
     20 C          19.5964  -24.4506  -44.4878 C.2       2 UNK         0.4918 
     21 O          20.2813  -23.4929  -44.8455 O.2       2 UNK        -0.4875 
     22 CA         18.6833  -24.3162  -43.2525 C.3       2 UNK         0.0481 
     23 CB         17.3598  -23.6356  -43.6340 C.3       2 UNK        -0.1831 
     24 N          18.3966  -25.6106  -42.6227 N.am      2 UNK        -0.4498 
     25 C          19.2974  -26.4061  -42.0315 C.2       1 UNK         0.5027 
     26 O          20.4563  -26.0516  -41.8163 O.2       1 UNK        -0.4969 
     27 C          21.9958  -26.2111  -45.6592 C.2       3 UNK         0.5005 
     28 O          22.8973  -26.2241  -46.4979 O.2       3 UNK        -0.5279 
     29 N          22.2085  -26.2673  -44.3317 N.am      4 UNK        -0.4463 
     30 CA         23.4858  -26.1975  -43.6154 C.3       4 UNK         0.0283 
     31 CB         24.1021  -24.7899  -43.7612 C.3       4 UNK        -0.1875 
     32 C          24.4710  -27.3223  -43.9786 C.2       4 UNK         0.4949 
     33 O          25.5900  -27.0474  -44.4163 O.2       4 UNK        -0.5039 
     34 N          24.0501  -28.5760  -43.7614 N.am      5 UNK        -0.4663 
     35 CA         24.9380  -29.7451  -43.8425 C.3       5 UNK         0.0242 
     36 CB         24.1090  -31.0277  -44.0109 C.3       5 UNK        -0.1982 
     37 C          25.8398  -29.8602  -42.6013 C.2       5 UNK         0.5017 
     38 O          26.9769  -30.3192  -42.7108 O.2       5 UNK        -0.5012 
     39 N          25.3056  -29.4259  -41.4564 N.am      6 UNK        -0.4439 
     40 CA         25.9228  -29.3498  -40.1384 C.3       6 UNK         0.0297 
     41 CB         26.2053  -30.7614  -39.5720 C.3       6 UNK        -0.2006 
     42 C          24.9616  -28.5120  -39.2792 C.2       6 UNK         0.4892 
     43 O          24.3445  -27.5826  -39.8060 O.2       6 UNK        -0.5089 
     44 N          24.8031  -28.8672  -37.9971 N.am      7 UNK        -0.4243 
     45 CA         23.7700  -28.3137  -37.1132 C.3       7 UNK         0.0196 
     46 CB         24.0906  -28.6978  -35.6595 C.3       7 UNK        -0.2007 
     47 C          22.3465  -28.7737  -37.4909 C.2       7 UNK         0.5020 
     48 O          21.3802  -28.0899  -37.1525 O.2       7 UNK        -0.5147 
     49 N          22.2435  -29.9145  -38.1817 N.am      8 UNK        -0.4734 
     50 CA         21.0218  -30.5102  -38.7105 C.3       8 UNK         0.0238 
     51 CB         20.2580  -31.2330  -37.5831 C.3       8 UNK        -0.1912 
     52 C          21.4073  -31.4778  -39.8389 C.2       8 UNK         0.5038 
     53 O          22.5940  -31.7681  -40.0166 O.2       8 UNK        -0.5046 
     54 N          20.3964  -31.9732  -40.5628 N.am      9 UNK        -0.4200 
     55 CA         20.5448  -32.9705  -41.6370 C.3       9 UNK         0.0839 
     56 C          20.8906  -34.4079  -41.1423 C.2       9 UNK         0.5513 
     57 N          20.7014  -34.7330  -39.8684 N.am      9 UNK        -0.7519 
     58 O          21.3510  -35.2381  -41.9207 O.2       9 UNK        -0.4960 
     59 C59        19.2985  -32.9569  -42.5633 C.3       10 UNK        -0.0876 
     60 S60        19.6576  -33.4417  -44.2861 S.3       10 UNK        -0.2414 
     61 C61        18.0183  -33.2700  -45.0606 C.3       10 UNK         0.0169 
     62 H62        21.5213  -29.5588  -44.9090 H         1 UNK         0.0903 
     63 H63        21.1961  -30.9908  -43.9358 H         1 UNK         0.0903 
     64 H64        19.8863  -30.2067  -44.8032 H         1 UNK         0.0903 
     65 H65        18.5520  -29.0441  -43.4325 H         1 UNK         0.3096 
     66 H66        19.4303  -28.1399  -40.8288 H         1 UNK         0.1121 
     67 H67        17.2015  -29.0891  -41.0512 H         1 UNK         0.0849 
     68 H68        17.1154  -27.4557  -40.4896 H         1 UNK         0.0849 
     69 H69        15.4014  -29.9327  -42.3949 H         1 UNK         0.0865 
     70 H70        14.5301  -29.1246  -43.6692 H         1 UNK         0.0865 
     71 H71        16.5403  -31.7841  -43.3268 H         1 UNK         0.1346 
     72 H72        18.5195  -31.5510  -47.1181 H         1 UNK         0.1412 
     73 H73        16.4126  -28.1422  -45.5829 H         1 UNK         0.1426 
     74 H74        17.0173  -29.0097  -48.4150 H         1 UNK         0.0716 
     75 H75        18.6939  -29.4804  -48.2936 H         1 UNK         0.0716 
     76 H76        20.0449  -28.2086  -46.1087 H         1 UNK         0.0695 
     77 H77        20.7065  -27.6758  -47.6356 H         1 UNK         0.0695 
     78 H78        20.5307  -25.2938  -46.9044 H         1 UNK         0.0983 
     79 H79        18.9745  -26.3538  -44.7491 H         1 UNK         0.3095 
     80 H80        19.1986  -23.6889  -42.5225 H         1 UNK         0.0454 
     81 H81        17.5392  -22.6577  -44.0829 H         1 UNK         0.0851 
     82 H82        16.7938  -24.2266  -44.3553 H         1 UNK         0.0851 
     83 H83        16.7281  -23.4779  -42.7597 H         1 UNK         0.0851 
     84 H84        17.4638  -25.9875  -42.7531 H         1 UNK         0.2976 
     85 H85        21.4004  -26.2661  -43.7199 H         1 UNK         0.3116 
     86 H86        23.2459  -26.3363  -42.5595 H         1 UNK         0.0646 
     87 H87        25.0012  -24.6926  -43.1515 H         1 UNK         0.0847 
     88 H88        23.4054  -24.0172  -43.4358 H         1 UNK         0.0847 
     89 H89        24.3834  -24.5747  -44.7926 H         1 UNK         0.0847 
     90 H90        23.1274  -28.7131  -43.3557 H         1 UNK         0.3040 
     91 H91        25.5854  -29.6407  -44.7164 H         1 UNK         0.1015 
     92 H92        23.5175  -31.0021  -44.9255 H         1 UNK         0.0786 
     93 H93        23.4370  -31.1869  -43.1664 H         1 UNK         0.0786 
     94 H94        24.7574  -31.9027  -44.0754 H         1 UNK         0.0786 
     95 H95        24.3824  -29.0093  -41.4903 H         1 UNK         0.3172 
     96 H96        26.8608  -28.7985  -40.2236 H         1 UNK         0.0595 
     97 H97        26.8577  -31.3335  -40.2312 H         1 UNK         0.0839 
     98 H98        25.2879  -31.3370  -39.4425 H         1 UNK         0.0839 
     99 H99        26.7121  -30.7122  -38.6079 H         1 UNK         0.0839 
    100 H100       25.3519  -29.6334  -37.6343 H         1 UNK         0.2998 
    101 H101       23.7952  -27.2247  -37.1944 H         1 UNK         0.0822 
    102 H102       25.0674  -28.3213  -35.3551 H         1 UNK         0.0787 
    103 H103       23.3544  -28.2755  -34.9738 H         1 UNK         0.0787 
    104 H104       24.0859  -29.7791  -35.5162 H         1 UNK         0.0787 
    105 H105       23.0847  -30.3979  -38.4724 H         1 UNK         0.3055 
    106 H106       20.4000  -29.7201  -39.1364 H         1 UNK         0.1106 
    107 H107       20.8527  -32.0367  -37.1471 H         1 UNK         0.0828 
    108 H108       19.9896  -30.5463  -36.7801 H         1 UNK         0.0828 
    109 H109       19.3288  -31.6722  -37.9472 H         1 UNK         0.0828 
    110 H110       19.4514  -31.7070  -40.3308 H         1 UNK         0.2931 
    111 H111       21.4023  -32.6468  -42.2300 H         1 UNK         0.0412 
    112 H112       20.9357  -35.6631  -39.5581 H         1 UNK         0.3472 
    113 H113       20.3309  -34.0626  -39.2152 H         1 UNK         0.3472 
    114 H114       18.8956  -31.9454  -42.6036 H         1 UNK         0.0970 
    115 H115       18.4985  -33.5832  -42.1636 H         1 UNK         0.0970 
    116 H116       17.2825  -33.8305  -44.4817 H         1 UNK         0.0612 
    117 H117       18.0481  -33.7384  -46.0455 H         1 UNK         0.0612 
@<TRIPOS>BOND
     1    1    2 1    
     2    1   62 1    
     3    1   63 1    
     4    1   64 1    
     5    2    3 2    
     6    2    4 am   BACKBONE|DICT|INTERRES
     7    4    5 1    
     8    4   65 1    
     9    5    6 1    
    10    5   25 1    
    11    5   66 1    
    12    6    7 1    
    13    6   67 1    
    14    6   68 1    
    15    7    8 1    
    16    8    9 1    
    17    8   69 1    
    18    8   70 1    
    19    9   10 ar   
    20    9   14 ar   
    21   10   11 ar   
    22   10   71 1    
    23   11   12 ar   
    24   11   61 1    
    25   12   13 ar   
    26   12   72 1    
    27   13   14 ar   
    28   13   15 1    
    29   14   73 1    
    30   15   16 1    
    31   15   74 1    
    32   15   75 1    
    33   16   17 1    
    34   17   18 1    
    35   17   76 1    
    36   17   77 1    
    37   18   19 1    
    38   18   27 1    
    39   18   78 1    
    40   19   20 am   BACKBONE|DICT|INTERRES
    41   19   79 1    
    42   20   21 2    
    43   20   22 1    
    44   22   23 1    
    45   22   24 1    
    46   22   80 1    
    47   23   81 1    
    48   23   82 1    
    49   23   83 1    
    50   24   25 am   BACKBONE|DICT|INTERRES
    51   24   84 1    
    52   25   26 2    
    53   27   28 2    
    54   27   29 am   BACKBONE|DICT|INTERRES
    55   29   30 1    
    56   29   85 1    
    57   30   31 1    
    58   30   32 1    
    59   30   86 1    
    60   31   87 1    
    61   31   88 1    
    62   31   89 1    
    63   32   33 2    
    64   32   34 am   BACKBONE|DICT|INTERRES
    65   34   35 1    
    66   34   90 1    
    67   35   36 1    
    68   35   37 1    
    69   35   91 1    
    70   36   92 1    
    71   36   93 1    
    72   36   94 1    
    73   37   38 2    
    74   37   39 am   BACKBONE|DICT|INTERRES
    75   39   40 1    
    76   39   95 1    
    77   40   41 1    
    78   40   42 1    
    79   40   96 1    
    80   41   97 1    
    81   41   98 1    
    82   41   99 1    
    83   42   43 2    
    84   42   44 am   BACKBONE|DICT|INTERRES
    85   44   45 1    
    86   44  100 1    
    87   45   46 1    
    88   45   47 1    
    89   45  101 1    
    90   46  102 1    
    91   46  103 1    
    92   46  104 1    
    93   47   48 2    
    94   47   49 am   BACKBONE|DICT|INTERRES
    95   49   50 1    
    96   49  105 1    
    97   50   51 1    
    98   50   52 1    
    99   50  106 1    
   100   51  107 1    
   101   51  108 1    
   102   51  109 1    
   103   52   53 2    
   104   52   54 am   BACKBONE|DICT|INTERRES
   105   54   55 1    
   106   54  110 1    
   107   55   56 1    
   108   55   59 1    
   109   55  111 1    
   110   56   57 am   BACKBONE|DICT|INTERRES
   111   56   58 2    
   112   57  112 1    
   113   57  113 1    
   114   59   60 1    
   115   59  114 1    
   116   59  115 1    
   117   60   61 1    
   118   61  116 1    
   119   61  117 1    
@<TRIPOS>SUBSTRUCTURE
     1 UNK         1 GROUP             0       ****    0 ROOT    
