@<TRIPOS>MOLECULE
3R8
117   119    1
SMALL
USER_CHARGES


@<TRIPOS>ATOM
      1 CA         11.6348  -25.7783  -43.8551 C.3       0 UNK        -0.2013 
      2 C          13.1059  -25.3911  -43.8277 C.2       0 UNK         0.4866 
      3 O          13.4989  -24.5322  -43.0371 O.2       0 UNK        -0.5176 
      4 N          13.9182  -26.0084  -44.6939 N.am      1 UNK        -0.4884 
      5 CA         15.3705  -25.8208  -44.7698 C.3       1 UNK         0.0853 
      6 C6         15.9648  -26.2924  -46.1320 C.3       10 UNK        -0.0849 
      7 S7         15.2303  -27.7767  -46.9144 S.3       10 UNK        -0.2776 
      8 C8         15.4779  -29.1199  -45.7001 C.3       10 UNK         0.0316 
      9 C9         16.9284  -29.4326  -45.3295 C.ar      10 UNK        -0.0863 
     10 C10        17.1984  -29.9376  -44.0534 C.ar      10 UNK        -0.1009 
     11 C11        18.4951  -30.3058  -43.6867 C.ar      10 UNK        -0.0712 
     12 C12        19.5351  -30.1645  -44.6077 C.ar      10 UNK        -0.0894 
     13 C13        19.2877  -29.6450  -45.8803 C.ar      10 UNK        -0.0745 
     14 C14        17.9832  -29.2888  -46.2397 C.ar      10 UNK        -0.0972 
     15 C15        20.4244  -29.4945  -46.8780 C.3       10 UNK         0.0209 
     16 S16        21.0955  -27.8038  -46.8830 S.3       10 UNK        -0.2568 
     17 C17        22.1466  -27.7818  -45.3909 C.3       10 UNK        -0.0983 
     18 CA         21.7118  -26.6721  -44.4031 C.3       3 UNK         0.0876 
     19 N          20.4374  -26.9782  -43.7459 N.am      3 UNK        -0.4424 
     20 C          19.7281  -26.0956  -43.0330 C.2       2 UNK         0.4918 
     21 O          20.0609  -24.9208  -42.8637 O.2       2 UNK        -0.4875 
     22 CA         18.3717  -26.5664  -42.5033 C.3       2 UNK         0.0481 
     23 CB         18.1235  -26.1225  -41.0494 C.3       2 UNK        -0.1831 
     24 N          17.3750  -26.0040  -43.4041 N.am      2 UNK        -0.4498 
     25 C          16.1215  -26.4373  -43.5690 C.2       1 UNK         0.5027 
     26 O          15.5864  -27.2928  -42.8587 O.2       1 UNK        -0.4969 
     27 C          22.8264  -26.3747  -43.3789 C.2       3 UNK         0.5005 
     28 O          22.9275  -27.0551  -42.3537 O.2       3 UNK        -0.5279 
     29 N          23.6686  -25.3834  -43.7092 N.am      4 UNK        -0.4463 
     30 CA         24.7481  -24.8372  -42.8748 C.3       4 UNK         0.0283 
     31 CB         25.3496  -23.6093  -43.5790 C.3       4 UNK        -0.1875 
     32 C          25.8600  -25.8319  -42.4916 C.2       4 UNK         0.4949 
     33 O          26.6346  -25.5394  -41.5806 O.2       4 UNK        -0.5039 
     34 N          25.9129  -26.9887  -43.1668 N.am      5 UNK        -0.4663 
     35 CA         26.7720  -28.1242  -42.8236 C.3       5 UNK         0.0242 
     36 CB         26.6659  -29.1878  -43.9289 C.3       5 UNK        -0.1982 
     37 C          26.4441  -28.7470  -41.4535 C.2       5 UNK         0.5017 
     38 O          27.3352  -29.3425  -40.8474 O.2       5 UNK        -0.5012 
     39 N          25.1858  -28.6102  -40.9993 N.am      6 UNK        -0.4439 
     40 CA         24.6084  -29.0362  -39.7144 C.3       6 UNK         0.0297 
     41 CB         25.2942  -28.3290  -38.5306 C.3       6 UNK        -0.2006 
     42 C          24.5511  -30.5576  -39.4857 C.2       6 UNK         0.4892 
     43 O          23.5282  -31.0515  -39.0121 O.2       6 UNK        -0.5089 
     44 N          25.6147  -31.2841  -39.8510 N.am      7 UNK        -0.4243 
     45 CA         25.7452  -32.7425  -39.7499 C.3       7 UNK         0.0196 
     46 CB         27.1726  -33.1456  -40.1526 C.3       7 UNK        -0.2007 
     47 C          24.7108  -33.5226  -40.5818 C.2       7 UNK         0.5020 
     48 O          24.4025  -34.6657  -40.2455 O.2       7 UNK        -0.5147 
     49 N          24.1769  -32.8863  -41.6334 N.am      8 UNK        -0.4734 
     50 CA         23.0592  -33.3874  -42.4352 C.3       8 UNK         0.0238 
     51 CB         22.9468  -32.5438  -43.7169 C.3       8 UNK        -0.1912 
     52 C          21.7181  -33.3798  -41.6774 C.2       8 UNK         0.5038 
     53 O          20.8425  -34.1784  -42.0129 O.2       8 UNK        -0.5046 
     54 N          21.5753  -32.4766  -40.6988 N.am      9 UNK        -0.4200 
     55 CA         20.3638  -32.2874  -39.8897 C.3       9 UNK         0.0839 
     56 C          20.4855  -32.9414  -38.4891 C.2       9 UNK         0.5513 
     57 N          21.6566  -32.9302  -37.8648 N.am      9 UNK        -0.7519 
     58 O          19.5078  -33.4704  -37.9670 O.2       9 UNK        -0.4960 
     59 C59        19.9864  -30.7857  -39.7583 C.3       10 UNK        -0.0876 
     60 S60        19.9046  -29.8673  -41.3375 S.3       10 UNK        -0.2414 
     61 C61        18.7654  -30.8987  -42.3135 C.3       10 UNK         0.0169 
     62 H62        11.3339  -26.1752  -42.8859 H         1 UNK         0.0903 
     63 H63        11.0204  -24.9048  -44.0718 H         1 UNK         0.0903 
     64 H64        11.4263  -26.5355  -44.6108 H         1 UNK         0.0903 
     65 H65        13.5485  -26.7123  -45.3176 H         1 UNK         0.3096 
     66 H66        15.5470  -24.7443  -44.7009 H         1 UNK         0.1121 
     67 H67        17.0470  -26.4291  -46.0819 H         1 UNK         0.0849 
     68 H68        15.8279  -25.4848  -46.8528 H         1 UNK         0.0849 
     69 H69        14.8934  -28.8949  -44.8079 H         1 UNK         0.0865 
     70 H70        15.0401  -30.0286  -46.1150 H         1 UNK         0.0865 
     71 H71        16.3898  -30.0583  -43.3450 H         1 UNK         0.1346 
     72 H72        20.5361  -30.4647  -44.3300 H         1 UNK         0.1412 
     73 H73        17.7928  -28.9102  -47.2345 H         1 UNK         0.1426 
     74 H74        20.0611  -29.7284  -47.8798 H         1 UNK         0.0716 
     75 H75        21.2224  -30.2099  -46.6723 H         1 UNK         0.0716 
     76 H76        22.1509  -28.7576  -44.9033 H         1 UNK         0.0695 
     77 H77        23.1690  -27.6156  -45.7363 H         1 UNK         0.0695 
     78 H78        21.5525  -25.7567  -44.9783 H         1 UNK         0.0983 
     79 H79        20.0870  -27.9191  -43.8572 H         1 UNK         0.3095 
     80 H80        18.3242  -27.6546  -42.5538 H         1 UNK         0.0454 
     81 H81        18.9057  -26.5029  -40.3914 H         1 UNK         0.0851 
     82 H82        18.1113  -25.0363  -40.9528 H         1 UNK         0.0851 
     83 H83        17.1733  -26.5025  -40.6743 H         1 UNK         0.0851 
     84 H84        17.7318  -25.2860  -44.0211 H         1 UNK         0.2976 
     85 H85        23.5181  -24.9078  -44.5880 H         1 UNK         0.3116 
     86 H86        24.2927  -24.5030  -41.9403 H         1 UNK         0.0646 
     87 H87        26.1305  -23.1513  -42.9701 H         1 UNK         0.0847 
     88 H88        24.5955  -22.8429  -43.7589 H         1 UNK         0.0847 
     89 H89        25.7988  -23.8733  -44.5373 H         1 UNK         0.0847 
     90 H90        25.2458  -27.1294  -43.9106 H         1 UNK         0.3040 
     91 H91        27.8033  -27.7666  -42.7808 H         1 UNK         0.1015 
     92 H92        26.9721  -28.7876  -44.8957 H         1 UNK         0.0786 
     93 H93        25.6486  -29.5688  -44.0291 H         1 UNK         0.0786 
     94 H94        27.3133  -30.0396  -43.7144 H         1 UNK         0.0786 
     95 H95        24.5333  -28.1087  -41.5968 H         1 UNK         0.3172 
     96 H96        23.5730  -28.6919  -39.7413 H         1 UNK         0.0595 
     97 H97        25.2621  -27.2454  -38.6453 H         1 UNK         0.0839 
     98 H98        26.3389  -28.6237  -38.4269 H         1 UNK         0.0839 
     99 H99        24.7951  -28.5708  -37.5913 H         1 UNK         0.0839 
    100 H100       26.4127  -30.7702  -40.2194 H         1 UNK         0.2998 
    101 H101       25.5904  -33.0146  -38.7038 H         1 UNK         0.0822 
    102 H102       27.3147  -34.2238  -40.0652 H         1 UNK         0.0787 
    103 H103       27.3932  -32.8688  -41.1845 H         1 UNK         0.0787 
    104 H104       27.9150  -32.6691  -39.5118 H         1 UNK         0.0787 
    105 H105       24.5106  -31.9568  -41.8419 H         1 UNK         0.3055 
    106 H106       23.2721  -34.4217  -42.7153 H         1 UNK         0.1106 
    107 H107       23.8595  -32.5985  -44.3105 H         1 UNK         0.0828 
    108 H108       22.1306  -32.8992  -44.3478 H         1 UNK         0.0828 
    109 H109       22.7520  -31.4938  -43.4942 H         1 UNK         0.0828 
    110 H110       22.3663  -31.9026  -40.4345 H         1 UNK         0.2931 
    111 H111       19.5262  -32.7889  -40.3766 H         1 UNK         0.0412 
    112 H112       21.7405  -33.3599  -36.9574 H         1 UNK         0.3472 
    113 H113       22.4371  -32.4131  -38.2582 H         1 UNK         0.3472 
    114 H114       20.7111  -30.2702  -39.1247 H         1 UNK         0.0970 
    115 H115       19.0223  -30.6825  -39.2568 H         1 UNK         0.0970 
    116 H116       19.1911  -31.8914  -42.4554 H         1 UNK         0.0612 
    117 H117       17.8376  -31.0299  -41.7545 H         1 UNK         0.0612 
@<TRIPOS>BOND
     1    1    2 1    
     2    1   62 1    
     3    1   63 1    
     4    1   64 1    
     5    2    3 2    
     6    2    4 am   BACKBONE|DICT|INTERRES
     7    4    5 1    
     8    4   65 1    
     9    5    6 1    
    10    5   25 1    
    11    5   66 1    
    12    6    7 1    
    13    6   67 1    
    14    6   68 1    
    15    7    8 1    
    16    8    9 1    
    17    8   69 1    
    18    8   70 1    
    19    9   10 ar   
    20    9   14 ar   
    21   10   11 ar   
    22   10   71 1    
    23   11   12 ar   
    24   11   61 1    
    25   12   13 ar   
    26   12   72 1    
    27   13   14 ar   
    28   13   15 1    
    29   14   73 1    
    30   15   16 1    
    31   15   74 1    
    32   15   75 1    
    33   16   17 1    
    34   17   18 1    
    35   17   76 1    
    36   17   77 1    
    37   18   19 1    
    38   18   27 1    
    39   18   78 1    
    40   19   20 am   BACKBONE|DICT|INTERRES
    41   19   79 1    
    42   20   21 2    
    43   20   22 1    
    44   22   23 1    
    45   22   24 1    
    46   22   80 1    
    47   23   81 1    
    48   23   82 1    
    49   23   83 1    
    50   24   25 am   BACKBONE|DICT|INTERRES
    51   24   84 1    
    52   25   26 2    
    53   27   28 2    
    54   27   29 am   BACKBONE|DICT|INTERRES
    55   29   30 1    
    56   29   85 1    
    57   30   31 1    
    58   30   32 1    
    59   30   86 1    
    60   31   87 1    
    61   31   88 1    
    62   31   89 1    
    63   32   33 2    
    64   32   34 am   BACKBONE|DICT|INTERRES
    65   34   35 1    
    66   34   90 1    
    67   35   36 1    
    68   35   37 1    
    69   35   91 1    
    70   36   92 1    
    71   36   93 1    
    72   36   94 1    
    73   37   38 2    
    74   37   39 am   BACKBONE|DICT|INTERRES
    75   39   40 1    
    76   39   95 1    
    77   40   41 1    
    78   40   42 1    
    79   40   96 1    
    80   41   97 1    
    81   41   98 1    
    82   41   99 1    
    83   42   43 2    
    84   42   44 am   BACKBONE|DICT|INTERRES
    85   44   45 1    
    86   44  100 1    
    87   45   46 1    
    88   45   47 1    
    89   45  101 1    
    90   46  102 1    
    91   46  103 1    
    92   46  104 1    
    93   47   48 2    
    94   47   49 am   BACKBONE|DICT|INTERRES
    95   49   50 1    
    96   49  105 1    
    97   50   51 1    
    98   50   52 1    
    99   50  106 1    
   100   51  107 1    
   101   51  108 1    
   102   51  109 1    
   103   52   53 2    
   104   52   54 am   BACKBONE|DICT|INTERRES
   105   54   55 1    
   106   54  110 1    
   107   55   56 1    
   108   55   59 1    
   109   55  111 1    
   110   56   57 am   BACKBONE|DICT|INTERRES
   111   56   58 2    
   112   57  112 1    
   113   57  113 1    
   114   59   60 1    
   115   59  114 1    
   116   59  115 1    
   117   60   61 1    
   118   61  116 1    
   119   61  117 1    
@<TRIPOS>SUBSTRUCTURE
     1 UNK         1 GROUP             0       ****    0 ROOT    
