@<TRIPOS>MOLECULE
3R8
117   119    1
SMALL
USER_CHARGES


@<TRIPOS>ATOM
      1 CA         16.7277  -22.6351  -45.7687 C.3       0 UNK        -0.2013 
      2 C          16.9925  -24.0166  -45.1901 C.2       0 UNK         0.4866 
      3 O          18.0806  -24.5601  -45.3873 O.2       0 UNK        -0.5176 
      4 N          16.0049  -24.5846  -44.4808 N.am      1 UNK        -0.4884 
      5 CA         16.0710  -25.8876  -43.8097 C.3       1 UNK         0.0853 
      6 C6         14.6661  -26.3451  -43.3375 C.3       10 UNK        -0.0849 
      7 S7         14.6037  -27.9221  -42.4131 S.3       10 UNK        -0.2776 
      8 C8         14.9860  -29.1697  -43.6888 C.3       10 UNK         0.0316 
      9 C9         16.4855  -29.3807  -43.8727 C.ar      10 UNK        -0.0863 
     10 C10        17.2871  -29.7369  -42.7825 C.ar      10 UNK        -0.1009 
     11 C11        18.6599  -29.9434  -42.9428 C.ar      10 UNK        -0.0712 
     12 C12        19.2311  -29.8111  -44.2116 C.ar      10 UNK        -0.0894 
     13 C13        18.4423  -29.4620  -45.3114 C.ar      10 UNK        -0.0745 
     14 C14        17.0708  -29.2490  -45.1362 C.ar      10 UNK        -0.0972 
     15 C15        19.0604  -29.3370  -46.6958 C.3       10 UNK         0.0209 
     16 S16        19.5427  -27.6234  -47.0761 S.3       10 UNK        -0.2568 
     17 C17        21.2472  -27.5428  -46.4254 C.3       10 UNK        -0.0983 
     18 CA         21.5172  -26.2299  -45.6341 C.3       3 UNK         0.0876 
     19 N          20.6172  -26.0732  -44.4850 N.am      3 UNK        -0.4424 
     20 C          20.6632  -26.7625  -43.3320 C.2       2 UNK         0.4918 
     21 O          21.4755  -27.6508  -43.0857 O.2       2 UNK        -0.4875 
     22 CA         19.5766  -26.4358  -42.3023 C.3       2 UNK         0.0481 
     23 CB         19.9327  -25.1185  -41.5811 C.3       2 UNK        -0.1831 
     24 N          18.3123  -26.3809  -43.0315 N.am      2 UNK        -0.4498 
     25 C          17.1337  -25.8545  -42.6898 C.2       1 UNK         0.5027 
     26 O          16.8770  -25.3240  -41.6070 O.2       1 UNK        -0.4969 
     27 C          22.9993  -26.0299  -45.2230 C.2       3 UNK         0.5005 
     28 O          23.2797  -25.2092  -44.3442 O.2       3 UNK        -0.5279 
     29 N          23.9264  -26.7635  -45.8557 N.am      4 UNK        -0.4463 
     30 CA         25.3325  -26.8337  -45.4474 C.3       4 UNK         0.0283 
     31 CB         26.1933  -27.2802  -46.6402 C.3       4 UNK        -0.1875 
     32 C          25.5328  -27.7853  -44.2547 C.2       4 UNK         0.4949 
     33 O          26.3830  -27.5259  -43.4033 O.2       4 UNK        -0.5039 
     34 N          24.7371  -28.8621  -44.1997 N.am      5 UNK        -0.4663 
     35 CA         24.7747  -29.9042  -43.1709 C.3       5 UNK         0.0242 
     36 CB         24.2966  -31.2286  -43.7981 C.3       5 UNK        -0.1982 
     37 C          23.9529  -29.5135  -41.9281 C.2       5 UNK         0.5017 
     38 O          23.1139  -30.2977  -41.4793 O.2       5 UNK        -0.5012 
     39 N          24.2022  -28.3091  -41.3961 N.am      6 UNK        -0.4439 
     40 CA         23.5035  -27.7140  -40.2544 C.3       6 UNK         0.0297 
     41 CB         24.0508  -26.2993  -40.0038 C.3       6 UNK        -0.2006 
     42 C          23.6067  -28.5943  -38.9971 C.2       6 UNK         0.4892 
     43 O          24.6889  -28.7031  -38.4180 O.2       6 UNK        -0.5089 
     44 N          22.4829  -29.2391  -38.6495 N.am      7 UNK        -0.4243 
     45 CA         22.3111  -30.2449  -37.5912 C.3       7 UNK         0.0196 
     46 CB         22.5951  -29.6415  -36.1987 C.3       7 UNK        -0.2007 
     47 C          23.0826  -31.5623  -37.8316 C.2       7 UNK         0.5020 
     48 O          23.2201  -32.3549  -36.8987 O.2       7 UNK        -0.5147 
     49 N          23.5508  -31.7923  -39.0654 N.am      8 UNK        -0.4734 
     50 CA         24.2756  -32.9946  -39.4902 C.3       8 UNK         0.0238 
     51 CB         25.6617  -32.5763  -40.0109 C.3       8 UNK        -0.1912 
     52 C          23.5100  -33.7907  -40.5624 C.2       8 UNK         0.5038 
     53 O          23.9340  -34.8989  -40.8942 O.2       8 UNK        -0.5046 
     54 N          22.4195  -33.2218  -41.0935 N.am      9 UNK        -0.4200 
     55 CA         21.5177  -33.8311  -42.0794 C.3       9 UNK         0.0839 
     56 C          20.8312  -35.1395  -41.5902 C.2       9 UNK         0.5513 
     57 N          20.4409  -36.0104  -42.5115 N.am      9 UNK        -0.7519 
     58 O          20.6226  -35.3607  -40.3986 O.2       9 UNK        -0.4960 
     59 C59        20.4889  -32.7964  -42.6118 C.3       10 UNK        -0.0876 
     60 S60        19.4499  -32.0414  -41.3082 S.3       10 UNK        -0.2414 
     61 C61        19.5256  -30.2758  -41.7363 C.3       10 UNK         0.0169 
     62 H62        17.4486  -21.9197  -45.3739 H         1 UNK         0.0903 
     63 H63        16.8299  -22.6581  -46.8533 H         1 UNK         0.0903 
     64 H64        15.7269  -22.2759  -45.5298 H         1 UNK         0.0903 
     65 H65        15.1483  -24.0677  -44.3400 H         1 UNK         0.3096 
     66 H66        16.3984  -26.6037  -44.5648 H         1 UNK         0.1121 
     67 H67        13.9964  -26.4261  -44.1952 H         1 UNK         0.0849 
     68 H68        14.2287  -25.5802  -42.6930 H         1 UNK         0.0849 
     69 H69        14.5414  -30.1195  -43.3887 H         1 UNK         0.0865 
     70 H70        14.5045  -28.8927  -44.6280 H         1 UNK         0.0865 
     71 H71        16.8426  -29.8433  -41.8022 H         1 UNK         0.1346 
     72 H72        20.2937  -29.9654  -44.3378 H         1 UNK         0.1412 
     73 H73        16.4602  -28.9848  -45.9892 H         1 UNK         0.1426 
     74 H74        18.3394  -29.6668  -47.4453 H         1 UNK         0.0716 
     75 H75        19.9202  -30.0010  -46.7978 H         1 UNK         0.0716 
     76 H76        21.4500  -28.4134  -45.8001 H         1 UNK         0.0695 
     77 H77        21.9030  -27.6224  -47.2935 H         1 UNK         0.0695 
     78 H78        21.2937  -25.3944  -46.2995 H         1 UNK         0.0983 
     79 H79        19.8884  -25.3777  -44.6046 H         1 UNK         0.3095 
     80 H80        19.5229  -27.2470  -41.5751 H         1 UNK         0.0454 
     81 H81        20.9542  -25.1480  -41.1986 H         1 UNK         0.0851 
     82 H82        19.8583  -24.2577  -42.2465 H         1 UNK         0.0851 
     83 H83        19.2836  -24.9398  -40.7247 H         1 UNK         0.0851 
     84 H84        18.3742  -26.7869  -43.9574 H         1 UNK         0.2976 
     85 H85        23.6350  -27.3793  -46.6009 H         1 UNK         0.3116 
     86 H86        25.6680  -25.8394  -45.1439 H         1 UNK         0.0646 
     87 H87        27.2482  -27.3191  -46.3647 H         1 UNK         0.0847 
     88 H88        26.1048  -26.5855  -47.4757 H         1 UNK         0.0847 
     89 H89        25.9142  -28.2726  -46.9965 H         1 UNK         0.0847 
     90 H90        24.0215  -28.9613  -44.9033 H         1 UNK         0.3040 
     91 H91        25.8064  -30.0444  -42.8405 H         1 UNK         0.1015 
     92 H92        24.9057  -31.5029  -44.6594 H         1 UNK         0.0786 
     93 H93        23.2583  -31.1670  -44.1262 H         1 UNK         0.0786 
     94 H94        24.3640  -32.0503  -43.0845 H         1 UNK         0.0786 
     95 H95        24.9271  -27.7526  -41.8328 H         1 UNK         0.3172 
     96 H96        22.4513  -27.6180  -40.5297 H         1 UNK         0.0595 
     97 H97        23.9002  -25.6576  -40.8725 H         1 UNK         0.0839 
     98 H98        25.1175  -26.3126  -39.7760 H         1 UNK         0.0839 
     99 H99        23.5429  -25.8285  -39.1611 H         1 UNK         0.0839 
    100 H100       21.6702  -29.0935  -39.2325 H         1 UNK         0.2998 
    101 H101       21.2554  -30.5194  -37.6157 H         1 UNK         0.0822 
    102 H102       22.3068  -30.3327  -35.4057 H         1 UNK         0.0787 
    103 H103       23.6533  -29.4172  -36.0616 H         1 UNK         0.0787 
    104 H104       22.0331  -28.7208  -36.0423 H         1 UNK         0.0787 
    105 H105       23.3901  -31.0923  -39.7863 H         1 UNK         0.3055 
    106 H106       24.4193  -33.6720  -38.6456 H         1 UNK         0.1106 
    107 H107       25.5882  -31.9205  -40.8779 H         1 UNK         0.0828 
    108 H108       26.2297  -32.0515  -39.2426 H         1 UNK         0.0828 
    109 H109       26.2482  -33.4465  -40.3087 H         1 UNK         0.0828 
    110 H110       22.1573  -32.2989  -40.7797 H         1 UNK         0.2931 
    111 H111       22.1526  -34.1122  -42.9222 H         1 UNK         0.0412 
    112 H112       19.9832  -36.8601  -42.2191 H         1 UNK         0.3472 
    113 H113       20.6008  -35.8410  -43.4926 H         1 UNK         0.3472 
    114 H114       19.8339  -33.2475  -43.3593 H         1 UNK         0.0970 
    115 H115       21.0282  -32.0082  -43.1381 H         1 UNK         0.0970 
    116 H116       20.5597  -29.9786  -41.9102 H         1 UNK         0.0612 
    117 H117       19.1860  -29.6954  -40.8775 H         1 UNK         0.0612 
@<TRIPOS>BOND
     1    1    2 1    
     2    1   62 1    
     3    1   63 1    
     4    1   64 1    
     5    2    3 2    
     6    2    4 am   BACKBONE|DICT|INTERRES
     7    4    5 1    
     8    4   65 1    
     9    5    6 1    
    10    5   25 1    
    11    5   66 1    
    12    6    7 1    
    13    6   67 1    
    14    6   68 1    
    15    7    8 1    
    16    8    9 1    
    17    8   69 1    
    18    8   70 1    
    19    9   10 ar   
    20    9   14 ar   
    21   10   11 ar   
    22   10   71 1    
    23   11   12 ar   
    24   11   61 1    
    25   12   13 ar   
    26   12   72 1    
    27   13   14 ar   
    28   13   15 1    
    29   14   73 1    
    30   15   16 1    
    31   15   74 1    
    32   15   75 1    
    33   16   17 1    
    34   17   18 1    
    35   17   76 1    
    36   17   77 1    
    37   18   19 1    
    38   18   27 1    
    39   18   78 1    
    40   19   20 am   BACKBONE|DICT|INTERRES
    41   19   79 1    
    42   20   21 2    
    43   20   22 1    
    44   22   23 1    
    45   22   24 1    
    46   22   80 1    
    47   23   81 1    
    48   23   82 1    
    49   23   83 1    
    50   24   25 am   BACKBONE|DICT|INTERRES
    51   24   84 1    
    52   25   26 2    
    53   27   28 2    
    54   27   29 am   BACKBONE|DICT|INTERRES
    55   29   30 1    
    56   29   85 1    
    57   30   31 1    
    58   30   32 1    
    59   30   86 1    
    60   31   87 1    
    61   31   88 1    
    62   31   89 1    
    63   32   33 2    
    64   32   34 am   BACKBONE|DICT|INTERRES
    65   34   35 1    
    66   34   90 1    
    67   35   36 1    
    68   35   37 1    
    69   35   91 1    
    70   36   92 1    
    71   36   93 1    
    72   36   94 1    
    73   37   38 2    
    74   37   39 am   BACKBONE|DICT|INTERRES
    75   39   40 1    
    76   39   95 1    
    77   40   41 1    
    78   40   42 1    
    79   40   96 1    
    80   41   97 1    
    81   41   98 1    
    82   41   99 1    
    83   42   43 2    
    84   42   44 am   BACKBONE|DICT|INTERRES
    85   44   45 1    
    86   44  100 1    
    87   45   46 1    
    88   45   47 1    
    89   45  101 1    
    90   46  102 1    
    91   46  103 1    
    92   46  104 1    
    93   47   48 2    
    94   47   49 am   BACKBONE|DICT|INTERRES
    95   49   50 1    
    96   49  105 1    
    97   50   51 1    
    98   50   52 1    
    99   50  106 1    
   100   51  107 1    
   101   51  108 1    
   102   51  109 1    
   103   52   53 2    
   104   52   54 am   BACKBONE|DICT|INTERRES
   105   54   55 1    
   106   54  110 1    
   107   55   56 1    
   108   55   59 1    
   109   55  111 1    
   110   56   57 am   BACKBONE|DICT|INTERRES
   111   56   58 2    
   112   57  112 1    
   113   57  113 1    
   114   59   60 1    
   115   59  114 1    
   116   59  115 1    
   117   60   61 1    
   118   61  116 1    
   119   61  117 1    
@<TRIPOS>SUBSTRUCTURE
     1 UNK         1 GROUP             0       ****    0 ROOT    
