@<TRIPOS>MOLECULE
3R8
117   119    1
SMALL
USER_CHARGES


@<TRIPOS>ATOM
      1 CA         14.3293  -25.4327  -42.9244 C.3       0 UNK        -0.2013 
      2 C          15.2919  -24.9310  -43.9895 C.2       0 UNK         0.4866 
      3 O          15.6032  -23.7402  -44.0134 O.2       0 UNK        -0.5176 
      4 N          15.7437  -25.8205  -44.8843 N.am      1 UNK        -0.4884 
      5 CA         16.5810  -25.4850  -46.0443 C.3       1 UNK         0.0853 
      6 C6         16.6189  -26.6009  -47.1264 C.3       10 UNK        -0.0849 
      7 S7         14.9932  -27.3857  -47.4211 S.3       10 UNK        -0.2776 
      8 C8         15.4062  -29.1644  -47.4952 C.3       10 UNK         0.0316 
      9 C9         16.2177  -29.6657  -46.3028 C.ar      10 UNK        -0.0863 
     10 C10        17.4594  -30.2735  -46.5149 C.ar      10 UNK        -0.1009 
     11 C11        18.2071  -30.7685  -45.4421 C.ar      10 UNK        -0.0712 
     12 C12        17.7094  -30.6356  -44.1420 C.ar      10 UNK        -0.0894 
     13 C13        16.4799  -30.0116  -43.9123 C.ar      10 UNK        -0.0745 
     14 C14        15.7305  -29.5436  -44.9976 C.ar      10 UNK        -0.0972 
     15 C15        15.9510  -29.8478  -42.4956 C.3       10 UNK         0.0209 
     16 S16        16.2288  -28.1537  -41.8925 S.3       10 UNK        -0.2568 
     17 C17        17.6314  -28.3376  -40.7394 C.3       10 UNK        -0.0983 
     18 CA         19.0258  -28.2700  -41.4117 C.3       3 UNK         0.0876 
     19 N          19.1410  -27.1504  -42.3584 N.am      3 UNK        -0.4424 
     20 C          20.1854  -26.9189  -43.1676 C.2       2 UNK         0.4918 
     21 O          21.2617  -27.5045  -43.0631 O.2       2 UNK        -0.4875 
     22 CA         19.9837  -25.8834  -44.2865 C.3       2 UNK         0.0481 
     23 CB         21.0286  -26.0353  -45.4141 C.3       2 UNK        -0.1831 
     24 N          18.6266  -25.9967  -44.8222 N.am      2 UNK        -0.4498 
     25 C          18.0090  -25.1069  -45.6100 C.2       1 UNK         0.5027 
     26 O          18.5060  -24.0425  -45.9812 O.2       1 UNK        -0.4969 
     27 C          20.1337  -28.3222  -40.3353 C.2       3 UNK         0.5005 
     28 O          20.4352  -29.4060  -39.8369 O.2       3 UNK        -0.5279 
     29 N          20.7095  -27.1627  -39.9919 N.am      4 UNK        -0.4463 
     30 CA         21.7689  -27.0159  -38.9915 C.3       4 UNK         0.0283 
     31 CB         21.4685  -25.7650  -38.1468 C.3       4 UNK        -0.1875 
     32 C          23.1805  -26.9250  -39.6023 C.2       4 UNK         0.4949 
     33 O          24.1422  -26.8323  -38.8386 O.2       4 UNK        -0.5039 
     34 N          23.3062  -26.9147  -40.9381 N.am      5 UNK        -0.4663 
     35 CA         24.5914  -26.7786  -41.6301 C.3       5 UNK         0.0242 
     36 CB         24.3465  -26.3573  -43.0874 C.3       5 UNK        -0.1982 
     37 C          25.3967  -28.0855  -41.5842 C.2       5 UNK         0.5017 
     38 O          24.8132  -29.1601  -41.7394 O.2       5 UNK        -0.5012 
     39 N          26.7218  -27.9659  -41.4137 N.am      6 UNK        -0.4439 
     40 CA         27.6987  -29.0617  -41.3506 C.3       6 UNK         0.0297 
     41 CB         27.9001  -29.6753  -42.7562 C.3       6 UNK        -0.2006 
     42 C          27.3367  -30.0894  -40.2567 C.2       6 UNK         0.4892 
     43 O          27.0221  -29.6876  -39.1343 O.2       6 UNK        -0.5089 
     44 N          27.3492  -31.3851  -40.5938 N.am      7 UNK        -0.4243 
     45 CA         26.9044  -32.4850  -39.7357 C.3       7 UNK         0.0196 
     46 CB         27.6425  -33.7708  -40.1544 C.3       7 UNK        -0.2007 
     47 C          25.3705  -32.6360  -39.7833 C.2       7 UNK         0.5020 
     48 O          24.8702  -33.6913  -40.1760 O.2       7 UNK        -0.5147 
     49 N          24.6558  -31.5611  -39.4170 N.am      8 UNK        -0.4734 
     50 CA         23.1913  -31.4244  -39.3766 C.3       8 UNK         0.0238 
     51 CB         22.6226  -32.1883  -38.1630 C.3       8 UNK        -0.1912 
     52 C          22.5045  -31.8145  -40.7024 C.2       8 UNK         0.5038 
     53 O          21.5345  -32.5760  -40.6996 O.2       8 UNK        -0.5046 
     54 N          23.0537  -31.3083  -41.8139 N.am      9 UNK        -0.4200 
     55 CA         22.6335  -31.5786  -43.1960 C.3       9 UNK         0.0839 
     56 C          22.8492  -33.0507  -43.6732 C.2       9 UNK         0.5513 
     57 N          23.5829  -33.8892  -42.9492 N.am      9 UNK        -0.7519 
     58 O          22.3736  -33.4407  -44.7358 O.2       9 UNK        -0.4960 
     59 C59        21.2064  -31.0260  -43.4702 C.3       10 UNK        -0.0876 
     60 S60        20.9570  -30.4563  -45.1872 S.3       10 UNK        -0.2414 
     61 C61        19.5352  -31.4695  -45.7015 C.3       10 UNK         0.0169 
     62 H62        13.4355  -24.8099  -42.9028 H         1 UNK         0.0903 
     63 H63        14.0167  -26.4601  -43.1097 H         1 UNK         0.0903 
     64 H64        14.7986  -25.3882  -41.9420 H         1 UNK         0.0903 
     65 H65        15.4422  -26.7829  -44.8316 H         1 UNK         0.3096 
     66 H66        16.1412  -24.5989  -46.5086 H         1 UNK         0.1121 
     67 H67        16.9687  -26.1842  -48.0727 H         1 UNK         0.0849 
     68 H68        17.3466  -27.3703  -46.8669 H         1 UNK         0.0849 
     69 H69        14.4797  -29.7370  -47.5551 H         1 UNK         0.0865 
     70 H70        15.9377  -29.3532  -48.4293 H         1 UNK         0.0865 
     71 H71        17.8410  -30.3763  -47.5218 H         1 UNK         0.1346 
     72 H72        18.2768  -31.0197  -43.3074 H         1 UNK         0.1412 
     73 H73        14.7694  -29.0784  -44.8257 H         1 UNK         0.1426 
     74 H74        16.4056  -30.5756  -41.8220 H         1 UNK         0.0716 
     75 H75        14.8795  -30.0523  -42.4834 H         1 UNK         0.0716 
     76 H76        17.5163  -29.2719  -40.1864 H         1 UNK         0.0695 
     77 H77        17.5347  -27.5409  -39.9990 H         1 UNK         0.0695 
     78 H78        19.1374  -29.1772  -42.0051 H         1 UNK         0.0983 
     79 H79        18.3045  -26.5963  -42.4715 H         1 UNK         0.3095 
     80 H80        20.0967  -24.8973  -43.8327 H         1 UNK         0.0454 
     81 H81        22.0420  -25.9224  -45.0288 H         1 UNK         0.0851 
     82 H82        20.9666  -27.0174  -45.8845 H         1 UNK         0.0851 
     83 H83        20.9029  -25.2823  -46.1914 H         1 UNK         0.0851 
     84 H84        18.1324  -26.8475  -44.5876 H         1 UNK         0.2976 
     85 H85        20.4056  -26.3214  -40.4610 H         1 UNK         0.3116 
     86 H86        21.7684  -27.8777  -38.3207 H         1 UNK         0.0646 
     87 H87        22.2042  -25.6420  -37.3507 H         1 UNK         0.0847 
     88 H88        20.4906  -25.8336  -37.6699 H         1 UNK         0.0847 
     89 H89        21.4862  -24.8558  -38.7489 H         1 UNK         0.0847 
     90 H90        22.4950  -27.0896  -41.5225 H         1 UNK         0.3040 
     91 H91        25.1633  -25.9892  -41.1368 H         1 UNK         0.1015 
     92 H92        23.7491  -25.4473  -43.1445 H         1 UNK         0.0786 
     93 H93        23.8296  -27.1366  -43.6492 H         1 UNK         0.0786 
     94 H94        25.2888  -26.1607  -43.6003 H         1 UNK         0.0786 
     95 H95        27.1011  -27.0409  -41.2656 H         1 UNK         0.3172 
     96 H96        28.6457  -28.6148  -41.0447 H         1 UNK         0.0595 
     97 H97        28.7145  -30.4009  -42.7626 H         1 UNK         0.0839 
     98 H98        28.1620  -28.9059  -43.4827 H         1 UNK         0.0839 
     99 H99        27.0009  -30.1742  -43.1206 H         1 UNK         0.0839 
    100 H100       27.5824  -31.6261  -41.5462 H         1 UNK         0.2998 
    101 H101       27.1770  -32.2687  -38.7003 H         1 UNK         0.0822 
    102 H102       27.4139  -34.0527  -41.1831 H         1 UNK         0.0787 
    103 H103       28.7230  -33.6529  -40.0707 H         1 UNK         0.0787 
    104 H104       27.3595  -34.6087  -39.5158 H         1 UNK         0.0787 
    105 H105       25.1838  -30.7300  -39.1694 H         1 UNK         0.3055 
    106 H106       22.9797  -30.3635  -39.2310 H         1 UNK         0.1106 
    107 H107       22.7753  -33.2641  -38.2564 H         1 UNK         0.0828 
    108 H108       23.0885  -31.8614  -37.2336 H         1 UNK         0.0828 
    109 H109       21.5498  -32.0171  -38.0640 H         1 UNK         0.0828 
    110 H110       23.8272  -30.6512  -41.7190 H         1 UNK         0.2931 
    111 H111       23.3320  -30.9902  -43.7921 H         1 UNK         0.0412 
    112 H112       23.7189  -34.8307  -43.2811 H         1 UNK         0.3472 
    113 H113       23.9596  -33.6158  -42.0490 H         1 UNK         0.3472 
    114 H114       20.4538  -31.7589  -43.1782 H         1 UNK         0.0970 
    115 H115       21.0299  -30.1556  -42.8401 H         1 UNK         0.0970 
    116 H116       19.6446  -31.6863  -46.7651 H         1 UNK         0.0612 
    117 H117       19.5532  -32.4378  -45.1995 H         1 UNK         0.0612 
@<TRIPOS>BOND
     1    1    2 1    
     2    1   62 1    
     3    1   63 1    
     4    1   64 1    
     5    2    3 2    
     6    2    4 am   BACKBONE|DICT|INTERRES
     7    4    5 1    
     8    4   65 1    
     9    5    6 1    
    10    5   25 1    
    11    5   66 1    
    12    6    7 1    
    13    6   67 1    
    14    6   68 1    
    15    7    8 1    
    16    8    9 1    
    17    8   69 1    
    18    8   70 1    
    19    9   10 ar   
    20    9   14 ar   
    21   10   11 ar   
    22   10   71 1    
    23   11   12 ar   
    24   11   61 1    
    25   12   13 ar   
    26   12   72 1    
    27   13   14 ar   
    28   13   15 1    
    29   14   73 1    
    30   15   16 1    
    31   15   74 1    
    32   15   75 1    
    33   16   17 1    
    34   17   18 1    
    35   17   76 1    
    36   17   77 1    
    37   18   19 1    
    38   18   27 1    
    39   18   78 1    
    40   19   20 am   BACKBONE|DICT|INTERRES
    41   19   79 1    
    42   20   21 2    
    43   20   22 1    
    44   22   23 1    
    45   22   24 1    
    46   22   80 1    
    47   23   81 1    
    48   23   82 1    
    49   23   83 1    
    50   24   25 am   BACKBONE|DICT|INTERRES
    51   24   84 1    
    52   25   26 2    
    53   27   28 2    
    54   27   29 am   BACKBONE|DICT|INTERRES
    55   29   30 1    
    56   29   85 1    
    57   30   31 1    
    58   30   32 1    
    59   30   86 1    
    60   31   87 1    
    61   31   88 1    
    62   31   89 1    
    63   32   33 2    
    64   32   34 am   BACKBONE|DICT|INTERRES
    65   34   35 1    
    66   34   90 1    
    67   35   36 1    
    68   35   37 1    
    69   35   91 1    
    70   36   92 1    
    71   36   93 1    
    72   36   94 1    
    73   37   38 2    
    74   37   39 am   BACKBONE|DICT|INTERRES
    75   39   40 1    
    76   39   95 1    
    77   40   41 1    
    78   40   42 1    
    79   40   96 1    
    80   41   97 1    
    81   41   98 1    
    82   41   99 1    
    83   42   43 2    
    84   42   44 am   BACKBONE|DICT|INTERRES
    85   44   45 1    
    86   44  100 1    
    87   45   46 1    
    88   45   47 1    
    89   45  101 1    
    90   46  102 1    
    91   46  103 1    
    92   46  104 1    
    93   47   48 2    
    94   47   49 am   BACKBONE|DICT|INTERRES
    95   49   50 1    
    96   49  105 1    
    97   50   51 1    
    98   50   52 1    
    99   50  106 1    
   100   51  107 1    
   101   51  108 1    
   102   51  109 1    
   103   52   53 2    
   104   52   54 am   BACKBONE|DICT|INTERRES
   105   54   55 1    
   106   54  110 1    
   107   55   56 1    
   108   55   59 1    
   109   55  111 1    
   110   56   57 am   BACKBONE|DICT|INTERRES
   111   56   58 2    
   112   57  112 1    
   113   57  113 1    
   114   59   60 1    
   115   59  114 1    
   116   59  115 1    
   117   60   61 1    
   118   61  116 1    
   119   61  117 1    
@<TRIPOS>SUBSTRUCTURE
     1 UNK         1 GROUP             0       ****    0 ROOT    
