@<TRIPOS>MOLECULE
3R8
117   119    1
SMALL
USER_CHARGES


@<TRIPOS>ATOM
      1 CA         22.6535  -29.9856  -48.1637 C.3       0 UNK        -0.2013 
      2 C          21.4299  -30.0583  -47.2617 C.2       0 UNK         0.4866 
      3 O          20.6933  -31.0430  -47.3114 O.2       0 UNK        -0.5176 
      4 N          21.2189  -29.0247  -46.4410 N.am      1 UNK        -0.4884 
      5 CA         20.1055  -28.8900  -45.5013 C.3       1 UNK         0.0853 
      6 C6         19.0364  -27.8977  -46.0289 C.3       10 UNK        -0.0849 
      7 S7         17.9868  -28.6880  -47.2978 S.3       10 UNK        -0.2776 
      8 C8         16.3282  -28.7079  -46.5338 C.3       10 UNK         0.0316 
      9 C9         16.3310  -29.0865  -45.0564 C.ar      10 UNK        -0.0863 
     10 C10        16.8780  -30.2988  -44.6233 C.ar      10 UNK        -0.1009 
     11 C11        16.8988  -30.6247  -43.2627 C.ar      10 UNK        -0.0712 
     12 C12        16.3269  -29.7416  -42.3385 C.ar      10 UNK        -0.0894 
     13 C13        15.7472  -28.5408  -42.7635 C.ar      10 UNK        -0.0745 
     14 C14        15.7690  -28.2136  -44.1207 C.ar      10 UNK        -0.0972 
     15 C15        15.0215  -27.6317  -41.7783 C.3       10 UNK         0.0209 
     16 S16        16.1013  -26.9479  -40.4850 S.3       10 UNK        -0.2568 
     17 C17        17.0807  -25.6952  -41.3824 C.3       10 UNK        -0.0983 
     18 CA         18.5695  -25.8123  -40.9856 C.3       3 UNK         0.0876 
     19 N          19.1720  -27.0460  -41.4861 N.am      3 UNK        -0.4424 
     20 C          20.3640  -27.5033  -41.0926 C.2       2 UNK         0.4918 
     21 O          21.0615  -26.9473  -40.2431 O.2       2 UNK        -0.4875 
     22 CA         20.8713  -28.8014  -41.7236 C.3       2 UNK         0.0481 
     23 CB         20.5598  -29.9769  -40.7853 C.3       2 UNK        -0.1831 
     24 N          20.3385  -29.0687  -43.0629 N.am      2 UNK        -0.4498 
     25 C          20.7001  -28.4073  -44.1716 C.2       1 UNK         0.5027 
     26 O          21.4737  -27.4488  -44.1826 O.2       1 UNK        -0.4969 
     27 C          19.4185  -24.6011  -41.4230 C.2       3 UNK         0.5005 
     28 O          19.5018  -24.3136  -42.6187 O.2       3 UNK        -0.5279 
     29 N          20.0663  -23.9662  -40.4333 N.am      4 UNK        -0.4463 
     30 CA         21.0692  -22.9005  -40.5455 C.3       4 UNK         0.0283 
     31 CB         20.5038  -21.6563  -41.2657 C.3       4 UNK        -0.1875 
     32 C          22.4231  -23.3737  -41.1207 C.2       4 UNK         0.4949 
     33 O          23.1203  -22.5743  -41.7481 O.2       4 UNK        -0.5039 
     34 N          22.7992  -24.6389  -40.8749 N.am      5 UNK        -0.4663 
     35 CA         24.1023  -25.1974  -41.2656 C.3       5 UNK         0.0242 
     36 CB         24.0286  -25.7837  -42.6843 C.3       5 UNK        -0.1982 
     37 C          24.6366  -26.2542  -40.2857 C.2       5 UNK         0.5017 
     38 O          25.8498  -26.3077  -40.0831 O.2       5 UNK        -0.5012 
     39 N          23.7424  -27.0735  -39.7093 N.am      6 UNK        -0.4439 
     40 CA         24.0123  -28.2015  -38.8071 C.3       6 UNK         0.0297 
     41 CB         24.5462  -27.6984  -37.4488 C.3       6 UNK        -0.2006 
     42 C          24.9082  -29.2827  -39.4482 C.2       6 UNK         0.4892 
     43 O          25.8969  -29.7044  -38.8444 O.2       6 UNK        -0.5089 
     44 N          24.5519  -29.7036  -40.6682 N.am      7 UNK        -0.4243 
     45 CA         25.2837  -30.6770  -41.4765 C.3       7 UNK         0.0196 
     46 CB         26.4451  -29.9668  -42.2010 C.3       7 UNK        -0.2007 
     47 C          24.3293  -31.3403  -42.4795 C.2       7 UNK         0.5020 
     48 O          23.1780  -30.9219  -42.6017 O.2       7 UNK        -0.5147 
     49 N          24.8344  -32.3531  -43.1949 N.am      8 UNK        -0.4734 
     50 CA         24.2178  -33.0847  -44.3140 C.3       8 UNK         0.0238 
     51 CB         23.8253  -32.1363  -45.4627 C.3       8 UNK        -0.1912 
     52 C          23.0458  -34.0125  -43.9460 C.2       8 UNK         0.5038 
     53 O          23.0245  -35.1464  -44.4272 O.2       8 UNK        -0.5046 
     54 N          22.1038  -33.5440  -43.1176 N.am      9 UNK        -0.4200 
     55 CA         20.9324  -34.3249  -42.6723 C.3       9 UNK         0.0839 
     56 C          21.2600  -35.4671  -41.6651 C.2       9 UNK         0.5513 
     57 N          22.4458  -35.5130  -41.0693 N.am      9 UNK        -0.7519 
     58 O          20.4199  -36.3299  -41.4228 O.2       9 UNK        -0.4960 
     59 C59        19.7862  -33.4348  -42.1234 C.3       10 UNK        -0.0876 
     60 S60        19.2374  -32.1439  -43.2906 S.3       10 UNK        -0.2414 
     61 C61        17.4955  -31.9469  -42.7922 C.3       10 UNK         0.0169 
     62 H62        23.2052  -30.9243  -48.1329 H         1 UNK         0.0903 
     63 H63        22.3468  -29.8071  -49.1939 H         1 UNK         0.0903 
     64 H64        23.3318  -29.1861  -47.8660 H         1 UNK         0.0903 
     65 H65        21.8892  -28.2681  -46.3937 H         1 UNK         0.3096 
     66 H66        19.6449  -29.8648  -45.3273 H         1 UNK         0.1121 
     67 H67        19.5107  -27.0175  -46.4671 H         1 UNK         0.0849 
     68 H68        18.4140  -27.5131  -45.2199 H         1 UNK         0.0849 
     69 H69        15.8776  -27.7246  -46.6777 H         1 UNK         0.0865 
     70 H70        15.6977  -29.4116  -47.0789 H         1 UNK         0.0865 
     71 H71        17.3028  -30.9828  -45.3459 H         1 UNK         0.1346 
     72 H72        16.3066  -29.9967  -41.2875 H         1 UNK         0.1412 
     73 H73        15.3224  -27.2861  -44.4532 H         1 UNK         0.1426 
     74 H74        14.2308  -28.2082  -41.2963 H         1 UNK         0.0716 
     75 H75        14.5226  -26.8092  -42.2934 H         1 UNK         0.0716 
     76 H76        16.6845  -24.7124  -41.1207 H         1 UNK         0.0695 
     77 H77        16.9532  -25.8062  -42.4608 H         1 UNK         0.0695 
     78 H78        18.6064  -25.8600  -39.8942 H         1 UNK         0.0983 
     79 H79        18.6538  -27.5549  -42.1859 H         1 UNK         0.3095 
     80 H80        21.9551  -28.7086  -41.8059 H         1 UNK         0.0454 
     81 H81        19.4897  -30.1805  -40.7306 H         1 UNK         0.0851 
     82 H82        20.9060  -29.7767  -39.7704 H         1 UNK         0.0851 
     83 H83        21.0616  -30.8840  -41.1142 H         1 UNK         0.0851 
     84 H84        19.7225  -29.8678  -43.1478 H         1 UNK         0.2976 
     85 H85        19.9266  -24.3119  -39.4930 H         1 UNK         0.3116 
     86 H86        21.2852  -22.5986  -39.5196 H         1 UNK         0.0646 
     87 H87        19.5515  -21.3454  -40.8365 H         1 UNK         0.0847 
     88 H88        21.1872  -20.8108  -41.1783 H         1 UNK         0.0847 
     89 H89        20.3511  -21.8362  -42.3301 H         1 UNK         0.0847 
     90 H90        22.1621  -25.2496  -40.3766 H         1 UNK         0.3040 
     91 H91        24.8398  -24.3910  -41.2710 H         1 UNK         0.1015 
     92 H92        23.3710  -26.6508  -42.7162 H         1 UNK         0.0786 
     93 H93        25.0122  -26.1109  -43.0236 H         1 UNK         0.0786 
     94 H94        23.6605  -25.0536  -43.4052 H         1 UNK         0.0786 
     95 H95        22.7587  -26.9618  -39.9508 H         1 UNK         0.3172 
     96 H96        23.0486  -28.6780  -38.6213 H         1 UNK         0.0595 
     97 H97        25.5290  -27.2357  -37.5446 H         1 UNK         0.0839 
     98 H98        23.8725  -26.9658  -37.0047 H         1 UNK         0.0839 
     99 H99        24.6430  -28.5206  -36.7388 H         1 UNK         0.0839 
    100 H100       23.6962  -29.3721  -41.0934 H         1 UNK         0.2998 
    101 H101       25.6790  -31.4598  -40.8256 H         1 UNK         0.0822 
    102 H102       27.0337  -30.6652  -42.7967 H         1 UNK         0.0787 
    103 H103       26.0801  -29.1890  -42.8732 H         1 UNK         0.0787 
    104 H104       27.1285  -29.4981  -41.4925 H         1 UNK         0.0787 
    105 H105       25.7804  -32.6396  -42.9812 H         1 UNK         0.3055 
    106 H106       25.0053  -33.7363  -44.6974 H         1 UNK         0.1106 
    107 H107       24.6747  -31.5404  -45.7962 H         1 UNK         0.0828 
    108 H108       23.4639  -32.6998  -46.3239 H         1 UNK         0.0828 
    109 H109       23.0285  -31.4524  -45.1698 H         1 UNK         0.0828 
    110 H110       22.1906  -32.5883  -42.7862 H         1 UNK         0.2931 
    111 H111       20.5374  -34.8241  -43.5596 H         1 UNK         0.0412 
    112 H112       22.6459  -36.2596  -40.4221 H         1 UNK         0.3472 
    113 H113       23.1422  -34.8120  -41.2642 H         1 UNK         0.3472 
    114 H114       18.9230  -34.0580  -41.8805 H         1 UNK         0.0970 
    115 H115       20.0835  -32.9621  -41.1869 H         1 UNK         0.0970 
    116 H116       16.9108  -32.7726  -43.1998 H         1 UNK         0.0612 
    117 H117       17.4289  -32.0236  -41.7057 H         1 UNK         0.0612 
@<TRIPOS>BOND
     1    1    2 1    
     2    1   62 1    
     3    1   63 1    
     4    1   64 1    
     5    2    3 2    
     6    2    4 am   BACKBONE|DICT|INTERRES
     7    4    5 1    
     8    4   65 1    
     9    5    6 1    
    10    5   25 1    
    11    5   66 1    
    12    6    7 1    
    13    6   67 1    
    14    6   68 1    
    15    7    8 1    
    16    8    9 1    
    17    8   69 1    
    18    8   70 1    
    19    9   10 ar   
    20    9   14 ar   
    21   10   11 ar   
    22   10   71 1    
    23   11   12 ar   
    24   11   61 1    
    25   12   13 ar   
    26   12   72 1    
    27   13   14 ar   
    28   13   15 1    
    29   14   73 1    
    30   15   16 1    
    31   15   74 1    
    32   15   75 1    
    33   16   17 1    
    34   17   18 1    
    35   17   76 1    
    36   17   77 1    
    37   18   19 1    
    38   18   27 1    
    39   18   78 1    
    40   19   20 am   BACKBONE|DICT|INTERRES
    41   19   79 1    
    42   20   21 2    
    43   20   22 1    
    44   22   23 1    
    45   22   24 1    
    46   22   80 1    
    47   23   81 1    
    48   23   82 1    
    49   23   83 1    
    50   24   25 am   BACKBONE|DICT|INTERRES
    51   24   84 1    
    52   25   26 2    
    53   27   28 2    
    54   27   29 am   BACKBONE|DICT|INTERRES
    55   29   30 1    
    56   29   85 1    
    57   30   31 1    
    58   30   32 1    
    59   30   86 1    
    60   31   87 1    
    61   31   88 1    
    62   31   89 1    
    63   32   33 2    
    64   32   34 am   BACKBONE|DICT|INTERRES
    65   34   35 1    
    66   34   90 1    
    67   35   36 1    
    68   35   37 1    
    69   35   91 1    
    70   36   92 1    
    71   36   93 1    
    72   36   94 1    
    73   37   38 2    
    74   37   39 am   BACKBONE|DICT|INTERRES
    75   39   40 1    
    76   39   95 1    
    77   40   41 1    
    78   40   42 1    
    79   40   96 1    
    80   41   97 1    
    81   41   98 1    
    82   41   99 1    
    83   42   43 2    
    84   42   44 am   BACKBONE|DICT|INTERRES
    85   44   45 1    
    86   44  100 1    
    87   45   46 1    
    88   45   47 1    
    89   45  101 1    
    90   46  102 1    
    91   46  103 1    
    92   46  104 1    
    93   47   48 2    
    94   47   49 am   BACKBONE|DICT|INTERRES
    95   49   50 1    
    96   49  105 1    
    97   50   51 1    
    98   50   52 1    
    99   50  106 1    
   100   51  107 1    
   101   51  108 1    
   102   51  109 1    
   103   52   53 2    
   104   52   54 am   BACKBONE|DICT|INTERRES
   105   54   55 1    
   106   54  110 1    
   107   55   56 1    
   108   55   59 1    
   109   55  111 1    
   110   56   57 am   BACKBONE|DICT|INTERRES
   111   56   58 2    
   112   57  112 1    
   113   57  113 1    
   114   59   60 1    
   115   59  114 1    
   116   59  115 1    
   117   60   61 1    
   118   61  116 1    
   119   61  117 1    
@<TRIPOS>SUBSTRUCTURE
     1 UNK         1 GROUP             0       ****    0 ROOT    
