@<TRIPOS>MOLECULE
3R8
117   119    1
SMALL
USER_CHARGES


@<TRIPOS>ATOM
      1 CA         20.0847  -24.7606  -41.4085 C.3       0 UNK        -0.2013 
      2 C          19.3174  -25.1211  -42.6701 C.2       0 UNK         0.4866 
      3 O          19.8005  -25.9279  -43.4650 O.2       0 UNK        -0.5176 
      4 N          18.1402  -24.5043  -42.8488 N.am      1 UNK        -0.4884 
      5 CA         17.1442  -24.6722  -43.9244 C.3       1 UNK         0.0853 
      6 C6         15.9912  -25.6521  -43.5334 C.3       10 UNK        -0.0849 
      7 S7         16.1538  -27.4145  -43.9770 S.3       10 UNK        -0.2776 
      8 C8         17.0365  -28.1183  -42.5485 C.3       10 UNK         0.0316 
      9 C9         17.7289  -29.4212  -42.9286 C.ar      10 UNK        -0.0863 
     10 C10        17.5273  -30.5887  -42.1875 C.ar      10 UNK        -0.1009 
     11 C11        18.1249  -31.7903  -42.5834 C.ar      10 UNK        -0.0712 
     12 C12        18.9271  -31.8129  -43.7297 C.ar      10 UNK        -0.0894 
     13 C13        19.1655  -30.6494  -44.4669 C.ar      10 UNK        -0.0745 
     14 C14        18.5660  -29.4566  -44.0468 C.ar      10 UNK        -0.0972 
     15 C15        20.0491  -30.7453  -45.7150 C.3       10 UNK         0.0209 
     16 S16        20.2587  -29.2038  -46.6785 S.3       10 UNK        -0.2568 
     17 C17        21.4216  -28.3002  -45.6091 C.3       10 UNK        -0.0983 
     18 CA         21.8013  -26.9130  -46.1799 C.3       3 UNK         0.0876 
     19 N          20.6741  -25.9700  -46.2251 N.am      3 UNK        -0.4424 
     20 C          20.5982  -24.9535  -47.0963 C.2       2 UNK         0.4918 
     21 O          21.3625  -24.8325  -48.0549 O.2       2 UNK        -0.4875 
     22 CA         19.5624  -23.8378  -46.8487 C.3       2 UNK         0.0481 
     23 CB         18.6804  -23.5757  -48.0880 C.3       2 UNK        -0.1831 
     24 N          18.7774  -23.9743  -45.6133 N.am      2 UNK        -0.4498 
     25 C          17.7163  -24.7594  -45.3670 C.2       1 UNK         0.5027 
     26 O          17.1984  -25.4874  -46.2134 O.2       1 UNK        -0.4969 
     27 C          22.9509  -26.3178  -45.3462 C.2       3 UNK         0.5005 
     28 O          24.1153  -26.5108  -45.6972 O.2       3 UNK        -0.5279 
     29 N          22.5939  -25.6282  -44.2487 N.am      4 UNK        -0.4463 
     30 CA         23.4810  -25.0420  -43.2331 C.3       4 UNK         0.0283 
     31 CB         24.3931  -23.9549  -43.8404 C.3       4 UNK        -0.1875 
     32 C          24.2622  -26.0990  -42.4238 C.2       4 UNK         0.4949 
     33 O          25.3221  -25.7930  -41.8765 O.2       4 UNK        -0.5039 
     34 N          23.7139  -27.3184  -42.3469 N.am      5 UNK        -0.4663 
     35 CA         24.2903  -28.4716  -41.6523 C.3       5 UNK         0.0242 
     36 CB         25.1514  -29.2882  -42.6358 C.3       5 UNK        -0.1982 
     37 C          23.1902  -29.3210  -40.9960 C.2       5 UNK         0.5017 
     38 O          23.3619  -30.5303  -40.8452 O.2       5 UNK        -0.5012 
     39 N          22.0750  -28.6835  -40.6105 N.am      6 UNK        -0.4439 
     40 CA         20.8527  -29.3156  -40.0921 C.3       6 UNK         0.0297 
     41 CB         19.7701  -28.2382  -39.9332 C.3       6 UNK        -0.2006 
     42 C          21.0175  -30.1076  -38.7793 C.2       6 UNK         0.4892 
     43 O          20.1415  -30.9051  -38.4475 O.2       6 UNK        -0.5089 
     44 N          22.1268  -29.8899  -38.0596 N.am      7 UNK        -0.4243 
     45 CA         22.5253  -30.6820  -36.8940 C.3       7 UNK         0.0196 
     46 CB         23.6264  -29.9316  -36.1272 C.3       7 UNK        -0.2007 
     47 C          23.0008  -32.1001  -37.2659 C.2       7 UNK         0.5020 
     48 O          22.8849  -33.0040  -36.4379 O.2       7 UNK        -0.5147 
     49 N          23.5321  -32.2685  -38.4848 N.am      8 UNK        -0.4734 
     50 CA         24.0246  -33.5410  -39.0192 C.3       8 UNK         0.0238 
     51 CB         25.4632  -33.3423  -39.5255 C.3       8 UNK        -0.1912 
     52 C          23.1367  -34.0775  -40.1533 C.2       8 UNK         0.5038 
     53 O          23.0740  -35.2944  -40.3311 O.2       8 UNK        -0.5046 
     54 N          22.4909  -33.1729  -40.9027 N.am      9 UNK        -0.4200 
     55 CA         21.6713  -33.4350  -42.0978 C.3       9 UNK         0.0839 
     56 C          22.4825  -33.9168  -43.3389 C.2       9 UNK         0.5513 
     57 N          23.7988  -33.7466  -43.3753 N.am      9 UNK        -0.7519 
     58 O          21.9099  -34.4179  -44.3032 O.2       9 UNK        -0.4960 
     59 C59        20.4159  -34.3108  -41.8107 C.3       10 UNK        -0.0876 
     60 S60        19.2391  -33.4949  -40.6783 S.3       10 UNK        -0.2414 
     61 C61        17.8646  -33.0695  -41.7976 C.3       10 UNK         0.0169 
     62 H62        19.4146  -24.6752  -40.5532 H         1 UNK         0.0903 
     63 H63        20.6020  -23.8105  -41.5385 H         1 UNK         0.0903 
     64 H64        20.8263  -25.5236  -41.1768 H         1 UNK         0.0903 
     65 H65        17.8637  -23.8330  -42.1446 H         1 UNK         0.3096 
     66 H66        16.6603  -23.6934  -43.9416 H         1 UNK         0.1121 
     67 H67        15.7781  -25.5782  -42.4658 H         1 UNK         0.0849 
     68 H68        15.0766  -25.3123  -44.0223 H         1 UNK         0.0849 
     69 H69        17.7825  -27.4116  -42.1959 H         1 UNK         0.0865 
     70 H70        16.3321  -28.2678  -41.7289 H         1 UNK         0.0865 
     71 H71        16.8899  -30.5686  -41.3140 H         1 UNK         0.1346 
     72 H72        19.3689  -32.7436  -44.0561 H         1 UNK         0.1412 
     73 H73        18.7098  -28.5408  -44.6012 H         1 UNK         0.1426 
     74 H74        21.0326  -31.1216  -45.4289 H         1 UNK         0.0716 
     75 H75        19.6178  -31.4937  -46.3813 H         1 UNK         0.0716 
     76 H76        22.3116  -28.9248  -45.5038 H         1 UNK         0.0695 
     77 H77        20.9995  -28.2031  -44.6080 H         1 UNK         0.0695 
     78 H78        22.1839  -27.0656  -47.1919 H         1 UNK         0.0983 
     79 H79        20.0276  -26.0009  -45.4435 H         1 UNK         0.3095 
     80 H80        20.1540  -22.9343  -46.6940 H         1 UNK         0.0454 
     81 H81        17.9600  -22.7788  -47.9049 H         1 UNK         0.0851 
     82 H82        18.1308  -24.4655  -48.3951 H         1 UNK         0.0851 
     83 H83        19.2893  -23.2699  -48.9395 H         1 UNK         0.0851 
     84 H84        19.1168  -23.4244  -44.8359 H         1 UNK         0.2976 
     85 H85        21.6001  -25.5846  -44.0375 H         1 UNK         0.3116 
     86 H86        22.8277  -24.5454  -42.5157 H         1 UNK         0.0646 
     87 H87        23.8174  -23.2250  -44.4093 H         1 UNK         0.0847 
     88 H88        24.9234  -23.4090  -43.0593 H         1 UNK         0.0847 
     89 H89        25.1470  -24.3796  -44.5037 H         1 UNK         0.0847 
     90 H90        22.8458  -27.4824  -42.8371 H         1 UNK         0.3040 
     91 H91        24.9312  -28.1258  -40.8382 H         1 UNK         0.1015 
     92 H92        24.5507  -29.7003  -43.4477 H         1 UNK         0.0786 
     93 H93        25.6414  -30.1232  -42.1332 H         1 UNK         0.0786 
     94 H94        25.9363  -28.6749  -43.0787 H         1 UNK         0.0786 
     95 H95        22.0486  -27.6809  -40.7209 H         1 UNK         0.3172 
     96 H96        20.5127  -30.0267  -40.8488 H         1 UNK         0.0595 
     97 H97        18.8180  -28.6815  -39.6374 H         1 UNK         0.0839 
     98 H98        19.6036  -27.7139  -40.8719 H         1 UNK         0.0839 
     99 H99        20.0386  -27.5007  -39.1757 H         1 UNK         0.0839 
    100 H100       22.7817  -29.1967  -38.3897 H         1 UNK         0.2998 
    101 H101       21.6593  -30.7860  -36.2363 H         1 UNK         0.0822 
    102 H102       23.2832  -28.9507  -35.7978 H         1 UNK         0.0787 
    103 H103       23.9257  -30.4845  -35.2356 H         1 UNK         0.0787 
    104 H104       24.5195  -29.7895  -36.7371 H         1 UNK         0.0787 
    105 H105       23.5583  -31.4759  -39.1177 H         1 UNK         0.3055 
    106 H106       24.0417  -34.3033  -38.2368 H         1 UNK         0.1106 
    107 H107       26.1272  -33.0382  -38.7162 H         1 UNK         0.0828 
    108 H108       25.8639  -34.2680  -39.9412 H         1 UNK         0.0828 
    109 H109       25.5174  -32.5816  -40.3055 H         1 UNK         0.0828 
    110 H110       22.6783  -32.1891  -40.7311 H         1 UNK         0.2931 
    111 H111       21.3127  -32.4492  -42.3942 H         1 UNK         0.0412 
    112 H112       24.3134  -34.0496  -44.1873 H         1 UNK         0.3472 
    113 H113       24.2790  -33.3112  -42.6048 H         1 UNK         0.3472 
    114 H114       19.8918  -34.5647  -42.7322 H         1 UNK         0.0970 
    115 H115       20.7034  -35.2697  -41.3790 H         1 UNK         0.0970 
    116 H116       17.6646  -33.8970  -42.4797 H         1 UNK         0.0612 
    117 H117       16.9612  -32.9568  -41.1962 H         1 UNK         0.0612 
@<TRIPOS>BOND
     1    1    2 1    
     2    1   62 1    
     3    1   63 1    
     4    1   64 1    
     5    2    3 2    
     6    2    4 am   BACKBONE|DICT|INTERRES
     7    4    5 1    
     8    4   65 1    
     9    5    6 1    
    10    5   25 1    
    11    5   66 1    
    12    6    7 1    
    13    6   67 1    
    14    6   68 1    
    15    7    8 1    
    16    8    9 1    
    17    8   69 1    
    18    8   70 1    
    19    9   10 ar   
    20    9   14 ar   
    21   10   11 ar   
    22   10   71 1    
    23   11   12 ar   
    24   11   61 1    
    25   12   13 ar   
    26   12   72 1    
    27   13   14 ar   
    28   13   15 1    
    29   14   73 1    
    30   15   16 1    
    31   15   74 1    
    32   15   75 1    
    33   16   17 1    
    34   17   18 1    
    35   17   76 1    
    36   17   77 1    
    37   18   19 1    
    38   18   27 1    
    39   18   78 1    
    40   19   20 am   BACKBONE|DICT|INTERRES
    41   19   79 1    
    42   20   21 2    
    43   20   22 1    
    44   22   23 1    
    45   22   24 1    
    46   22   80 1    
    47   23   81 1    
    48   23   82 1    
    49   23   83 1    
    50   24   25 am   BACKBONE|DICT|INTERRES
    51   24   84 1    
    52   25   26 2    
    53   27   28 2    
    54   27   29 am   BACKBONE|DICT|INTERRES
    55   29   30 1    
    56   29   85 1    
    57   30   31 1    
    58   30   32 1    
    59   30   86 1    
    60   31   87 1    
    61   31   88 1    
    62   31   89 1    
    63   32   33 2    
    64   32   34 am   BACKBONE|DICT|INTERRES
    65   34   35 1    
    66   34   90 1    
    67   35   36 1    
    68   35   37 1    
    69   35   91 1    
    70   36   92 1    
    71   36   93 1    
    72   36   94 1    
    73   37   38 2    
    74   37   39 am   BACKBONE|DICT|INTERRES
    75   39   40 1    
    76   39   95 1    
    77   40   41 1    
    78   40   42 1    
    79   40   96 1    
    80   41   97 1    
    81   41   98 1    
    82   41   99 1    
    83   42   43 2    
    84   42   44 am   BACKBONE|DICT|INTERRES
    85   44   45 1    
    86   44  100 1    
    87   45   46 1    
    88   45   47 1    
    89   45  101 1    
    90   46  102 1    
    91   46  103 1    
    92   46  104 1    
    93   47   48 2    
    94   47   49 am   BACKBONE|DICT|INTERRES
    95   49   50 1    
    96   49  105 1    
    97   50   51 1    
    98   50   52 1    
    99   50  106 1    
   100   51  107 1    
   101   51  108 1    
   102   51  109 1    
   103   52   53 2    
   104   52   54 am   BACKBONE|DICT|INTERRES
   105   54   55 1    
   106   54  110 1    
   107   55   56 1    
   108   55   59 1    
   109   55  111 1    
   110   56   57 am   BACKBONE|DICT|INTERRES
   111   56   58 2    
   112   57  112 1    
   113   57  113 1    
   114   59   60 1    
   115   59  114 1    
   116   59  115 1    
   117   60   61 1    
   118   61  116 1    
   119   61  117 1    
@<TRIPOS>SUBSTRUCTURE
     1 UNK         1 GROUP             0       ****    0 ROOT    
