@<TRIPOS>MOLECULE
3R8
117   119    1
SMALL
USER_CHARGES


@<TRIPOS>ATOM
      1 CA         15.8655  -23.5195  -42.9413 C.3       0 UNK        -0.2013 
      2 C          16.4546  -24.8843  -43.2628 C.2       0 UNK         0.4866 
      3 O          17.3313  -24.9868  -44.1216 O.2       0 UNK        -0.5176 
      4 N          15.9848  -25.9356  -42.5791 N.am      1 UNK        -0.4884 
      5 CA         16.4323  -27.3234  -42.7425 C.3       1 UNK         0.0853 
      6 C6         15.3689  -28.3339  -42.2418 C.3       10 UNK        -0.0849 
      7 S7         13.9643  -28.4200  -43.4009 S.3       10 UNK        -0.2776 
      8 C8         14.3249  -29.9690  -44.2978 C.3       10 UNK         0.0316 
      9 C9         15.7176  -29.9831  -44.9203 C.ar      10 UNK        -0.0863 
     10 C10        16.6946  -30.8641  -44.4413 C.ar      10 UNK        -0.1009 
     11 C11        17.9663  -30.8924  -45.0204 C.ar      10 UNK        -0.0712 
     12 C12        18.2561  -30.0374  -46.0839 C.ar      10 UNK        -0.0894 
     13 C13        17.3020  -29.1330  -46.5564 C.ar      10 UNK        -0.0745 
     14 C14        16.0285  -29.1197  -45.9771 C.ar      10 UNK        -0.0972 
     15 C15        17.6366  -28.1894  -47.7045 C.3       10 UNK         0.0209 
     16 S16        18.6735  -26.7858  -47.1707 S.3       10 UNK        -0.2568 
     17 C17        20.3605  -27.4739  -47.3241 C.3       10 UNK        -0.0983 
     18 CA         21.2852  -27.1840  -46.1118 C.3       3 UNK         0.0876 
     19 N          20.6328  -27.3943  -44.8084 N.am      3 UNK        -0.4424 
     20 C          21.1444  -27.0093  -43.6270 C.2       2 UNK         0.4918 
     21 O          22.2744  -26.5356  -43.5046 O.2       2 UNK        -0.4875 
     22 CA         20.2572  -27.1753  -42.3827 C.3       2 UNK         0.0481 
     23 CB         20.6367  -26.2101  -41.2417 C.3       2 UNK        -0.1831 
     24 N          18.8494  -27.0176  -42.7382 N.am      2 UNK        -0.4498 
     25 C          17.8085  -27.5440  -42.0868 C.2       1 UNK         0.5027 
     26 O          17.8996  -28.1600  -41.0238 O.2       1 UNK        -0.4969 
     27 C          22.6163  -27.9553  -46.2617 C.2       3 UNK         0.5005 
     28 O          23.4744  -27.5374  -47.0404 O.2       3 UNK        -0.5279 
     29 N          22.7741  -29.0488  -45.5001 N.am      4 UNK        -0.4463 
     30 CA         24.0036  -29.8400  -45.3948 C.3       4 UNK         0.0283 
     31 CB         23.6578  -31.2075  -44.7815 C.3       4 UNK        -0.1875 
     32 C          25.1226  -29.1545  -44.5812 C.2       4 UNK         0.4949 
     33 O          26.2473  -29.6558  -44.5957 O.2       4 UNK        -0.5039 
     34 N          24.7985  -28.0450  -43.8956 N.am      5 UNK        -0.4663 
     35 CA         25.6243  -27.2632  -42.9661 C.3       5 UNK         0.0242 
     36 CB         26.9354  -26.7889  -43.6299 C.3       5 UNK        -0.1982 
     37 C          25.8788  -27.9915  -41.6330 C.2       5 UNK         0.5017 
     38 O          25.5220  -29.1613  -41.4754 O.2       5 UNK        -0.5012 
     39 N          26.4473  -27.2538  -40.6657 N.am      6 UNK        -0.4439 
     40 CA         26.8425  -27.6971  -39.3165 C.3       6 UNK         0.0297 
     41 CB         28.0536  -28.6497  -39.4109 C.3       6 UNK        -0.2006 
     42 C          25.7022  -28.3018  -38.4650 C.2       6 UNK         0.4892 
     43 O          25.9804  -29.0385  -37.5176 O.2       6 UNK        -0.5089 
     44 N          24.4466  -27.9977  -38.8315 N.am      7 UNK        -0.4243 
     45 CA         23.1985  -28.5743  -38.3150 C.3       7 UNK         0.0196 
     46 CB         22.9602  -28.1513  -36.8499 C.3       7 UNK        -0.2007 
     47 C          23.0916  -30.1022  -38.5197 C.2       7 UNK         0.5020 
     48 O          22.3802  -30.7670  -37.7645 O.2       7 UNK        -0.5147 
     49 N          23.7692  -30.6415  -39.5477 N.am      8 UNK        -0.4734 
     50 CA         23.8265  -32.0781  -39.8567 C.3       8 UNK         0.0238 
     51 CB         24.8707  -32.3196  -40.9586 C.3       8 UNK        -0.1912 
     52 C          22.4731  -32.7030  -40.2441 C.2       8 UNK         0.5038 
     53 O          22.3130  -33.9177  -40.1181 O.2       8 UNK        -0.5046 
     54 N          21.5265  -31.8648  -40.6821 N.am      9 UNK        -0.4200 
     55 CA         20.1215  -32.2217  -40.9257 C.3       9 UNK         0.0839 
     56 C          19.2957  -32.4895  -39.6322 C.2       9 UNK         0.5513 
     57 N          19.7844  -32.1674  -38.4391 N.am      9 UNK        -0.7519 
     58 O          18.1860  -33.0090  -39.7159 O.2       9 UNK        -0.4960 
     59 C59        19.4195  -31.1634  -41.8132 C.3       10 UNK        -0.0876 
     60 S60        20.2242  -30.9804  -43.4401 S.3       10 UNK        -0.2414 
     61 C61        19.0406  -31.8436  -44.5182 C.3       10 UNK         0.0169 
     62 H62        15.4161  -23.0861  -43.8344 H         1 UNK         0.0903 
     63 H63        15.0983  -23.5771  -42.1694 H         1 UNK         0.0903 
     64 H64        16.6482  -22.8463  -42.5927 H         1 UNK         0.0903 
     65 H65        15.2718  -25.7902  -41.8782 H         1 UNK         0.3096 
     66 H66        16.5826  -27.5033  -43.8087 H         1 UNK         0.1121 
     67 H67        15.7898  -29.3350  -42.1296 H         1 UNK         0.0849 
     68 H68        15.0024  -28.0554  -41.2522 H         1 UNK         0.0849 
     69 H69        14.1979  -30.8104  -43.6147 H         1 UNK         0.0865 
     70 H70        13.5805  -30.1035  -45.0839 H         1 UNK         0.0865 
     71 H71        16.4649  -31.5318  -43.6223 H         1 UNK         0.1346 
     72 H72        19.2348  -30.0857  -46.5345 H         1 UNK         0.1412 
     73 H73        15.2773  -28.4316  -46.3411 H         1 UNK         0.1426 
     74 H74        16.7182  -27.7887  -48.1362 H         1 UNK         0.0716 
     75 H75        18.1294  -28.7365  -48.5096 H         1 UNK         0.0716 
     76 H76        20.8008  -27.0425  -48.2251 H         1 UNK         0.0695 
     77 H77        20.3071  -28.5423  -47.5244 H         1 UNK         0.0695 
     78 H78        21.5430  -26.1231  -46.1520 H         1 UNK         0.0983 
     79 H79        19.7052  -27.7926  -44.8381 H         1 UNK         0.3095 
     80 H80        20.4193  -28.1949  -42.0323 H         1 UNK         0.0454 
     81 H81        20.5093  -25.1692  -41.5408 H         1 UNK         0.0851 
     82 H82        21.6775  -26.3405  -40.9430 H         1 UNK         0.0851 
     83 H83        20.0271  -26.3807  -40.3545 H         1 UNK         0.0851 
     84 H84        18.6463  -26.4186  -43.5348 H         1 UNK         0.2976 
     85 H85        22.0093  -29.3226  -44.8991 H         1 UNK         0.3116 
     86 H86        24.3907  -30.0062  -46.4023 H         1 UNK         0.0646 
     87 H87        23.2683  -31.1056  -43.7682 H         1 UNK         0.0847 
     88 H88        22.9123  -31.7355  -45.3763 H         1 UNK         0.0847 
     89 H89        24.5395  -31.8475  -44.7272 H         1 UNK         0.0847 
     90 H90        23.8367  -27.7274  -43.9517 H         1 UNK         0.3040 
     91 H91        25.0298  -26.3787  -42.7303 H         1 UNK         0.1015 
     92 H92        27.4370  -26.0350  -43.0227 H         1 UNK         0.0786 
     93 H93        26.7456  -26.3391  -44.6046 H         1 UNK         0.0786 
     94 H94        27.6418  -27.6075  -43.7706 H         1 UNK         0.0786 
     95 H95        26.6660  -26.2894  -40.8779 H         1 UNK         0.3172 
     96 H96        27.1674  -26.8011  -38.7857 H         1 UNK         0.0595 
     97 H97        27.7843  -29.5971  -39.8796 H         1 UNK         0.0839 
     98 H98        28.4552  -28.8784  -38.4229 H         1 UNK         0.0839 
     99 H99        28.8635  -28.2074  -39.9909 H         1 UNK         0.0839 
    100 H100       24.3438  -27.3779  -39.6222 H         1 UNK         0.2998 
    101 H101       22.3960  -28.1408  -38.9137 H         1 UNK         0.0822 
    102 H102       21.9667  -28.4492  -36.5125 H         1 UNK         0.0787 
    103 H103       23.0289  -27.0698  -36.7326 H         1 UNK         0.0787 
    104 H104       23.6824  -28.6092  -36.1734 H         1 UNK         0.0787 
    105 H105       24.3407  -30.0360  -40.1320 H         1 UNK         0.3055 
    106 H106       24.1613  -32.5924  -38.9532 H         1 UNK         0.1106 
    107 H107       25.8590  -31.9792  -40.6486 H         1 UNK         0.0828 
    108 H108       24.9537  -33.3807  -41.1975 H         1 UNK         0.0828 
    109 H109       24.6139  -31.7956  -41.8792 H         1 UNK         0.0828 
    110 H110       21.7596  -30.8873  -40.7590 H         1 UNK         0.2931 
    111 H111       20.1199  -33.1631  -41.4789 H         1 UNK         0.0412 
    112 H112       20.6979  -31.7378  -38.3400 H         1 UNK         0.3472 
    113 H113       19.2319  -32.3548  -37.6177 H         1 UNK         0.3472 
    114 H114       18.3655  -31.4073  -41.9567 H         1 UNK         0.0970 
    115 H115       19.4328  -30.1974  -41.3105 H         1 UNK         0.0970 
    116 H116       19.5837  -32.2590  -45.3685 H         1 UNK         0.0612 
    117 H117       18.6017  -32.6945  -43.9948 H         1 UNK         0.0612 
@<TRIPOS>BOND
     1    1    2 1    
     2    1   62 1    
     3    1   63 1    
     4    1   64 1    
     5    2    3 2    
     6    2    4 am   BACKBONE|DICT|INTERRES
     7    4    5 1    
     8    4   65 1    
     9    5    6 1    
    10    5   25 1    
    11    5   66 1    
    12    6    7 1    
    13    6   67 1    
    14    6   68 1    
    15    7    8 1    
    16    8    9 1    
    17    8   69 1    
    18    8   70 1    
    19    9   10 ar   
    20    9   14 ar   
    21   10   11 ar   
    22   10   71 1    
    23   11   12 ar   
    24   11   61 1    
    25   12   13 ar   
    26   12   72 1    
    27   13   14 ar   
    28   13   15 1    
    29   14   73 1    
    30   15   16 1    
    31   15   74 1    
    32   15   75 1    
    33   16   17 1    
    34   17   18 1    
    35   17   76 1    
    36   17   77 1    
    37   18   19 1    
    38   18   27 1    
    39   18   78 1    
    40   19   20 am   BACKBONE|DICT|INTERRES
    41   19   79 1    
    42   20   21 2    
    43   20   22 1    
    44   22   23 1    
    45   22   24 1    
    46   22   80 1    
    47   23   81 1    
    48   23   82 1    
    49   23   83 1    
    50   24   25 am   BACKBONE|DICT|INTERRES
    51   24   84 1    
    52   25   26 2    
    53   27   28 2    
    54   27   29 am   BACKBONE|DICT|INTERRES
    55   29   30 1    
    56   29   85 1    
    57   30   31 1    
    58   30   32 1    
    59   30   86 1    
    60   31   87 1    
    61   31   88 1    
    62   31   89 1    
    63   32   33 2    
    64   32   34 am   BACKBONE|DICT|INTERRES
    65   34   35 1    
    66   34   90 1    
    67   35   36 1    
    68   35   37 1    
    69   35   91 1    
    70   36   92 1    
    71   36   93 1    
    72   36   94 1    
    73   37   38 2    
    74   37   39 am   BACKBONE|DICT|INTERRES
    75   39   40 1    
    76   39   95 1    
    77   40   41 1    
    78   40   42 1    
    79   40   96 1    
    80   41   97 1    
    81   41   98 1    
    82   41   99 1    
    83   42   43 2    
    84   42   44 am   BACKBONE|DICT|INTERRES
    85   44   45 1    
    86   44  100 1    
    87   45   46 1    
    88   45   47 1    
    89   45  101 1    
    90   46  102 1    
    91   46  103 1    
    92   46  104 1    
    93   47   48 2    
    94   47   49 am   BACKBONE|DICT|INTERRES
    95   49   50 1    
    96   49  105 1    
    97   50   51 1    
    98   50   52 1    
    99   50  106 1    
   100   51  107 1    
   101   51  108 1    
   102   51  109 1    
   103   52   53 2    
   104   52   54 am   BACKBONE|DICT|INTERRES
   105   54   55 1    
   106   54  110 1    
   107   55   56 1    
   108   55   59 1    
   109   55  111 1    
   110   56   57 am   BACKBONE|DICT|INTERRES
   111   56   58 2    
   112   57  112 1    
   113   57  113 1    
   114   59   60 1    
   115   59  114 1    
   116   59  115 1    
   117   60   61 1    
   118   61  116 1    
   119   61  117 1    
@<TRIPOS>SUBSTRUCTURE
     1 UNK         1 GROUP             0       ****    0 ROOT    
