@<TRIPOS>MOLECULE
3R8
117   119    1
SMALL
USER_CHARGES


@<TRIPOS>ATOM
      1 CA         19.4662  -27.7019  -41.8129 C.3       0 UNK        -0.2013 
      2 C          18.3517  -26.6949  -42.0351 C.2       0 UNK         0.4866 
      3 O          18.3594  -25.6298  -41.4190 O.2       0 UNK        -0.5176 
      4 N          17.3933  -27.0187  -42.9153 N.am      1 UNK        -0.4884 
      5 CA         16.2349  -26.1646  -43.2192 C.3       1 UNK         0.0853 
      6 C6         15.0673  -26.9733  -43.8423 C.3       10 UNK        -0.0849 
      7 S7         15.3208  -27.5304  -45.5675 S.3       10 UNK        -0.2776 
      8 C8         15.5797  -29.3245  -45.3937 C.3       10 UNK         0.0316 
      9 C9         17.0517  -29.6713  -45.2264 C.ar      10 UNK        -0.0863 
     10 C10        17.5315  -30.1946  -44.0225 C.ar      10 UNK        -0.1009 
     11 C11        18.8771  -30.5556  -43.8925 C.ar      10 UNK        -0.0712 
     12 C12        19.7472  -30.3801  -44.9740 C.ar      10 UNK        -0.0894 
     13 C13        19.2759  -29.8618  -46.1856 C.ar      10 UNK        -0.0745 
     14 C14        17.9283  -29.5116  -46.3035 C.ar      10 UNK        -0.0972 
     15 C15        20.2026  -29.7217  -47.3872 C.3       10 UNK         0.0209 
     16 S16        20.5069  -27.9823  -47.8382 S.3       10 UNK        -0.2568 
     17 C17        21.6160  -27.4682  -46.4886 C.3       10 UNK        -0.0983 
     18 CA         21.5651  -25.9490  -46.1851 C.3       3 UNK         0.0876 
     19 N          20.1910  -25.4912  -45.9467 N.am      3 UNK        -0.4424 
     20 C          19.8055  -24.2110  -45.8329 C.2       2 UNK         0.4918 
     21 O          20.5790  -23.2551  -45.8782 O.2       2 UNK        -0.4875 
     22 CA         18.3078  -23.9558  -45.6133 C.3       2 UNK         0.0481 
     23 CB         17.5660  -23.8374  -46.9567 C.3       2 UNK        -0.1831 
     24 N          17.7185  -25.0120  -44.7921 N.am      2 UNK        -0.4498 
     25 C          16.6077  -24.9161  -44.0522 C.2       1 UNK         0.5027 
     26 O          15.8987  -23.9098  -43.9978 O.2       1 UNK        -0.4969 
     27 C          22.5285  -25.6627  -45.0150 C.2       3 UNK         0.5005 
     28 O          23.7383  -25.5898  -45.2391 O.2       3 UNK        -0.5279 
     29 N          21.9905  -25.6049  -43.7855 N.am      4 UNK        -0.4463 
     30 CA         22.6736  -25.6587  -42.4834 C.3       4 UNK         0.0283 
     31 CB         23.6876  -24.5129  -42.2953 C.3       4 UNK        -0.1875 
     32 C          23.3067  -27.0376  -42.2199 C.2       4 UNK         0.4949 
     33 O          22.9735  -27.6755  -41.2210 O.2       4 UNK        -0.5039 
     34 N          24.1782  -27.4817  -43.1384 N.am      5 UNK        -0.4663 
     35 CA         24.7637  -28.8250  -43.2666 C.3       5 UNK         0.0242 
     36 CB         23.6802  -29.8122  -43.7545 C.3       5 UNK        -0.1982 
     37 C          25.4859  -29.3422  -42.0066 C.2       5 UNK         0.5017 
     38 O          25.5439  -30.5535  -41.7989 O.2       5 UNK        -0.5012 
     39 N          25.9694  -28.4224  -41.1567 N.am      6 UNK        -0.4439 
     40 CA         26.5304  -28.6647  -39.8187 C.3       6 UNK         0.0297 
     41 CB         27.9105  -29.3473  -39.9297 C.3       6 UNK        -0.2006 
     42 C          25.5715  -29.4243  -38.8706 C.2       6 UNK         0.4892 
     43 O          26.0382  -30.1128  -37.9616 O.2       6 UNK        -0.5089 
     44 N          24.2552  -29.2984  -39.1132 N.am      7 UNK        -0.4243 
     45 CA         23.1530  -30.0094  -38.4556 C.3       7 UNK         0.0196 
     46 CB         23.0194  -29.5762  -36.9800 C.3       7 UNK        -0.2007 
     47 C          23.2108  -31.5431  -38.6287 C.2       7 UNK         0.5020 
     48 O          22.7415  -32.2705  -37.7514 O.2       7 UNK        -0.5147 
     49 N          23.7526  -32.0207  -39.7624 N.am      8 UNK        -0.4734 
     50 CA         23.9271  -33.4464  -40.0850 C.3       8 UNK         0.0238 
     51 CB         24.6997  -33.5854  -41.4067 C.3       8 UNK        -0.1912 
     52 C          22.6308  -34.2775  -40.1388 C.2       8 UNK         0.5038 
     53 O          22.7022  -35.4990  -39.9942 O.2       8 UNK        -0.5046 
     54 N          21.4809  -33.6160  -40.3240 N.am      9 UNK        -0.4200 
     55 CA         20.1450  -34.2211  -40.2062 C.3       9 UNK         0.0839 
     56 C          19.7582  -34.6428  -38.7560 C.2       9 UNK         0.5513 
     57 N          20.4484  -34.1892  -37.7151 N.am      9 UNK        -0.7519 
     58 O          18.8089  -35.4009  -38.5748 O.2       9 UNK        -0.4960 
     59 C59        19.0402  -33.3190  -40.8137 C.3       10 UNK        -0.0876 
     60 S60        19.2844  -32.9567  -42.5879 S.3       10 UNK        -0.2414 
     61 C61        19.3809  -31.1405  -42.5816 C.3       10 UNK         0.0169 
     62 H62        20.2907  -27.2458  -41.2677 H         1 UNK         0.0903 
     63 H63        19.1001  -28.5326  -41.2128 H         1 UNK         0.0903 
     64 H64        19.8528  -28.0837  -42.7572 H         1 UNK         0.0903 
     65 H65        17.4294  -27.9035  -43.4055 H         1 UNK         0.3096 
     66 H66        15.8692  -25.7787  -42.2643 H         1 UNK         0.1121 
     67 H67        14.8321  -27.8287  -43.2076 H         1 UNK         0.0849 
     68 H68        14.1639  -26.3604  -43.8344 H         1 UNK         0.0849 
     69 H69        14.9804  -29.7192  -44.5720 H         1 UNK         0.0865 
     70 H70        15.2072  -29.8152  -46.2942 H         1 UNK         0.0865 
     71 H71        16.8549  -30.3427  -43.1913 H         1 UNK         0.1346 
     72 H72        20.7851  -30.6676  -44.8765 H         1 UNK         0.1412 
     73 H73        17.5580  -29.1202  -47.2418 H         1 UNK         0.1426 
     74 H74        19.7523  -30.2298  -48.2411 H         1 UNK         0.0716 
     75 H75        21.1567  -30.2194  -47.2062 H         1 UNK         0.0716 
     76 H76        22.6290  -27.7715  -46.7615 H         1 UNK         0.0695 
     77 H77        21.3595  -28.0367  -45.5927 H         1 UNK         0.0695 
     78 H78        21.9456  -25.4091  -47.0551 H         1 UNK         0.0983 
     79 H79        19.4876  -26.2101  -46.0216 H         1 UNK         0.3095 
     80 H80        18.2165  -23.0085  -45.0776 H         1 UNK         0.0454 
     81 H81        18.0163  -23.0684  -47.5858 H         1 UNK         0.0851 
     82 H82        16.5211  -23.5634  -46.8114 H         1 UNK         0.0851 
     83 H83        17.5904  -24.7740  -47.5150 H         1 UNK         0.0851 
     84 H84        18.2301  -25.8775  -44.7224 H         1 UNK         0.2976 
     85 H85        20.9846  -25.6678  -43.7361 H         1 UNK         0.3116 
     86 H86        21.8936  -25.5183  -41.7338 H         1 UNK         0.0646 
     87 H87        24.5384  -24.5905  -42.9722 H         1 UNK         0.0847 
     88 H88        23.2198  -23.5421  -42.4586 H         1 UNK         0.0847 
     89 H89        24.0853  -24.5131  -41.2797 H         1 UNK         0.0847 
     90 H90        24.3563  -26.8511  -43.9173 H         1 UNK         0.3040 
     91 H91        25.5283  -28.7583  -44.0421 H         1 UNK         0.1015 
     92 H92        24.1050  -30.7937  -43.9695 H         1 UNK         0.0786 
     93 H93        23.2103  -29.4618  -44.6729 H         1 UNK         0.0786 
     94 H94        22.8971  -29.9520  -43.0084 H         1 UNK         0.0786 
     95 H95        25.8509  -27.4528  -41.4161 H         1 UNK         0.3172 
     96 H96        26.6815  -27.6823  -39.3692 H         1 UNK         0.0595 
     97 H97        27.8275  -30.3654  -40.3116 H         1 UNK         0.0839 
     98 H98        28.4000  -29.4048  -38.9567 H         1 UNK         0.0839 
     99 H99        28.5759  -28.7937  -40.5919 H         1 UNK         0.0839 
    100 H100       23.9711  -28.7025  -39.8874 H         1 UNK         0.2998 
    101 H101       22.2468  -29.6887  -38.9720 H         1 UNK         0.0822 
    102 H102       22.1119  -29.9836  -36.5327 H         1 UNK         0.0787 
    103 H103       22.9642  -28.4914  -36.8886 H         1 UNK         0.0787 
    104 H104       23.8604  -29.9221  -36.3784 H         1 UNK         0.0787 
    105 H105       24.1631  -31.3643  -40.4187 H         1 UNK         0.3055 
    106 H106       24.5370  -33.8813  -39.2902 H         1 UNK         0.1106 
    107 H107       25.7018  -33.1648  -41.3242 H         1 UNK         0.0828 
    108 H108       24.8174  -34.6328  -41.6884 H         1 UNK         0.0828 
    109 H109       24.1886  -33.0811  -42.2277 H         1 UNK         0.0828 
    110 H110       21.5168  -32.6157  -40.4413 H         1 UNK         0.2931 
    111 H111       20.1635  -35.1438  -40.7897 H         1 UNK         0.0412 
    112 H112       20.1815  -34.4773  -36.7871 H         1 UNK         0.3472 
    113 H113       21.2364  -33.5608  -37.8371 H         1 UNK         0.3472 
    114 H114       18.0661  -33.8041  -40.7240 H         1 UNK         0.0970 
    115 H115       18.9610  -32.3935  -40.2413 H         1 UNK         0.0970 
    116 H116       18.7786  -30.7466  -41.7631 H         1 UNK         0.0612 
    117 H117       20.4095  -30.8304  -42.3911 H         1 UNK         0.0612 
@<TRIPOS>BOND
     1    1    2 1    
     2    1   62 1    
     3    1   63 1    
     4    1   64 1    
     5    2    3 2    
     6    2    4 am   BACKBONE|DICT|INTERRES
     7    4    5 1    
     8    4   65 1    
     9    5    6 1    
    10    5   25 1    
    11    5   66 1    
    12    6    7 1    
    13    6   67 1    
    14    6   68 1    
    15    7    8 1    
    16    8    9 1    
    17    8   69 1    
    18    8   70 1    
    19    9   10 ar   
    20    9   14 ar   
    21   10   11 ar   
    22   10   71 1    
    23   11   12 ar   
    24   11   61 1    
    25   12   13 ar   
    26   12   72 1    
    27   13   14 ar   
    28   13   15 1    
    29   14   73 1    
    30   15   16 1    
    31   15   74 1    
    32   15   75 1    
    33   16   17 1    
    34   17   18 1    
    35   17   76 1    
    36   17   77 1    
    37   18   19 1    
    38   18   27 1    
    39   18   78 1    
    40   19   20 am   BACKBONE|DICT|INTERRES
    41   19   79 1    
    42   20   21 2    
    43   20   22 1    
    44   22   23 1    
    45   22   24 1    
    46   22   80 1    
    47   23   81 1    
    48   23   82 1    
    49   23   83 1    
    50   24   25 am   BACKBONE|DICT|INTERRES
    51   24   84 1    
    52   25   26 2    
    53   27   28 2    
    54   27   29 am   BACKBONE|DICT|INTERRES
    55   29   30 1    
    56   29   85 1    
    57   30   31 1    
    58   30   32 1    
    59   30   86 1    
    60   31   87 1    
    61   31   88 1    
    62   31   89 1    
    63   32   33 2    
    64   32   34 am   BACKBONE|DICT|INTERRES
    65   34   35 1    
    66   34   90 1    
    67   35   36 1    
    68   35   37 1    
    69   35   91 1    
    70   36   92 1    
    71   36   93 1    
    72   36   94 1    
    73   37   38 2    
    74   37   39 am   BACKBONE|DICT|INTERRES
    75   39   40 1    
    76   39   95 1    
    77   40   41 1    
    78   40   42 1    
    79   40   96 1    
    80   41   97 1    
    81   41   98 1    
    82   41   99 1    
    83   42   43 2    
    84   42   44 am   BACKBONE|DICT|INTERRES
    85   44   45 1    
    86   44  100 1    
    87   45   46 1    
    88   45   47 1    
    89   45  101 1    
    90   46  102 1    
    91   46  103 1    
    92   46  104 1    
    93   47   48 2    
    94   47   49 am   BACKBONE|DICT|INTERRES
    95   49   50 1    
    96   49  105 1    
    97   50   51 1    
    98   50   52 1    
    99   50  106 1    
   100   51  107 1    
   101   51  108 1    
   102   51  109 1    
   103   52   53 2    
   104   52   54 am   BACKBONE|DICT|INTERRES
   105   54   55 1    
   106   54  110 1    
   107   55   56 1    
   108   55   59 1    
   109   55  111 1    
   110   56   57 am   BACKBONE|DICT|INTERRES
   111   56   58 2    
   112   57  112 1    
   113   57  113 1    
   114   59   60 1    
   115   59  114 1    
   116   59  115 1    
   117   60   61 1    
   118   61  116 1    
   119   61  117 1    
@<TRIPOS>SUBSTRUCTURE
     1 UNK         1 GROUP             0       ****    0 ROOT    
