@<TRIPOS>MOLECULE
3R8
117   119    1
SMALL
USER_CHARGES


@<TRIPOS>ATOM
      1 CA         15.3992  -23.7485  -43.7660 C.3       0 UNK        -0.2013 
      2 C          14.2633  -24.7615  -43.6419 C.2       0 UNK         0.4866 
      3 O          13.3390  -24.5321  -42.8647 O.2       0 UNK        -0.5176 
      4 N          14.2667  -25.8841  -44.3779 N.am      1 UNK        -0.4884 
      5 CA         15.3060  -26.3456  -45.3103 C.3       1 UNK         0.0853 
      6 C6         14.8192  -27.5824  -46.1092 C.3       10 UNK        -0.0849 
      7 S7         15.7596  -27.8679  -47.6477 S.3       10 UNK        -0.2776 
      8 C8         16.4899  -29.5239  -47.3743 C.3       10 UNK         0.0316 
      9 C9         17.8513  -29.5235  -46.6768 C.ar      10 UNK        -0.0863 
     10 C10        18.1722  -30.5494  -45.7801 C.ar      10 UNK        -0.1009 
     11 C11        19.4496  -30.6355  -45.2139 C.ar      10 UNK        -0.0712 
     12 C12        20.4087  -29.6702  -45.5349 C.ar      10 UNK        -0.0894 
     13 C13        20.1053  -28.6381  -46.4293 C.ar      10 UNK        -0.0745 
     14 C14        18.8289  -28.5741  -46.9962 C.ar      10 UNK        -0.0972 
     15 C15        21.1696  -27.6316  -46.8495 C.3       10 UNK         0.0209 
     16 S16        21.1543  -26.1214  -45.8303 S.3       10 UNK        -0.2568 
     17 C17        22.0323  -26.6815  -44.3353 C.3       10 UNK        -0.0983 
     18 CA         21.1893  -26.5713  -43.0384 C.3       3 UNK         0.0876 
     19 N          19.9063  -27.2646  -43.1366 N.am      3 UNK        -0.4424 
     20 C          18.8247  -26.9735  -42.4048 C.2       2 UNK         0.4918 
     21 O          18.7660  -26.0455  -41.5957 O.2       2 UNK        -0.4875 
     22 CA         17.5995  -27.8847  -42.6139 C.3       2 UNK         0.0481 
     23 CB         16.9879  -28.3058  -41.2642 C.3       2 UNK        -0.1831 
     24 N          16.5317  -27.3145  -43.4372 N.am      2 UNK        -0.4498 
     25 C          16.6374  -26.6477  -44.5966 C.2       1 UNK         0.5027 
     26 O          17.6885  -26.2607  -45.1011 O.2       1 UNK        -0.4969 
     27 C          21.9876  -27.1580  -41.8627 C.2       3 UNK         0.5005 
     28 O          22.3824  -28.3237  -41.9351 O.2       3 UNK        -0.5279 
     29 N          22.2780  -26.3476  -40.8351 N.am      4 UNK        -0.4463 
     30 CA         23.1159  -26.7446  -39.6933 C.3       4 UNK         0.0283 
     31 CB         23.1354  -25.6181  -38.6485 C.3       4 UNK        -0.1875 
     32 C          24.5515  -27.1345  -40.0963 C.2       4 UNK         0.4949 
     33 O          25.1425  -28.0205  -39.4791 O.2       4 UNK        -0.5039 
     34 N          25.0605  -26.5030  -41.1642 N.am      5 UNK        -0.4663 
     35 CA         26.3621  -26.7747  -41.7795 C.3       5 UNK         0.0242 
     36 CB         26.6488  -25.6907  -42.8315 C.3       5 UNK        -0.1982 
     37 C          26.4910  -28.1763  -42.4074 C.2       5 UNK         0.5017 
     38 O          27.6174  -28.6280  -42.6149 O.2       5 UNK        -0.5012 
     39 N          25.3618  -28.8461  -42.6892 N.am      6 UNK        -0.4439 
     40 CA         25.3282  -30.2191  -43.2029 C.3       6 UNK         0.0297 
     41 CB         24.0058  -30.4529  -43.9521 C.3       6 UNK        -0.2006 
     42 C          25.5254  -31.2825  -42.1057 C.2       6 UNK         0.4892 
     43 O          25.6427  -32.4613  -42.4433 O.2       6 UNK        -0.5089 
     44 N          25.5299  -30.8700  -40.8269 N.am      7 UNK        -0.4243 
     45 CA         25.6790  -31.6640  -39.5984 C.3       7 UNK         0.0196 
     46 CB         27.0123  -32.4366  -39.5671 C.3       7 UNK        -0.2007 
     47 C          24.4849  -32.5865  -39.3040 C.2       7 UNK         0.5020 
     48 O          23.9435  -32.5326  -38.2002 O.2       7 UNK        -0.5147 
     49 N          24.0550  -33.3754  -40.2969 N.am      8 UNK        -0.4734 
     50 CA         22.8759  -34.2490  -40.2404 C.3       8 UNK         0.0238 
     51 CB         22.8299  -35.1187  -41.5071 C.3       8 UNK        -0.1912 
     52 C          21.5546  -33.4767  -40.0691 C.2       8 UNK         0.5038 
     53 O          20.6238  -33.9993  -39.4550 O.2       8 UNK        -0.5046 
     54 N          21.5227  -32.2454  -40.5909 N.am      9 UNK        -0.4200 
     55 CA         20.4551  -31.2556  -40.4011 C.3       9 UNK         0.0839 
     56 C          20.8174  -30.1746  -39.3381 C.2       9 UNK         0.5513 
     57 N          21.8660  -30.3395  -38.5392 N.am      9 UNK        -0.7519 
     58 O          20.1146  -29.1764  -39.2076 O.2       9 UNK        -0.4960 
     59 C59        20.0236  -30.6408  -41.7588 C.3       10 UNK        -0.0876 
     60 S60        18.9727  -31.7790  -42.7178 S.3       10 UNK        -0.2414 
     61 C61        19.8148  -31.8223  -44.3289 C.3       10 UNK         0.0169 
     62 H62        16.2617  -24.0675  -43.1812 H         1 UNK         0.0903 
     63 H63        15.7086  -23.6050  -44.8001 H         1 UNK         0.0903 
     64 H64        15.0819  -22.7777  -43.3860 H         1 UNK         0.0903 
     65 H65        13.4790  -26.5085  -44.2748 H         1 UNK         0.3096 
     66 H66        15.4873  -25.5391  -46.0239 H         1 UNK         0.1121 
     67 H67        14.8160  -28.4807  -45.4886 H         1 UNK         0.0849 
     68 H68        13.7814  -27.4363  -46.4132 H         1 UNK         0.0849 
     69 H69        15.7776  -30.1506  -46.8359 H         1 UNK         0.0865 
     70 H70        16.6218  -29.9955  -48.3488 H         1 UNK         0.0865 
     71 H71        17.4399  -31.3111  -45.5485 H         1 UNK         0.1346 
     72 H72        21.4034  -29.7469  -45.1207 H         1 UNK         0.1412 
     73 H73        18.6044  -27.7890  -47.7051 H         1 UNK         0.1426 
     74 H74        22.1606  -28.0877  -46.8239 H         1 UNK         0.0716 
     75 H75        21.0050  -27.3438  -47.8889 H         1 UNK         0.0716 
     76 H76        22.3802  -27.7034  -44.4896 H         1 UNK         0.0695 
     77 H77        22.9360  -26.0761  -44.2440 H         1 UNK         0.0695 
     78 H78        20.9996  -25.5117  -42.8521 H         1 UNK         0.0983 
     79 H79        19.8523  -28.0000  -43.8270 H         1 UNK         0.3095 
     80 H80        17.9337  -28.7876  -43.1279 H         1 UNK         0.0454 
     81 H81        16.2798  -29.1259  -41.3873 H         1 UNK         0.0851 
     82 H82        17.7500  -28.6424  -40.5610 H         1 UNK         0.0851 
     83 H83        16.4640  -27.4770  -40.7863 H         1 UNK         0.0851 
     84 H84        15.5941  -27.5135  -43.1204 H         1 UNK         0.2976 
     85 H85        21.9089  -25.4069  -40.8274 H         1 UNK         0.3116 
     86 H86        22.6560  -27.6232  -39.2373 H         1 UNK         0.0646 
     87 H87        23.7339  -25.9021  -37.7814 H         1 UNK         0.0847 
     88 H88        22.1317  -25.3951  -38.2862 H         1 UNK         0.0847 
     89 H89        23.5616  -24.6982  -39.0510 H         1 UNK         0.0847 
     90 H90        24.4970  -25.7878  -41.5999 H         1 UNK         0.3040 
     91 H91        27.1206  -26.7053  -40.9964 H         1 UNK         0.1015 
     92 H92        26.6510  -24.6952  -42.3870 H         1 UNK         0.0786 
     93 H93        25.9095  -25.7007  -43.6336 H         1 UNK         0.0786 
     94 H94        27.6278  -25.8393  -43.2896 H         1 UNK         0.0786 
     95 H95        24.4671  -28.4284  -42.4561 H         1 UNK         0.3172 
     96 H96        26.1414  -30.3436  -43.9211 H         1 UNK         0.0595 
     97 H97        23.1469  -30.4013  -43.2842 H         1 UNK         0.0839 
     98 H98        23.9911  -31.4383  -44.4197 H         1 UNK         0.0839 
     99 H99        23.8659  -29.7192  -44.7455 H         1 UNK         0.0839 
    100 H100       25.3932  -29.8790  -40.6625 H         1 UNK         0.2998 
    101 H101       25.7118  -30.9323  -38.7889 H         1 UNK         0.0822 
    102 H102       27.8600  -31.7676  -39.7160 H         1 UNK         0.0787 
    103 H103       27.1522  -32.9278  -38.6033 H         1 UNK         0.0787 
    104 H104       27.0587  -33.2115  -40.3327 H         1 UNK         0.0787 
    105 H105       24.5661  -33.3289  -41.1763 H         1 UNK         0.3055 
    106 H106       22.9850  -34.9034  -39.3726 H         1 UNK         0.1106 
    107 H107       21.9732  -35.7939  -41.4865 H         1 UNK         0.0828 
    108 H108       22.7464  -34.5128  -42.4105 H         1 UNK         0.0828 
    109 H109       23.7244  -35.7352  -41.5980 H         1 UNK         0.0828 
    110 H110       22.3548  -31.9088  -41.0504 H         1 UNK         0.2931 
    111 H111       19.5799  -31.7522  -39.9780 H         1 UNK         0.0412 
    112 H112       22.0630  -29.6339  -37.8483 H         1 UNK         0.3472 
    113 H113       22.4301  -31.1792  -38.5685 H         1 UNK         0.3472 
    114 H114       20.8933  -30.3464  -42.3447 H         1 UNK         0.0970 
    115 H115       19.4506  -29.7316  -41.6083 H         1 UNK         0.0970 
    116 H116       20.8937  -31.8903  -44.1793 H         1 UNK         0.0612 
    117 H117       19.5255  -32.7408  -44.8415 H         1 UNK         0.0612 
@<TRIPOS>BOND
     1    1    2 1    
     2    1   62 1    
     3    1   63 1    
     4    1   64 1    
     5    2    3 2    
     6    2    4 am   BACKBONE|DICT|INTERRES
     7    4    5 1    
     8    4   65 1    
     9    5    6 1    
    10    5   25 1    
    11    5   66 1    
    12    6    7 1    
    13    6   67 1    
    14    6   68 1    
    15    7    8 1    
    16    8    9 1    
    17    8   69 1    
    18    8   70 1    
    19    9   10 ar   
    20    9   14 ar   
    21   10   11 ar   
    22   10   71 1    
    23   11   12 ar   
    24   11   61 1    
    25   12   13 ar   
    26   12   72 1    
    27   13   14 ar   
    28   13   15 1    
    29   14   73 1    
    30   15   16 1    
    31   15   74 1    
    32   15   75 1    
    33   16   17 1    
    34   17   18 1    
    35   17   76 1    
    36   17   77 1    
    37   18   19 1    
    38   18   27 1    
    39   18   78 1    
    40   19   20 am   BACKBONE|DICT|INTERRES
    41   19   79 1    
    42   20   21 2    
    43   20   22 1    
    44   22   23 1    
    45   22   24 1    
    46   22   80 1    
    47   23   81 1    
    48   23   82 1    
    49   23   83 1    
    50   24   25 am   BACKBONE|DICT|INTERRES
    51   24   84 1    
    52   25   26 2    
    53   27   28 2    
    54   27   29 am   BACKBONE|DICT|INTERRES
    55   29   30 1    
    56   29   85 1    
    57   30   31 1    
    58   30   32 1    
    59   30   86 1    
    60   31   87 1    
    61   31   88 1    
    62   31   89 1    
    63   32   33 2    
    64   32   34 am   BACKBONE|DICT|INTERRES
    65   34   35 1    
    66   34   90 1    
    67   35   36 1    
    68   35   37 1    
    69   35   91 1    
    70   36   92 1    
    71   36   93 1    
    72   36   94 1    
    73   37   38 2    
    74   37   39 am   BACKBONE|DICT|INTERRES
    75   39   40 1    
    76   39   95 1    
    77   40   41 1    
    78   40   42 1    
    79   40   96 1    
    80   41   97 1    
    81   41   98 1    
    82   41   99 1    
    83   42   43 2    
    84   42   44 am   BACKBONE|DICT|INTERRES
    85   44   45 1    
    86   44  100 1    
    87   45   46 1    
    88   45   47 1    
    89   45  101 1    
    90   46  102 1    
    91   46  103 1    
    92   46  104 1    
    93   47   48 2    
    94   47   49 am   BACKBONE|DICT|INTERRES
    95   49   50 1    
    96   49  105 1    
    97   50   51 1    
    98   50   52 1    
    99   50  106 1    
   100   51  107 1    
   101   51  108 1    
   102   51  109 1    
   103   52   53 2    
   104   52   54 am   BACKBONE|DICT|INTERRES
   105   54   55 1    
   106   54  110 1    
   107   55   56 1    
   108   55   59 1    
   109   55  111 1    
   110   56   57 am   BACKBONE|DICT|INTERRES
   111   56   58 2    
   112   57  112 1    
   113   57  113 1    
   114   59   60 1    
   115   59  114 1    
   116   59  115 1    
   117   60   61 1    
   118   61  116 1    
   119   61  117 1    
@<TRIPOS>SUBSTRUCTURE
     1 UNK         1 GROUP             0       ****    0 ROOT    
