@<TRIPOS>MOLECULE
3R8
117   119    1
SMALL
USER_CHARGES


@<TRIPOS>ATOM
      1 CA         14.3594  -22.1096  -45.7721 C.3       0 UNK        -0.2013 
      2 C          15.1123  -23.3768  -45.3971 C.2       0 UNK         0.4866 
      3 O          15.3646  -23.6118  -44.2161 O.2       0 UNK        -0.5176 
      4 N          15.4967  -24.1851  -46.3946 N.am      1 UNK        -0.4884 
      5 CA         16.1892  -25.4835  -46.2958 C.3       1 UNK         0.0853 
      6 C6         15.4064  -26.5239  -45.4463 C.3       10 UNK        -0.0849 
      7 S7         15.4605  -28.1926  -46.1781 S.3       10 UNK        -0.2776 
      8 C8         14.9391  -29.2183  -44.7692 C.3       10 UNK         0.0316 
      9 C9         16.1038  -29.5412  -43.8455 C.ar      10 UNK        -0.0863 
     10 C10        16.9737  -30.5883  -44.1620 C.ar      10 UNK        -0.1009 
     11 C11        18.0275  -30.9225  -43.3065 C.ar      10 UNK        -0.0712 
     12 C12        18.2115  -30.1947  -42.1266 C.ar      10 UNK        -0.0894 
     13 C13        17.3612  -29.1314  -41.8105 C.ar      10 UNK        -0.0745 
     14 C14        16.3028  -28.8153  -42.6680 C.ar      10 UNK        -0.0972 
     15 C15        17.5780  -28.3229  -40.5413 C.3       10 UNK         0.0209 
     16 S16        18.2432  -26.6705  -40.9119 S.3       10 UNK        -0.2568 
     17 C17        19.9938  -27.0249  -41.2960 C.3       10 UNK        -0.0983 
     18 CA         20.2891  -27.2058  -42.8142 C.3       3 UNK         0.0876 
     19 N          19.7544  -26.1407  -43.6712 N.am      3 UNK        -0.4424 
     20 C          20.0429  -24.8330  -43.6314 C.2       2 UNK         0.4918 
     21 O          20.7885  -24.3123  -42.8018 O.2       2 UNK        -0.4875 
     22 CA         19.3894  -23.9246  -44.6908 C.3       2 UNK         0.0481 
     23 CB         20.3430  -23.7041  -45.8813 C.3       2 UNK        -0.1831 
     24 N          18.0511  -24.3299  -45.1470 N.am      2 UNK        -0.4498 
     25 C          17.6761  -25.3914  -45.8746 C.2       1 UNK         0.5027 
     26 O          18.4575  -26.2762  -46.2255 O.2       1 UNK        -0.4969 
     27 C          21.7946  -27.3820  -43.1017 C.2       3 UNK         0.5005 
     28 O          22.6278  -26.8621  -42.3561 O.2       3 UNK        -0.5279 
     29 N          22.1080  -28.0505  -44.2226 N.am      4 UNK        -0.4463 
     30 CA         23.4506  -28.2379  -44.7878 C.3       4 UNK         0.0283 
     31 CB         23.3462  -29.1284  -46.0382 C.3       4 UNK        -0.1875 
     32 C          24.4690  -28.8098  -43.7830 C.2       4 UNK         0.4949 
     33 O          24.4725  -30.0148  -43.5346 O.2       4 UNK        -0.5039 
     34 N          25.2919  -27.9168  -43.2143 N.am      5 UNK        -0.4663 
     35 CA         26.2612  -28.1655  -42.1395 C.3       5 UNK         0.0242 
     36 CB         27.4181  -29.0623  -42.6310 C.3       5 UNK        -0.1982 
     37 C          25.6097  -28.6382  -40.8203 C.2       5 UNK         0.5017 
     38 O          26.2131  -29.4146  -40.0763 O.2       5 UNK        -0.5012 
     39 N          24.3996  -28.1278  -40.5406 N.am      6 UNK        -0.4439 
     40 CA         23.5975  -28.3357  -39.3322 C.3       6 UNK         0.0297 
     41 CB         24.2489  -27.6265  -38.1224 C.3       6 UNK        -0.2006 
     42 C          23.2835  -29.8250  -39.1042 C.2       6 UNK         0.4892 
     43 O          22.5956  -30.4235  -39.9317 O.2       6 UNK        -0.5089 
     44 N          23.7938  -30.4004  -38.0060 N.am      7 UNK        -0.4243 
     45 CA         23.6082  -31.8007  -37.6126 C.3       7 UNK         0.0196 
     46 CB         24.2506  -32.0275  -36.2349 C.3       7 UNK        -0.2007 
     47 C          24.1479  -32.8209  -38.6307 C.2       7 UNK         0.5020 
     48 O          23.6292  -33.9361  -38.6919 O.2       7 UNK        -0.5147 
     49 N          25.1416  -32.4237  -39.4400 N.am      8 UNK        -0.4734 
     50 CA         25.6951  -33.2382  -40.5275 C.3       8 UNK         0.0238 
     51 CB         27.0149  -32.6202  -41.0093 C.3       8 UNK        -0.1912 
     52 C          24.7208  -33.4531  -41.7032 C.2       8 UNK         0.5038 
     53 O          24.9652  -34.3454  -42.5169 O.2       8 UNK        -0.5046 
     54 N          23.6296  -32.6749  -41.7589 N.am      9 UNK        -0.4200 
     55 CA         22.4870  -32.9018  -42.6542 C.3       9 UNK         0.0839 
     56 C          21.6965  -34.2085  -42.3350 C.2       9 UNK         0.5513 
     57 N          21.7749  -34.7560  -41.1257 N.am      9 UNK        -0.7519 
     58 O          21.0158  -34.7482  -43.2026 O.2       9 UNK        -0.4960 
     59 C59        21.5576  -31.6578  -42.6823 C.3       10 UNK        -0.0876 
     60 S60        20.5811  -31.5137  -44.2172 S.3       10 UNK        -0.2414 
     61 C61        18.9463  -32.0838  -43.6544 C.3       10 UNK         0.0169 
     62 H62        14.2126  -22.0245  -46.8486 H         1 UNK         0.0903 
     63 H63        13.3797  -22.1016  -45.2951 H         1 UNK         0.0903 
     64 H64        14.9097  -21.2318  -45.4341 H         1 UNK         0.0903 
     65 H65        15.2872  -23.9011  -47.3428 H         1 UNK         0.3096 
     66 H66        16.2124  -25.8384  -47.3278 H         1 UNK         0.1121 
     67 H67        14.3521  -26.2497  -45.3839 H         1 UNK         0.0849 
     68 H68        15.7639  -26.5465  -44.4152 H         1 UNK         0.0849 
     69 H69        14.1347  -28.7218  -44.2240 H         1 UNK         0.0865 
     70 H70        14.5132  -30.1473  -45.1514 H         1 UNK         0.0865 
     71 H71        16.8229  -31.1487  -45.0749 H         1 UNK         0.1346 
     72 H72        19.0210  -30.4471  -41.4573 H         1 UNK         0.1412 
     73 H73        15.6383  -27.9998  -42.4166 H         1 UNK         0.1426 
     74 H74        18.2409  -28.8426  -39.8477 H         1 UNK         0.0716 
     75 H75        16.6246  -28.2088  -40.0233 H         1 UNK         0.0716 
     76 H76        20.3089  -27.9129  -40.7452 H         1 UNK         0.0695 
     77 H77        20.5780  -26.1997  -40.8852 H         1 UNK         0.0695 
     78 H78        19.7945  -28.1235  -43.1337 H         1 UNK         0.0983 
     79 H79        19.1738  -26.4469  -44.4455 H         1 UNK         0.3095 
     80 H80        19.2418  -22.9556  -44.2116 H         1 UNK         0.0454 
     81 H81        20.5631  -24.6334  -46.4073 H         1 UNK         0.0851 
     82 H82        21.2954  -23.2927  -45.5444 H         1 UNK         0.0851 
     83 H83        19.9242  -23.0012  -46.6012 H         1 UNK         0.0851 
     84 H84        17.2915  -23.7356  -44.8310 H         1 UNK         0.2976 
     85 H85        21.3522  -28.4473  -44.7626 H         1 UNK         0.3116 
     86 H86        23.8031  -27.2565  -45.1113 H         1 UNK         0.0646 
     87 H87        22.7110  -28.6760  -46.7997 H         1 UNK         0.0847 
     88 H88        24.3276  -29.2850  -46.4879 H         1 UNK         0.0847 
     89 H89        22.9385  -30.1120  -45.8005 H         1 UNK         0.0847 
     90 H90        25.1690  -26.9452  -43.4669 H         1 UNK         0.3040 
     91 H91        26.6972  -27.1948  -41.8978 H         1 UNK         0.1015 
     92 H92        27.0645  -30.0271  -42.9914 H         1 UNK         0.0786 
     93 H93        28.1428  -29.2507  -41.8379 H         1 UNK         0.0786 
     94 H94        27.9578  -28.5866  -43.4496 H         1 UNK         0.0786 
     95 H95        23.9413  -27.5699  -41.2609 H         1 UNK         0.3172 
     96 H96        22.6381  -27.8508  -39.5178 H         1 UNK         0.0595 
     97 H97        25.2390  -28.0211  -37.8909 H         1 UNK         0.0839 
     98 H98        23.6316  -27.7213  -37.2279 H         1 UNK         0.0839 
     99 H99        24.3617  -26.5595  -38.3147 H         1 UNK         0.0839 
    100 H100       24.3676  -29.8331  -37.3990 H         1 UNK         0.2998 
    101 H101       22.5337  -31.9743  -37.5234 H         1 UNK         0.0822 
    102 H102       24.1055  -33.0561  -35.9011 H         1 UNK         0.0787 
    103 H103       25.3250  -31.8401  -36.2550 H         1 UNK         0.0787 
    104 H104       23.8090  -31.3788  -35.4781 H         1 UNK         0.0787 
    105 H105       25.4908  -31.4755  -39.3571 H         1 UNK         0.3055 
    106 H106       25.9168  -34.2280  -40.1217 H         1 UNK         0.1106 
    107 H107       27.4741  -33.2304  -41.7882 H         1 UNK         0.0828 
    108 H108       26.8552  -31.6280  -41.4245 H         1 UNK         0.0828 
    109 H109       27.7361  -32.5330  -40.1967 H         1 UNK         0.0828 
    110 H110       23.5057  -31.9524  -41.0591 H         1 UNK         0.2931 
    111 H111       22.9076  -33.0244  -43.6543 H         1 UNK         0.0412 
    112 H112       21.2657  -35.6053  -40.9389 H         1 UNK         0.3472 
    113 H113       22.3559  -34.3505  -40.4028 H         1 UNK         0.3472 
    114 H114       20.9146  -31.6365  -41.8021 H         1 UNK         0.0970 
    115 H115       22.1535  -30.7470  -42.6195 H         1 UNK         0.0970 
    116 H116       18.5068  -32.6893  -44.4484 H         1 UNK         0.0612 
    117 H117       19.0436  -32.7475  -42.7946 H         1 UNK         0.0612 
@<TRIPOS>BOND
     1    1    2 1    
     2    1   62 1    
     3    1   63 1    
     4    1   64 1    
     5    2    3 2    
     6    2    4 am   BACKBONE|DICT|INTERRES
     7    4    5 1    
     8    4   65 1    
     9    5    6 1    
    10    5   25 1    
    11    5   66 1    
    12    6    7 1    
    13    6   67 1    
    14    6   68 1    
    15    7    8 1    
    16    8    9 1    
    17    8   69 1    
    18    8   70 1    
    19    9   10 ar   
    20    9   14 ar   
    21   10   11 ar   
    22   10   71 1    
    23   11   12 ar   
    24   11   61 1    
    25   12   13 ar   
    26   12   72 1    
    27   13   14 ar   
    28   13   15 1    
    29   14   73 1    
    30   15   16 1    
    31   15   74 1    
    32   15   75 1    
    33   16   17 1    
    34   17   18 1    
    35   17   76 1    
    36   17   77 1    
    37   18   19 1    
    38   18   27 1    
    39   18   78 1    
    40   19   20 am   BACKBONE|DICT|INTERRES
    41   19   79 1    
    42   20   21 2    
    43   20   22 1    
    44   22   23 1    
    45   22   24 1    
    46   22   80 1    
    47   23   81 1    
    48   23   82 1    
    49   23   83 1    
    50   24   25 am   BACKBONE|DICT|INTERRES
    51   24   84 1    
    52   25   26 2    
    53   27   28 2    
    54   27   29 am   BACKBONE|DICT|INTERRES
    55   29   30 1    
    56   29   85 1    
    57   30   31 1    
    58   30   32 1    
    59   30   86 1    
    60   31   87 1    
    61   31   88 1    
    62   31   89 1    
    63   32   33 2    
    64   32   34 am   BACKBONE|DICT|INTERRES
    65   34   35 1    
    66   34   90 1    
    67   35   36 1    
    68   35   37 1    
    69   35   91 1    
    70   36   92 1    
    71   36   93 1    
    72   36   94 1    
    73   37   38 2    
    74   37   39 am   BACKBONE|DICT|INTERRES
    75   39   40 1    
    76   39   95 1    
    77   40   41 1    
    78   40   42 1    
    79   40   96 1    
    80   41   97 1    
    81   41   98 1    
    82   41   99 1    
    83   42   43 2    
    84   42   44 am   BACKBONE|DICT|INTERRES
    85   44   45 1    
    86   44  100 1    
    87   45   46 1    
    88   45   47 1    
    89   45  101 1    
    90   46  102 1    
    91   46  103 1    
    92   46  104 1    
    93   47   48 2    
    94   47   49 am   BACKBONE|DICT|INTERRES
    95   49   50 1    
    96   49  105 1    
    97   50   51 1    
    98   50   52 1    
    99   50  106 1    
   100   51  107 1    
   101   51  108 1    
   102   51  109 1    
   103   52   53 2    
   104   52   54 am   BACKBONE|DICT|INTERRES
   105   54   55 1    
   106   54  110 1    
   107   55   56 1    
   108   55   59 1    
   109   55  111 1    
   110   56   57 am   BACKBONE|DICT|INTERRES
   111   56   58 2    
   112   57  112 1    
   113   57  113 1    
   114   59   60 1    
   115   59  114 1    
   116   59  115 1    
   117   60   61 1    
   118   61  116 1    
   119   61  117 1    
@<TRIPOS>SUBSTRUCTURE
     1 UNK         1 GROUP             0       ****    0 ROOT    
