@<TRIPOS>MOLECULE
3R8
117   119    1
SMALL
USER_CHARGES


@<TRIPOS>ATOM
      1 CA         18.9722  -25.3704  -39.6551 C.3       0 UNK        -0.2013 
      2 C          20.3706  -25.6213  -40.2097 C.2       0 UNK         0.4866 
      3 O          21.3491  -25.3956  -39.5008 O.2       0 UNK        -0.5176 
      4 N          20.5206  -26.0879  -41.4530 N.am      1 UNK        -0.4884 
      5 CA         19.4971  -26.2463  -42.4888 C.3       1 UNK         0.0853 
      6 C6         19.3444  -27.7334  -42.9136 C.3       10 UNK        -0.0849 
      7 S7         18.6618  -28.7903  -41.5938 S.3       10 UNK        -0.2776 
      8 C8         17.1477  -29.4532  -42.3621 C.3       10 UNK         0.0316 
      9 C9         17.4535  -30.4409  -43.4819 C.ar      10 UNK        -0.0863 
     10 C10        17.8930  -31.7341  -43.1767 C.ar      10 UNK        -0.1009 
     11 C11        18.1571  -32.6512  -44.1984 C.ar      10 UNK        -0.0712 
     12 C12        17.9943  -32.2635  -45.5305 C.ar      10 UNK        -0.0894 
     13 C13        17.5527  -30.9777  -45.8519 C.ar      10 UNK        -0.0745 
     14 C14        17.2721  -30.0738  -44.8206 C.ar      10 UNK        -0.0972 
     15 C15        17.3571  -30.5969  -47.3169 C.3       10 UNK         0.0209 
     16 S16        18.1353  -29.0154  -47.7814 S.3       10 UNK        -0.2568 
     17 C17        19.8827  -29.2913  -47.3234 C.3       10 UNK        -0.0983 
     18 CA         20.7179  -27.9867  -47.3807 C.3       3 UNK         0.0876 
     19 N          20.0769  -26.9103  -46.6224 N.am      3 UNK        -0.4424 
     20 C          20.2420  -25.5986  -46.8335 C.2       2 UNK         0.4918 
     21 O          21.0296  -25.1245  -47.6520 O.2       2 UNK        -0.4875 
     22 CA         19.3580  -24.6591  -45.9879 C.3       2 UNK         0.0481 
     23 CB         18.0612  -24.3248  -46.7423 C.3       2 UNK        -0.1831 
     24 N          19.0264  -25.2351  -44.6784 N.am      2 UNK        -0.4498 
     25 C          19.9255  -25.3864  -43.6961 C.2       1 UNK         0.5027 
     26 O          21.0612  -24.9067  -43.7528 O.2       1 UNK        -0.4969 
     27 C          22.1648  -28.2566  -46.9178 C.2       3 UNK         0.5005 
     28 O          22.9778  -28.7095  -47.7255 O.2       3 UNK        -0.5279 
     29 N          22.4629  -27.9920  -45.6388 N.am      4 UNK        -0.4463 
     30 CA         23.7532  -28.2204  -44.9937 C.3       4 UNK         0.0283 
     31 CB         23.9425  -29.7178  -44.6935 C.3       4 UNK        -0.1875 
     32 C          23.7958  -27.3985  -43.7027 C.2       4 UNK         0.4949 
     33 O          22.7665  -27.2506  -43.0437 O.2       4 UNK        -0.5039 
     34 N          24.9804  -26.8913  -43.3460 N.am      5 UNK        -0.4663 
     35 CA         25.2043  -25.9463  -42.2440 C.3       5 UNK         0.0242 
     36 CB         26.5104  -25.1759  -42.5193 C.3       5 UNK        -0.1982 
     37 C          25.1745  -26.5721  -40.8305 C.2       5 UNK         0.5017 
     38 O          25.9905  -26.2008  -39.9843 O.2       5 UNK        -0.5012 
     39 N          24.2361  -27.4902  -40.5831 N.am      6 UNK        -0.4439 
     40 CA         23.9416  -28.0754  -39.2795 C.3       6 UNK         0.0297 
     41 CB         24.9466  -29.1909  -38.9377 C.3       6 UNK        -0.2006 
     42 C          22.5098  -28.6121  -39.3115 C.2       6 UNK         0.4892 
     43 O          22.1221  -29.2324  -40.3037 O.2       6 UNK        -0.5089 
     44 N          21.7677  -28.3967  -38.2169 N.am      7 UNK        -0.4243 
     45 CA         20.3580  -28.7784  -38.0660 C.3       7 UNK         0.0196 
     46 CB         19.7938  -28.1297  -36.7921 C.3       7 UNK        -0.2007 
     47 C          20.1111  -30.2973  -38.0564 C.2       7 UNK         0.5020 
     48 O          18.9923  -30.7318  -38.3267 O.2       7 UNK        -0.5147 
     49 N          21.1582  -31.0809  -37.7727 N.am      8 UNK        -0.4734 
     50 CA         21.1645  -32.5436  -37.8171 C.3       8 UNK         0.0238 
     51 CB         22.1207  -33.0644  -36.7269 C.3       8 UNK        -0.1912 
     52 C          21.5237  -33.0809  -39.2189 C.2       8 UNK         0.5038 
     53 O          22.1881  -34.1146  -39.3132 O.2       8 UNK        -0.5046 
     54 N          21.0854  -32.3837  -40.2784 N.am      9 UNK        -0.4200 
     55 CA         21.3631  -32.6993  -41.6889 C.3       9 UNK         0.0839 
     56 C          22.8591  -32.4787  -42.0661 C.2       9 UNK         0.5513 
     57 N          23.4670  -31.3870  -41.6209 N.am      9 UNK        -0.7519 
     58 O          23.4811  -33.2877  -42.7503 O.2       9 UNK        -0.4960 
     59 C59        20.7945  -34.0912  -42.0935 C.3       10 UNK        -0.0876 
     60 S60        20.4017  -34.2364  -43.8698 S.3       10 UNK        -0.2414 
     61 C61        18.5896  -34.0735  -43.8803 C.3       10 UNK         0.0169 
     62 H62        18.3293  -26.2370  -39.8073 H         1 UNK         0.0903 
     63 H63        19.0162  -25.1792  -38.5831 H         1 UNK         0.0903 
     64 H64        18.5185  -24.5021  -40.1318 H         1 UNK         0.0903 
     65 H65        21.4568  -26.2462  -41.8133 H         1 UNK         0.3096 
     66 H66        18.5299  -25.8663  -42.1578 H         1 UNK         0.1121 
     67 H67        20.3073  -28.1558  -43.2050 H         1 UNK         0.0849 
     68 H68        18.7032  -27.8221  -43.7903 H         1 UNK         0.0849 
     69 H69        16.5585  -29.9558  -41.5937 H         1 UNK         0.0865 
     70 H70        16.5308  -28.6290  -42.7236 H         1 UNK         0.0865 
     71 H71        18.0241  -32.0266  -42.1436 H         1 UNK         0.1346 
     72 H72        18.2021  -32.9741  -46.3191 H         1 UNK         0.1412 
     73 H73        16.9149  -29.0829  -45.0650 H         1 UNK         0.1426 
     74 H74        16.2876  -30.5331  -47.5209 H         1 UNK         0.0716 
     75 H75        17.7490  -31.3746  -47.9744 H         1 UNK         0.0716 
     76 H76        20.2993  -30.0440  -47.9956 H         1 UNK         0.0695 
     77 H77        19.9210  -29.7190  -46.3197 H         1 UNK         0.0695 
     78 H78        20.7729  -27.6724  -48.4257 H         1 UNK         0.0983 
     79 H79        19.3681  -27.2013  -45.9687 H         1 UNK         0.3095 
     80 H80        19.9089  -23.7289  -45.8322 H         1 UNK         0.0454 
     81 H81        18.2804  -23.8694  -47.7091 H         1 UNK         0.0851 
     82 H82        17.4484  -23.6162  -46.1850 H         1 UNK         0.0851 
     83 H83        17.4597  -25.2148  -46.9321 H         1 UNK         0.0851 
     84 H84        18.0916  -25.6014  -44.5640 H         1 UNK         0.2976 
     85 H85        21.7699  -27.5673  -45.0364 H         1 UNK         0.3116 
     86 H86        24.5487  -27.8749  -45.6574 H         1 UNK         0.0646 
     87 H87        24.8646  -29.8970  -44.1393 H         1 UNK         0.0847 
     88 H88        23.1184  -30.1083  -44.0959 H         1 UNK         0.0847 
     89 H89        23.9971  -30.3065  -45.6090 H         1 UNK         0.0847 
     90 H90        25.7879  -27.1106  -43.9122 H         1 UNK         0.3040 
     91 H91        24.3896  -25.2181  -42.2621 H         1 UNK         0.1015 
     92 H92        26.6707  -24.3923  -41.7773 H         1 UNK         0.0786 
     93 H93        26.4872  -24.6887  -43.4943 H         1 UNK         0.0786 
     94 H94        27.3792  -25.8348  -42.4920 H         1 UNK         0.0786 
     95 H95        23.5695  -27.7135  -41.3199 H         1 UNK         0.3172 
     96 H96        24.0029  -27.2906  -38.5222 H         1 UNK         0.0595 
     97 H97        24.9467  -29.9796  -39.6897 H         1 UNK         0.0839 
     98 H98        24.7087  -29.6530  -37.9790 H         1 UNK         0.0839 
     99 H99        25.9623  -28.8025  -38.8640 H         1 UNK         0.0839 
    100 H100       22.1755  -27.8782  -37.4521 H         1 UNK         0.2998 
    101 H101       19.8158  -28.3735  -38.9216 H         1 UNK         0.0822 
    102 H102       18.7345  -28.3619  -36.6726 H         1 UNK         0.0787 
    103 H103       20.3084  -28.4823  -35.8974 H         1 UNK         0.0787 
    104 H104       19.8829  -27.0437  -36.8274 H         1 UNK         0.0787 
    105 H105       22.0436  -30.6316  -37.5902 H         1 UNK         0.3055 
    106 H106       20.1636  -32.9162  -37.5871 H         1 UNK         0.1106 
    107 H107       21.8467  -32.6833  -35.7431 H         1 UNK         0.0828 
    108 H108       22.0927  -34.1532  -36.6661 H         1 UNK         0.0828 
    109 H109       23.1536  -32.7749  -36.9244 H         1 UNK         0.0828 
    110 H110       20.5844  -31.5223  -40.1106 H         1 UNK         0.2931 
    111 H111       20.8112  -31.9463  -42.2534 H         1 UNK         0.0412 
    112 H112       24.4364  -31.2401  -41.8465 H         1 UNK         0.3472 
    113 H113       22.9476  -30.6804  -41.1049 H         1 UNK         0.3472 
    114 H114       21.4956  -34.8849  -41.8293 H         1 UNK         0.0970 
    115 H115       19.8940  -34.3074  -41.5183 H         1 UNK         0.0970 
    116 H116       18.1585  -34.4037  -42.9346 H         1 UNK         0.0612 
    117 H117       18.1909  -34.7513  -44.6366 H         1 UNK         0.0612 
@<TRIPOS>BOND
     1    1    2 1    
     2    1   62 1    
     3    1   63 1    
     4    1   64 1    
     5    2    3 2    
     6    2    4 am   BACKBONE|DICT|INTERRES
     7    4    5 1    
     8    4   65 1    
     9    5    6 1    
    10    5   25 1    
    11    5   66 1    
    12    6    7 1    
    13    6   67 1    
    14    6   68 1    
    15    7    8 1    
    16    8    9 1    
    17    8   69 1    
    18    8   70 1    
    19    9   10 ar   
    20    9   14 ar   
    21   10   11 ar   
    22   10   71 1    
    23   11   12 ar   
    24   11   61 1    
    25   12   13 ar   
    26   12   72 1    
    27   13   14 ar   
    28   13   15 1    
    29   14   73 1    
    30   15   16 1    
    31   15   74 1    
    32   15   75 1    
    33   16   17 1    
    34   17   18 1    
    35   17   76 1    
    36   17   77 1    
    37   18   19 1    
    38   18   27 1    
    39   18   78 1    
    40   19   20 am   BACKBONE|DICT|INTERRES
    41   19   79 1    
    42   20   21 2    
    43   20   22 1    
    44   22   23 1    
    45   22   24 1    
    46   22   80 1    
    47   23   81 1    
    48   23   82 1    
    49   23   83 1    
    50   24   25 am   BACKBONE|DICT|INTERRES
    51   24   84 1    
    52   25   26 2    
    53   27   28 2    
    54   27   29 am   BACKBONE|DICT|INTERRES
    55   29   30 1    
    56   29   85 1    
    57   30   31 1    
    58   30   32 1    
    59   30   86 1    
    60   31   87 1    
    61   31   88 1    
    62   31   89 1    
    63   32   33 2    
    64   32   34 am   BACKBONE|DICT|INTERRES
    65   34   35 1    
    66   34   90 1    
    67   35   36 1    
    68   35   37 1    
    69   35   91 1    
    70   36   92 1    
    71   36   93 1    
    72   36   94 1    
    73   37   38 2    
    74   37   39 am   BACKBONE|DICT|INTERRES
    75   39   40 1    
    76   39   95 1    
    77   40   41 1    
    78   40   42 1    
    79   40   96 1    
    80   41   97 1    
    81   41   98 1    
    82   41   99 1    
    83   42   43 2    
    84   42   44 am   BACKBONE|DICT|INTERRES
    85   44   45 1    
    86   44  100 1    
    87   45   46 1    
    88   45   47 1    
    89   45  101 1    
    90   46  102 1    
    91   46  103 1    
    92   46  104 1    
    93   47   48 2    
    94   47   49 am   BACKBONE|DICT|INTERRES
    95   49   50 1    
    96   49  105 1    
    97   50   51 1    
    98   50   52 1    
    99   50  106 1    
   100   51  107 1    
   101   51  108 1    
   102   51  109 1    
   103   52   53 2    
   104   52   54 am   BACKBONE|DICT|INTERRES
   105   54   55 1    
   106   54  110 1    
   107   55   56 1    
   108   55   59 1    
   109   55  111 1    
   110   56   57 am   BACKBONE|DICT|INTERRES
   111   56   58 2    
   112   57  112 1    
   113   57  113 1    
   114   59   60 1    
   115   59  114 1    
   116   59  115 1    
   117   60   61 1    
   118   61  116 1    
   119   61  117 1    
@<TRIPOS>SUBSTRUCTURE
     1 UNK         1 GROUP             0       ****    0 ROOT    
