@<TRIPOS>MOLECULE
3R8
117   119    1
SMALL
USER_CHARGES


@<TRIPOS>ATOM
      1 CA         15.6800  -25.1147  -43.4955 C.3       0 UNK        -0.2013 
      2 C          16.8043  -24.9435  -44.5052 C.2       0 UNK         0.4866 
      3 O          17.3300  -23.8393  -44.6465 O.2       0 UNK        -0.5176 
      4 N          17.1585  -26.0162  -45.2264 N.am      1 UNK        -0.4884 
      5 CA         18.1263  -25.9940  -46.3324 C.3       1 UNK         0.0853 
      6 C6         18.0689  -27.2557  -47.2449 C.3       10 UNK        -0.0849 
      7 S7         16.4016  -27.9899  -47.4236 S.3       10 UNK        -0.2776 
      8 C8         16.7037  -29.7646  -47.1042 C.3       10 UNK         0.0316 
      9 C9         17.4467  -30.0343  -45.7987 C.ar      10 UNK        -0.0863 
     10 C10        18.7190  -30.6155  -45.8260 C.ar      10 UNK        -0.1009 
     11 C11        19.4068  -30.8790  -44.6385 C.ar      10 UNK        -0.0712 
     12 C12        18.8233  -30.5429  -43.4148 C.ar      10 UNK        -0.0894 
     13 C13        17.5561  -29.9566  -43.3730 C.ar      10 UNK        -0.0745 
     14 C14        16.8666  -29.7158  -44.5669 C.ar      10 UNK        -0.0972 
     15 C15        16.9295  -29.5747  -42.0424 C.3       10 UNK         0.0209 
     16 S16        17.0722  -27.7838  -41.7707 S.3       10 UNK        -0.2568 
     17 C17        18.3153  -27.6573  -40.4424 C.3       10 UNK        -0.0983 
     18 CA         19.7851  -27.8775  -40.8919 C.3       3 UNK         0.0876 
     19 N          20.1017  -27.1645  -42.1365 N.am      3 UNK        -0.4424 
     20 C          21.2939  -27.0070  -42.7360 C.2       2 UNK         0.4918 
     21 O          22.3849  -27.1992  -42.1949 O.2       2 UNK        -0.4875 
     22 CA         21.2821  -26.6021  -44.2214 C.3       2 UNK         0.0481 
     23 CB         22.1070  -27.5957  -45.0653 C.3       2 UNK        -0.1831 
     24 N          19.9302  -26.5317  -44.7820 N.am      2 UNK        -0.4498 
     25 C          19.5649  -25.7759  -45.8259 C.2       1 UNK         0.5027 
     26 O          20.3017  -24.9658  -46.3903 O.2       1 UNK        -0.4969 
     27 C          20.7513  -27.5859  -39.7266 C.2       3 UNK         0.5005 
     28 O          20.6336  -26.5432  -39.0796 O.2       3 UNK        -0.5279 
     29 N          21.7072  -28.4997  -39.5104 N.am      4 UNK        -0.4463 
     30 CA         22.7664  -28.5257  -38.4901 C.3       4 UNK         0.0283 
     31 CB         22.1776  -28.5172  -37.0666 C.3       4 UNK        -0.1875 
     32 C          23.8494  -27.4419  -38.6494 C.2       4 UNK         0.4949 
     33 O          24.9951  -27.6864  -38.2719 O.2       4 UNK        -0.5039 
     34 N          23.4887  -26.2828  -39.2127 N.am      5 UNK        -0.4663 
     35 CA         24.3782  -25.1635  -39.5238 C.3       5 UNK         0.0242 
     36 CB         23.5329  -23.9598  -39.9700 C.3       5 UNK        -0.1982 
     37 C          25.4301  -25.5067  -40.5910 C.2       5 UNK         0.5017 
     38 O          26.5549  -25.0124  -40.5010 O.2       5 UNK        -0.5012 
     39 N          25.0506  -26.3444  -41.5647 N.am      6 UNK        -0.4439 
     40 CA         25.9260  -26.8400  -42.6262 C.3       6 UNK         0.0297 
     41 CB         25.6109  -26.1124  -43.9438 C.3       6 UNK        -0.2006 
     42 C          25.8561  -28.3677  -42.7819 C.2       6 UNK         0.4892 
     43 O          26.8803  -28.9652  -43.1160 O.2       6 UNK        -0.5089 
     44 N          24.6952  -28.9885  -42.5255 N.am      7 UNK        -0.4243 
     45 CA         24.5139  -30.4399  -42.5748 C.3       7 UNK         0.0196 
     46 CB         24.3367  -30.9059  -44.0313 C.3       7 UNK        -0.2007 
     47 C          23.3047  -30.8376  -41.7257 C.2       7 UNK         0.5020 
     48 O          22.3107  -30.1122  -41.7021 O.2       7 UNK        -0.5147 
     49 N          23.3876  -31.9873  -41.0488 N.am      8 UNK        -0.4734 
     50 CA         22.2970  -32.5077  -40.2191 C.3       8 UNK         0.0238 
     51 CB         22.8643  -33.4730  -39.1654 C.3       8 UNK        -0.1912 
     52 C          21.1956  -33.1901  -41.0469 C.2       8 UNK         0.5038 
     53 O          20.0169  -32.9890  -40.7543 O.2       8 UNK        -0.5046 
     54 N          21.6032  -33.9907  -42.0445 N.am      9 UNK        -0.4200 
     55 CA         20.7378  -34.8571  -42.8706 C.3       9 UNK         0.0839 
     56 C          19.9750  -35.9599  -42.0683 C.2       9 UNK         0.5513 
     57 N          20.4481  -36.3641  -40.8950 N.am      9 UNK        -0.7519 
     58 O          18.9620  -36.4858  -42.5229 O.2       9 UNK        -0.4960 
     59 C59        19.8180  -34.0551  -43.8375 C.3       10 UNK        -0.0876 
     60 S60        20.7545  -33.2561  -45.1852 S.3       10 UNK        -0.2414 
     61 C61        20.7888  -31.5119  -44.6755 C.3       10 UNK         0.0169 
     62 H62        15.2378  -26.1097  -43.5431 H         1 UNK         0.0903 
     63 H63        16.0543  -24.9536  -42.4849 H         1 UNK         0.0903 
     64 H64        14.8913  -24.3875  -43.6857 H         1 UNK         0.0903 
     65 H65        16.6757  -26.8942  -45.0950 H         1 UNK         0.3096 
     66 H66        17.8721  -25.1320  -46.9540 H         1 UNK         0.1121 
     67 H67        18.7562  -28.0260  -46.8945 H         1 UNK         0.0849 
     68 H68        18.4287  -26.9970  -48.2423 H         1 UNK         0.0849 
     69 H69        15.7458  -30.2860  -47.0809 H         1 UNK         0.0865 
     70 H70        17.2518  -30.1804  -47.9512 H         1 UNK         0.0865 
     71 H71        19.1772  -30.8725  -46.7715 H         1 UNK         0.1346 
     72 H72        19.3570  -30.7452  -42.4962 H         1 UNK         0.1412 
     73 H73        15.8823  -29.2682  -44.5376 H         1 UNK         0.1426 
     74 H74        17.3880  -30.1267  -41.2204 H         1 UNK         0.0716 
     75 H75        15.8738  -29.8495  -42.0443 H         1 UNK         0.0716 
     76 H76        18.0502  -28.3562  -39.6468 H         1 UNK         0.0695 
     77 H77        18.1955  -26.6600  -40.0143 H         1 UNK         0.0695 
     78 H78        19.8849  -28.9366  -41.1314 H         1 UNK         0.0983 
     79 H79        19.2828  -26.8646  -42.6409 H         1 UNK         0.3095 
     80 H80        21.7499  -25.6170  -44.2734 H         1 UNK         0.0454 
     81 H81        21.6105  -28.5636  -45.1297 H         1 UNK         0.0851 
     82 H82        23.0946  -27.7755  -44.6441 H         1 UNK         0.0851 
     83 H83        22.2538  -27.2281  -46.0807 H         1 UNK         0.0851 
     84 H84        19.2570  -27.1971  -44.4287 H         1 UNK         0.2976 
     85 H85        21.8047  -29.2155  -40.2311 H         1 UNK         0.3116 
     86 H86        23.2725  -29.4826  -38.6280 H         1 UNK         0.0646 
     87 H87        21.6715  -27.5785  -36.8395 H         1 UNK         0.0847 
     88 H88        22.9631  -28.6477  -36.3212 H         1 UNK         0.0847 
     89 H89        21.4620  -29.3274  -36.9279 H         1 UNK         0.0847 
     90 H90        22.5031  -26.1678  -39.4299 H         1 UNK         0.3040 
     91 H91        24.9113  -24.8950  -38.6091 H         1 UNK         0.1015 
     92 H92        22.9547  -24.1842  -40.8676 H         1 UNK         0.0786 
     93 H93        24.1652  -23.0995  -40.1940 H         1 UNK         0.0786 
     94 H94        22.8352  -23.6544  -39.1898 H         1 UNK         0.0786 
     95 H95        24.0868  -26.6693  -41.5733 H         1 UNK         0.3172 
     96 H96        26.9662  -26.6219  -42.3752 H         1 UNK         0.0595 
     97 H97        24.5470  -26.1257  -44.1732 H         1 UNK         0.0839 
     98 H98        26.1394  -26.5648  -44.7842 H         1 UNK         0.0839 
     99 H99        25.9196  -25.0682  -43.8931 H         1 UNK         0.0839 
    100 H100       23.8620  -28.4611  -42.2759 H         1 UNK         0.2998 
    101 H101       25.3972  -30.9216  -42.1497 H         1 UNK         0.0822 
    102 H102       25.2512  -30.7635  -44.6071 H         1 UNK         0.0787 
    103 H103       24.0843  -31.9660  -44.0828 H         1 UNK         0.0787 
    104 H104       23.5425  -30.3527  -44.5312 H         1 UNK         0.0787 
    105 H105       24.2327  -32.5385  -41.1054 H         1 UNK         0.3055 
    106 H106       21.8312  -31.6757  -39.6852 H         1 UNK         0.1106 
    107 H107       22.0695  -33.8695  -38.5316 H         1 UNK         0.0828 
    108 H108       23.3740  -34.3230  -39.6203 H         1 UNK         0.0828 
    109 H109       23.5748  -32.9685  -38.5102 H         1 UNK         0.0828 
    110 H110       22.5942  -34.0830  -42.2090 H         1 UNK         0.2931 
    111 H111       21.4256  -35.4311  -43.4928 H         1 UNK         0.0412 
    112 H112       19.9572  -37.0844  -40.3884 H         1 UNK         0.3472 
    113 H113       21.2898  -35.9641  -40.5141 H         1 UNK         0.3472 
    114 H114       19.1011  -34.7141  -44.3296 H         1 UNK         0.0970 
    115 H115       19.2160  -33.3284  -43.2927 H         1 UNK         0.0970 
    116 H116       21.2729  -31.4412  -43.7036 H         1 UNK         0.0612 
    117 H117       21.4136  -30.9604  -45.3779 H         1 UNK         0.0612 
@<TRIPOS>BOND
     1    1    2 1    
     2    1   62 1    
     3    1   63 1    
     4    1   64 1    
     5    2    3 2    
     6    2    4 am   BACKBONE|DICT|INTERRES
     7    4    5 1    
     8    4   65 1    
     9    5    6 1    
    10    5   25 1    
    11    5   66 1    
    12    6    7 1    
    13    6   67 1    
    14    6   68 1    
    15    7    8 1    
    16    8    9 1    
    17    8   69 1    
    18    8   70 1    
    19    9   10 ar   
    20    9   14 ar   
    21   10   11 ar   
    22   10   71 1    
    23   11   12 ar   
    24   11   61 1    
    25   12   13 ar   
    26   12   72 1    
    27   13   14 ar   
    28   13   15 1    
    29   14   73 1    
    30   15   16 1    
    31   15   74 1    
    32   15   75 1    
    33   16   17 1    
    34   17   18 1    
    35   17   76 1    
    36   17   77 1    
    37   18   19 1    
    38   18   27 1    
    39   18   78 1    
    40   19   20 am   BACKBONE|DICT|INTERRES
    41   19   79 1    
    42   20   21 2    
    43   20   22 1    
    44   22   23 1    
    45   22   24 1    
    46   22   80 1    
    47   23   81 1    
    48   23   82 1    
    49   23   83 1    
    50   24   25 am   BACKBONE|DICT|INTERRES
    51   24   84 1    
    52   25   26 2    
    53   27   28 2    
    54   27   29 am   BACKBONE|DICT|INTERRES
    55   29   30 1    
    56   29   85 1    
    57   30   31 1    
    58   30   32 1    
    59   30   86 1    
    60   31   87 1    
    61   31   88 1    
    62   31   89 1    
    63   32   33 2    
    64   32   34 am   BACKBONE|DICT|INTERRES
    65   34   35 1    
    66   34   90 1    
    67   35   36 1    
    68   35   37 1    
    69   35   91 1    
    70   36   92 1    
    71   36   93 1    
    72   36   94 1    
    73   37   38 2    
    74   37   39 am   BACKBONE|DICT|INTERRES
    75   39   40 1    
    76   39   95 1    
    77   40   41 1    
    78   40   42 1    
    79   40   96 1    
    80   41   97 1    
    81   41   98 1    
    82   41   99 1    
    83   42   43 2    
    84   42   44 am   BACKBONE|DICT|INTERRES
    85   44   45 1    
    86   44  100 1    
    87   45   46 1    
    88   45   47 1    
    89   45  101 1    
    90   46  102 1    
    91   46  103 1    
    92   46  104 1    
    93   47   48 2    
    94   47   49 am   BACKBONE|DICT|INTERRES
    95   49   50 1    
    96   49  105 1    
    97   50   51 1    
    98   50   52 1    
    99   50  106 1    
   100   51  107 1    
   101   51  108 1    
   102   51  109 1    
   103   52   53 2    
   104   52   54 am   BACKBONE|DICT|INTERRES
   105   54   55 1    
   106   54  110 1    
   107   55   56 1    
   108   55   59 1    
   109   55  111 1    
   110   56   57 am   BACKBONE|DICT|INTERRES
   111   56   58 2    
   112   57  112 1    
   113   57  113 1    
   114   59   60 1    
   115   59  114 1    
   116   59  115 1    
   117   60   61 1    
   118   61  116 1    
   119   61  117 1    
@<TRIPOS>SUBSTRUCTURE
     1 UNK         1 GROUP             0       ****    0 ROOT    
