@<TRIPOS>MOLECULE
3R8
117   119    1
SMALL
USER_CHARGES


@<TRIPOS>ATOM
      1 CA         14.4270  -21.8297  -44.4445 C.3       0 UNK        -0.2013 
      2 C          14.8344  -23.1550  -45.0711 C.2       0 UNK         0.4866 
      3 O          14.8292  -23.2798  -46.2965 O.2       0 UNK        -0.5176 
      4 N          15.1794  -24.1476  -44.2410 N.am      1 UNK        -0.4884 
      5 CA         15.6675  -25.4621  -44.6720 C.3       1 UNK         0.0853 
      6 C6         15.4882  -26.5172  -43.5507 C.3       10 UNK        -0.0849 
      7 S7         15.2834  -28.2002  -44.2231 S.3       10 UNK        -0.2776 
      8 C8         15.6013  -29.2186  -42.7493 C.3       10 UNK         0.0316 
      9 C9         17.0865  -29.3219  -42.4327 C.ar      10 UNK        -0.0863 
     10 C10        17.9012  -30.1767  -43.1794 C.ar      10 UNK        -0.1009 
     11 C11        19.2557  -30.3207  -42.8670 C.ar      10 UNK        -0.0712 
     12 C12        19.7972  -29.6002  -41.7987 C.ar      10 UNK        -0.0894 
     13 C13        18.9991  -28.7181  -41.0617 C.ar      10 UNK        -0.0745 
     14 C14        17.6427  -28.5903  -41.3794 C.ar      10 UNK        -0.0972 
     15 C15        19.5909  -27.8971  -39.9210 C.3       10 UNK         0.0209 
     16 S16        21.0225  -26.8868  -40.4314 S.3       10 UNK        -0.2568 
     17 C17        20.3567  -25.9544  -41.8541 C.3       10 UNK        -0.0983 
     18 CA         20.9417  -26.4773  -43.1947 C.3       3 UNK         0.0876 
     19 N          20.0272  -26.2413  -44.3084 N.am      3 UNK        -0.4424 
     20 C          19.9500  -26.9810  -45.4196 C.2       2 UNK         0.4918 
     21 O          20.6568  -27.9711  -45.6210 O.2       2 UNK        -0.4875 
     22 CA         18.9173  -26.5321  -46.4762 C.3       2 UNK         0.0481 
     23 CB         18.8579  -27.4897  -47.6806 C.3       2 UNK        -0.1831 
     24 N          17.5655  -26.3825  -45.9265 N.am      2 UNK        -0.4498 
     25 C          17.1345  -25.3809  -45.1483 C.2       1 UNK         0.5027 
     26 O          17.8577  -24.4503  -44.7781 O.2       1 UNK        -0.4969 
     27 C          22.3374  -25.9133  -43.5314 C.2       3 UNK         0.5005 
     28 O          22.7208  -24.8545  -43.0294 O.2       3 UNK        -0.5279 
     29 N          23.0655  -26.6215  -44.4079 N.am      4 UNK        -0.4463 
     30 CA         24.4522  -26.3186  -44.7851 C.3       4 UNK         0.0283 
     31 CB         24.8689  -27.2133  -45.9632 C.3       4 UNK        -0.1875 
     32 C          25.4348  -26.4785  -43.6098 C.2       4 UNK         0.4949 
     33 O          26.4118  -25.7344  -43.5227 O.2       4 UNK        -0.5039 
     34 N          25.1297  -27.4235  -42.7163 N.am      5 UNK        -0.4663 
     35 CA         25.7560  -27.6357  -41.4195 C.3       5 UNK         0.0242 
     36 CB         27.0600  -28.4372  -41.5738 C.3       5 UNK        -0.1982 
     37 C          24.7234  -28.3455  -40.5342 C.2       5 UNK         0.5017 
     38 O          23.8599  -29.0517  -41.0669 O.2       5 UNK        -0.5012 
     39 N          24.8191  -28.1173  -39.2167 N.am      6 UNK        -0.4439 
     40 CA         23.8616  -28.5142  -38.1769 C.3       6 UNK         0.0297 
     41 CB         24.4103  -28.0882  -36.8033 C.3       6 UNK        -0.2006 
     42 C          23.4985  -30.0101  -38.1948 C.2       6 UNK         0.4892 
     43 O          24.2373  -30.8251  -37.6393 O.2       6 UNK        -0.5089 
     44 N          22.3730  -30.3228  -38.8550 N.am      7 UNK        -0.4243 
     45 CA         21.7991  -31.6576  -39.0739 C.3       7 UNK         0.0196 
     46 CB         21.2861  -32.2506  -37.7449 C.3       7 UNK        -0.2007 
     47 C          22.7356  -32.6227  -39.8311 C.2       7 UNK         0.5020 
     48 O          22.6285  -33.8384  -39.6600 O.2       7 UNK        -0.5147 
     49 N          23.6304  -32.0788  -40.6707 N.am      8 UNK        -0.4734 
     50 CA         24.6663  -32.8325  -41.3911 C.3       8 UNK         0.0238 
     51 CB         25.6587  -31.8465  -42.0209 C.3       8 UNK        -0.1912 
     52 C          24.1324  -33.8207  -42.4434 C.2       8 UNK         0.5038 
     53 O          24.8561  -34.7409  -42.8264 O.2       8 UNK        -0.5046 
     54 N          22.8810  -33.6263  -42.8723 N.am      9 UNK        -0.4200 
     55 CA         22.1139  -34.5632  -43.7020 C.3       9 UNK         0.0839 
     56 C          21.6522  -35.8571  -42.9649 C.2       9 UNK         0.5513 
     57 N          21.7579  -35.9553  -41.6438 N.am      9 UNK        -0.7519 
     58 O          21.2003  -36.7984  -43.6121 O.2       9 UNK        -0.4960 
     59 C59        20.9393  -33.8474  -44.4185 C.3       10 UNK        -0.0876 
     60 S60        19.8017  -32.9890  -43.2733 S.3       10 UNK        -0.2414 
     61 C61        20.1280  -31.2505  -43.6930 C.3       10 UNK         0.0169 
     62 H62        15.0946  -21.0362  -44.7793 H         1 UNK         0.0903 
     63 H63        13.4117  -21.5696  -44.7428 H         1 UNK         0.0903 
     64 H64        14.4617  -21.8648  -43.3557 H         1 UNK         0.0903 
     65 H65        15.2014  -23.9743  -43.2459 H         1 UNK         0.3096 
     66 H66        15.0600  -25.7595  -45.5306 H         1 UNK         0.1121 
     67 H67        14.5883  -26.3040  -42.9709 H         1 UNK         0.0849 
     68 H68        16.3158  -26.4871  -42.8394 H         1 UNK         0.0849 
     69 H69        15.0468  -28.8181  -41.8990 H         1 UNK         0.0865 
     70 H70        15.2028  -30.2194  -42.9229 H         1 UNK         0.0865 
     71 H71        17.4783  -30.7409  -43.9996 H         1 UNK         0.1346 
     72 H72        20.8465  -29.7025  -41.5587 H         1 UNK         0.1412 
     73 H73        17.0163  -27.9228  -40.8034 H         1 UNK         0.1426 
     74 H74        18.8390  -27.2325  -39.4925 H         1 UNK         0.0716 
     75 H75        19.8951  -28.5697  -39.1185 H         1 UNK         0.0716 
     76 H76        20.5410  -24.8885  -41.7097 H         1 UNK         0.0695 
     77 H77        19.2704  -26.0563  -41.8520 H         1 UNK         0.0695 
     78 H78        21.0575  -27.5584  -43.1008 H         1 UNK         0.0983 
     79 H79        19.4213  -25.4285  -44.2436 H         1 UNK         0.3095 
     80 H80        19.2455  -25.5586  -46.8460 H         1 UNK         0.0454 
     81 H81        19.8356  -27.5833  -48.1554 H         1 UNK         0.0851 
     82 H82        18.1658  -27.1298  -48.4419 H         1 UNK         0.0851 
     83 H83        18.5425  -28.4910  -47.3845 H         1 UNK         0.0851 
     84 H84        16.9253  -27.1420  -46.1141 H         1 UNK         0.2976 
     85 H85        22.6334  -27.4318  -44.8377 H         1 UNK         0.3116 
     86 H86        24.4924  -25.2777  -45.1129 H         1 UNK         0.0646 
     87 H87        25.8889  -26.9901  -46.2792 H         1 UNK         0.0847 
     88 H88        24.8339  -28.2715  -45.7009 H         1 UNK         0.0847 
     89 H89        24.2226  -27.0594  -46.8275 H         1 UNK         0.0847 
     90 H90        24.2911  -27.9757  -42.8500 H         1 UNK         0.3040 
     91 H91        25.9777  -26.6641  -40.9718 H         1 UNK         0.1015 
     92 H92        27.4364  -28.7793  -40.6089 H         1 UNK         0.0786 
     93 H93        27.8406  -27.8256  -42.0265 H         1 UNK         0.0786 
     94 H94        26.9244  -29.3108  -42.2094 H         1 UNK         0.0786 
     95 H95        25.5929  -27.5531  -38.8964 H         1 UNK         0.3172 
     96 H96        22.9468  -27.9443  -38.3485 H         1 UNK         0.0595 
     97 H97        25.3717  -28.5566  -36.5882 H         1 UNK         0.0839 
     98 H98        23.7246  -28.3732  -36.0040 H         1 UNK         0.0839 
     99 H99        24.5414  -27.0077  -36.7433 H         1 UNK         0.0839 
    100 H100       21.9003  -29.5648  -39.3273 H         1 UNK         0.2998 
    101 H101       20.9337  -31.5156  -39.7228 H         1 UNK         0.0822 
    102 H102       20.7347  -33.1763  -37.9148 H         1 UNK         0.0787 
    103 H103       22.1052  -32.4808  -37.0628 H         1 UNK         0.0787 
    104 H104       20.6099  -31.5622  -37.2381 H         1 UNK         0.0787 
    105 H105       23.6550  -31.0671  -40.7619 H         1 UNK         0.3055 
    106 H106       25.2072  -33.4307  -40.6543 H         1 UNK         0.1106 
    107 H107       26.1619  -31.2672  -41.2477 H         1 UNK         0.0828 
    108 H108       26.4322  -32.3685  -42.5862 H         1 UNK         0.0828 
    109 H109       25.1642  -31.1525  -42.7018 H         1 UNK         0.0828 
    110 H110       22.3581  -32.8590  -42.4789 H         1 UNK         0.2931 
    111 H111       22.7884  -34.9095  -44.4876 H         1 UNK         0.0412 
    112 H112       21.4582  -36.8035  -41.1900 H         1 UNK         0.3472 
    113 H113       22.1154  -35.1877  -41.0854 H         1 UNK         0.3472 
    114 H114       21.3394  -33.1304  -45.1370 H         1 UNK         0.0970 
    115 H115       20.3616  -34.5558  -45.0154 H         1 UNK         0.0970 
    116 H116       21.1848  -31.0284  -43.5358 H         1 UNK         0.0612 
    117 H117       19.9295  -31.0861  -44.7534 H         1 UNK         0.0612 
@<TRIPOS>BOND
     1    1    2 1    
     2    1   62 1    
     3    1   63 1    
     4    1   64 1    
     5    2    3 2    
     6    2    4 am   BACKBONE|DICT|INTERRES
     7    4    5 1    
     8    4   65 1    
     9    5    6 1    
    10    5   25 1    
    11    5   66 1    
    12    6    7 1    
    13    6   67 1    
    14    6   68 1    
    15    7    8 1    
    16    8    9 1    
    17    8   69 1    
    18    8   70 1    
    19    9   10 ar   
    20    9   14 ar   
    21   10   11 ar   
    22   10   71 1    
    23   11   12 ar   
    24   11   61 1    
    25   12   13 ar   
    26   12   72 1    
    27   13   14 ar   
    28   13   15 1    
    29   14   73 1    
    30   15   16 1    
    31   15   74 1    
    32   15   75 1    
    33   16   17 1    
    34   17   18 1    
    35   17   76 1    
    36   17   77 1    
    37   18   19 1    
    38   18   27 1    
    39   18   78 1    
    40   19   20 am   BACKBONE|DICT|INTERRES
    41   19   79 1    
    42   20   21 2    
    43   20   22 1    
    44   22   23 1    
    45   22   24 1    
    46   22   80 1    
    47   23   81 1    
    48   23   82 1    
    49   23   83 1    
    50   24   25 am   BACKBONE|DICT|INTERRES
    51   24   84 1    
    52   25   26 2    
    53   27   28 2    
    54   27   29 am   BACKBONE|DICT|INTERRES
    55   29   30 1    
    56   29   85 1    
    57   30   31 1    
    58   30   32 1    
    59   30   86 1    
    60   31   87 1    
    61   31   88 1    
    62   31   89 1    
    63   32   33 2    
    64   32   34 am   BACKBONE|DICT|INTERRES
    65   34   35 1    
    66   34   90 1    
    67   35   36 1    
    68   35   37 1    
    69   35   91 1    
    70   36   92 1    
    71   36   93 1    
    72   36   94 1    
    73   37   38 2    
    74   37   39 am   BACKBONE|DICT|INTERRES
    75   39   40 1    
    76   39   95 1    
    77   40   41 1    
    78   40   42 1    
    79   40   96 1    
    80   41   97 1    
    81   41   98 1    
    82   41   99 1    
    83   42   43 2    
    84   42   44 am   BACKBONE|DICT|INTERRES
    85   44   45 1    
    86   44  100 1    
    87   45   46 1    
    88   45   47 1    
    89   45  101 1    
    90   46  102 1    
    91   46  103 1    
    92   46  104 1    
    93   47   48 2    
    94   47   49 am   BACKBONE|DICT|INTERRES
    95   49   50 1    
    96   49  105 1    
    97   50   51 1    
    98   50   52 1    
    99   50  106 1    
   100   51  107 1    
   101   51  108 1    
   102   51  109 1    
   103   52   53 2    
   104   52   54 am   BACKBONE|DICT|INTERRES
   105   54   55 1    
   106   54  110 1    
   107   55   56 1    
   108   55   59 1    
   109   55  111 1    
   110   56   57 am   BACKBONE|DICT|INTERRES
   111   56   58 2    
   112   57  112 1    
   113   57  113 1    
   114   59   60 1    
   115   59  114 1    
   116   59  115 1    
   117   60   61 1    
   118   61  116 1    
   119   61  117 1    
@<TRIPOS>SUBSTRUCTURE
     1 UNK         1 GROUP             0       ****    0 ROOT    
