@<TRIPOS>MOLECULE
3R8
117   119    1
SMALL
USER_CHARGES


@<TRIPOS>ATOM
      1 CA         18.5841  -24.4168  -49.7144 C.3       0 UNK        -0.2013 
      2 C          18.7777  -25.2642  -48.4658 C.2       0 UNK         0.4866 
      3 O          19.8456  -25.8492  -48.2822 O.2       0 UNK        -0.5176 
      4 N          17.7502  -25.3433  -47.6118 N.am      1 UNK        -0.4884 
      5 CA         17.7777  -26.0706  -46.3391 C.3       1 UNK         0.0853 
      6 C6         16.3529  -26.2909  -45.7753 C.3       10 UNK        -0.0849 
      7 S7         15.2659  -27.3164  -46.8277 S.3       10 UNK        -0.2776 
      8 C8         16.2571  -28.8213  -47.1592 C.3       10 UNK         0.0316 
      9 C9         16.8664  -29.4950  -45.9275 C.ar      10 UNK        -0.0863 
     10 C10        18.0813  -30.1765  -46.0543 C.ar      10 UNK        -0.1009 
     11 C11        18.6542  -30.8318  -44.9595 C.ar      10 UNK        -0.0712 
     12 C12        18.0167  -30.7772  -43.7151 C.ar      10 UNK        -0.0894 
     13 C13        16.8151  -30.0800  -43.5657 C.ar      10 UNK        -0.0745 
     14 C14        16.2297  -29.4751  -44.6815 C.ar      10 UNK        -0.0972 
     15 C15        16.1323  -29.9798  -42.2090 C.3       10 UNK         0.0209 
     16 S16        16.0564  -28.2474  -41.6454 S.3       10 UNK        -0.2568 
     17 C17        17.2422  -28.2119  -40.2594 C.3       10 UNK        -0.0983 
     18 CA         18.7318  -28.1192  -40.6789 C.3       3 UNK         0.0876 
     19 N          18.9749  -27.0880  -41.6944 N.am      3 UNK        -0.4424 
     20 C          20.1596  -26.7709  -42.2378 C.2       2 UNK         0.4918 
     21 O          21.2258  -27.3263  -41.9598 O.2       2 UNK        -0.4875 
     22 CA         20.1149  -25.6750  -43.3102 C.3       2 UNK         0.0481 
     23 CB         21.5040  -25.2775  -43.8448 C.3       2 UNK        -0.1831 
     24 N          19.2652  -26.1351  -44.4051 N.am      2 UNK        -0.4498 
     25 C          18.6483  -25.3480  -45.2929 C.2       1 UNK         0.5027 
     26 O          18.7100  -24.1154  -45.2837 O.2       1 UNK        -0.4969 
     27 C          19.6116  -27.8961  -39.4321 C.2       3 UNK         0.5005 
     28 O          19.7329  -26.7567  -38.9743 O.2       3 UNK        -0.5279 
     29 N          20.2305  -28.9726  -38.9306 N.am      4 UNK        -0.4463 
     30 CA         21.2058  -29.0489  -37.8313 C.3       4 UNK         0.0283 
     31 CB         20.6091  -28.5398  -36.5046 C.3       4 UNK        -0.1875 
     32 C          22.5640  -28.3773  -38.1202 C.2       4 UNK         0.4949 
     33 O          23.5880  -28.8864  -37.6655 O.2       4 UNK        -0.5039 
     34 N          22.5581  -27.2536  -38.8458 N.am      5 UNK        -0.4663 
     35 CA         23.7311  -26.4469  -39.1725 C.3       5 UNK         0.0242 
     36 CB         23.2751  -25.0675  -39.6768 C.3       5 UNK        -0.1982 
     37 C          24.6664  -27.1194  -40.1874 C.2       5 UNK         0.5017 
     38 O          25.8653  -27.2253  -39.9227 O.2       5 UNK        -0.5012 
     39 N          24.1213  -27.5479  -41.3347 N.am      6 UNK        -0.4439 
     40 CA         24.8980  -28.0734  -42.4621 C.3       6 UNK         0.0297 
     41 CB         24.1706  -27.7656  -43.7825 C.3       6 UNK        -0.2006 
     42 C          25.2531  -29.5619  -42.3019 C.2       6 UNK         0.4892 
     43 O          24.8313  -30.3825  -43.1183 O.2       6 UNK        -0.5089 
     44 N          26.0431  -29.8685  -41.2621 N.am      7 UNK        -0.4243 
     45 CA         26.6813  -31.1560  -40.9554 C.3       7 UNK         0.0196 
     46 CB         27.8893  -31.3788  -41.8926 C.3       7 UNK        -0.2007 
     47 C          25.6929  -32.3371  -40.9488 C.2       7 UNK         0.5020 
     48 O          25.0074  -32.5453  -39.9479 O.2       7 UNK        -0.5147 
     49 N          25.6139  -33.0678  -42.0706 N.am      8 UNK        -0.4734 
     50 CA         24.6842  -34.1765  -42.3124 C.3       8 UNK         0.0238 
     51 CB         24.9961  -34.8058  -43.6798 C.3       8 UNK        -0.1912 
     52 C          23.1971  -33.7833  -42.2285 C.2       8 UNK         0.5038 
     53 O          22.3697  -34.6496  -41.9419 O.2       8 UNK        -0.5046 
     54 N          22.8863  -32.4977  -42.4457 N.am      9 UNK        -0.4200 
     55 CA         21.5664  -31.9073  -42.1826 C.3       9 UNK         0.0839 
     56 C          21.2189  -31.7535  -40.6746 C.2       9 UNK         0.5513 
     57 N          22.1268  -31.9927  -39.7362 N.am      9 UNK        -0.7519 
     58 O          20.0881  -31.4022  -40.3474 O.2       9 UNK        -0.4960 
     59 C59        21.3699  -30.5634  -42.9325 C.3       10 UNK        -0.0876 
     60 S60        21.4459  -30.7094  -44.7494 S.3       10 UNK        -0.2414 
     61 C61        19.9300  -31.6441  -45.1430 C.3       10 UNK         0.0169 
     62 H62        17.5905  -23.9709  -49.7551 H         1 UNK         0.0903 
     63 H63        19.3182  -23.6119  -49.7386 H         1 UNK         0.0903 
     64 H64        18.7181  -25.0275  -50.6069 H         1 UNK         0.0903 
     65 H65        16.8995  -24.8340  -47.8046 H         1 UNK         0.3096 
     66 H66        18.2448  -27.0395  -46.5225 H         1 UNK         0.1121 
     67 H67        15.8565  -25.3304  -45.6227 H         1 UNK         0.0849 
     68 H68        16.3952  -26.7525  -44.7873 H         1 UNK         0.0849 
     69 H69        15.6174  -29.5470  -47.6628 H         1 UNK         0.0865 
     70 H70        17.0390  -28.5650  -47.8759 H         1 UNK         0.0865 
     71 H71        18.5744  -30.2194  -47.0162 H         1 UNK         0.1346 
     72 H72        18.4508  -31.2850  -42.8648 H         1 UNK         0.1412 
     73 H73        15.2833  -28.9651  -44.5649 H         1 UNK         0.1426 
     74 H74        16.6373  -30.6000  -41.4669 H         1 UNK         0.0716 
     75 H75        15.1162  -30.3677  -42.2933 H         1 UNK         0.0716 
     76 H76        17.0763  -29.0902  -39.6326 H         1 UNK         0.0695 
     77 H77        16.9708  -27.3519  -39.6433 H         1 UNK         0.0695 
     78 H78        19.0095  -29.0700  -41.1339 H         1 UNK         0.0983 
     79 H79        18.1564  -26.5764  -41.9896 H         1 UNK         0.3095 
     80 H80        19.6616  -24.7978  -42.8439 H         1 UNK         0.0454 
     81 H81        21.9329  -26.0733  -44.4522 H         1 UNK         0.0851 
     82 H82        22.1993  -25.0616  -43.0330 H         1 UNK         0.0851 
     83 H83        21.4475  -24.3837  -44.4658 H         1 UNK         0.0851 
     84 H84        19.1428  -27.1379  -44.4639 H         1 UNK         0.2976 
     85 H85        20.0790  -29.8607  -39.4086 H         1 UNK         0.3116 
     86 H86        21.4111  -30.1116  -37.7005 H         1 UNK         0.0646 
     87 H87        20.4072  -27.4687  -36.5291 H         1 UNK         0.0847 
     88 H88        21.2978  -28.7171  -35.6776 H         1 UNK         0.0847 
     89 H89        19.6774  -29.0522  -36.2653 H         1 UNK         0.0847 
     90 H90        21.6522  -26.8982  -39.1382 H         1 UNK         0.3040 
     91 H91        24.3017  -26.2974  -38.2529 H         1 UNK         0.1015 
     92 H92        22.6417  -25.1473  -40.5608 H         1 UNK         0.0786 
     93 H93        24.1305  -24.4441  -39.9412 H         1 UNK         0.0786 
     94 H94        22.7111  -24.5343  -38.9111 H         1 UNK         0.0786 
     95 H95        23.1155  -27.4668  -41.4649 H         1 UNK         0.3172 
     96 H96        25.8500  -27.5398  -42.5090 H         1 UNK         0.0595 
     97 H97        23.1558  -28.1608  -43.7970 H         1 UNK         0.0839 
     98 H98        24.6992  -28.1958  -44.6342 H         1 UNK         0.0839 
     99 H99        24.1207  -26.6910  -43.9525 H         1 UNK         0.0839 
    100 H100       26.2613  -29.1069  -40.6268 H         1 UNK         0.2998 
    101 H101       27.0656  -31.0764  -39.9372 H         1 UNK         0.0822 
    102 H102       28.6459  -30.6090  -41.7399 H         1 UNK         0.0787 
    103 H103       28.3686  -32.3394  -41.6976 H         1 UNK         0.0787 
    104 H104       27.6085  -31.3541  -42.9461 H         1 UNK         0.0787 
    105 H105       26.1847  -32.7808  -42.8529 H         1 UNK         0.3055 
    106 H106       24.8596  -34.9264  -41.5379 H         1 UNK         0.1106 
    107 H107       24.3393  -35.6541  -43.8783 H         1 UNK         0.0828 
    108 H108       24.8596  -34.0912  -44.4926 H         1 UNK         0.0828 
    109 H109       26.0207  -35.1757  -43.7238 H         1 UNK         0.0828 
    110 H110       23.6266  -31.8478  -42.6969 H         1 UNK         0.2931 
    111 H111       20.8235  -32.6103  -42.5579 H         1 UNK         0.0412 
    112 H112       21.8653  -31.9211  -38.7674 H         1 UNK         0.3472 
    113 H113       23.0781  -32.2566  -39.9731 H         1 UNK         0.3472 
    114 H114       22.1362  -29.8565  -42.6152 H         1 UNK         0.0970 
    115 H115       20.4259  -30.0884  -42.6733 H         1 UNK         0.0970 
    116 H116       20.0030  -31.9755  -46.1799 H         1 UNK         0.0612 
    117 H117       19.8809  -32.5589  -44.5534 H         1 UNK         0.0612 
@<TRIPOS>BOND
     1    1    2 1    
     2    1   62 1    
     3    1   63 1    
     4    1   64 1    
     5    2    3 2    
     6    2    4 am   BACKBONE|DICT|INTERRES
     7    4    5 1    
     8    4   65 1    
     9    5    6 1    
    10    5   25 1    
    11    5   66 1    
    12    6    7 1    
    13    6   67 1    
    14    6   68 1    
    15    7    8 1    
    16    8    9 1    
    17    8   69 1    
    18    8   70 1    
    19    9   10 ar   
    20    9   14 ar   
    21   10   11 ar   
    22   10   71 1    
    23   11   12 ar   
    24   11   61 1    
    25   12   13 ar   
    26   12   72 1    
    27   13   14 ar   
    28   13   15 1    
    29   14   73 1    
    30   15   16 1    
    31   15   74 1    
    32   15   75 1    
    33   16   17 1    
    34   17   18 1    
    35   17   76 1    
    36   17   77 1    
    37   18   19 1    
    38   18   27 1    
    39   18   78 1    
    40   19   20 am   BACKBONE|DICT|INTERRES
    41   19   79 1    
    42   20   21 2    
    43   20   22 1    
    44   22   23 1    
    45   22   24 1    
    46   22   80 1    
    47   23   81 1    
    48   23   82 1    
    49   23   83 1    
    50   24   25 am   BACKBONE|DICT|INTERRES
    51   24   84 1    
    52   25   26 2    
    53   27   28 2    
    54   27   29 am   BACKBONE|DICT|INTERRES
    55   29   30 1    
    56   29   85 1    
    57   30   31 1    
    58   30   32 1    
    59   30   86 1    
    60   31   87 1    
    61   31   88 1    
    62   31   89 1    
    63   32   33 2    
    64   32   34 am   BACKBONE|DICT|INTERRES
    65   34   35 1    
    66   34   90 1    
    67   35   36 1    
    68   35   37 1    
    69   35   91 1    
    70   36   92 1    
    71   36   93 1    
    72   36   94 1    
    73   37   38 2    
    74   37   39 am   BACKBONE|DICT|INTERRES
    75   39   40 1    
    76   39   95 1    
    77   40   41 1    
    78   40   42 1    
    79   40   96 1    
    80   41   97 1    
    81   41   98 1    
    82   41   99 1    
    83   42   43 2    
    84   42   44 am   BACKBONE|DICT|INTERRES
    85   44   45 1    
    86   44  100 1    
    87   45   46 1    
    88   45   47 1    
    89   45  101 1    
    90   46  102 1    
    91   46  103 1    
    92   46  104 1    
    93   47   48 2    
    94   47   49 am   BACKBONE|DICT|INTERRES
    95   49   50 1    
    96   49  105 1    
    97   50   51 1    
    98   50   52 1    
    99   50  106 1    
   100   51  107 1    
   101   51  108 1    
   102   51  109 1    
   103   52   53 2    
   104   52   54 am   BACKBONE|DICT|INTERRES
   105   54   55 1    
   106   54  110 1    
   107   55   56 1    
   108   55   59 1    
   109   55  111 1    
   110   56   57 am   BACKBONE|DICT|INTERRES
   111   56   58 2    
   112   57  112 1    
   113   57  113 1    
   114   59   60 1    
   115   59  114 1    
   116   59  115 1    
   117   60   61 1    
   118   61  116 1    
   119   61  117 1    
@<TRIPOS>SUBSTRUCTURE
     1 UNK         1 GROUP             0       ****    0 ROOT    
