@<TRIPOS>MOLECULE
3R8
117   119    1
SMALL
USER_CHARGES


@<TRIPOS>ATOM
      1 CA         15.8457  -28.3163  -39.1260 C.3       0 UNK        -0.2013 
      2 C          15.8201  -27.3961  -40.3368 C.2       0 UNK         0.4866 
      3 O          15.2707  -26.2961  -40.2619 O.2       0 UNK        -0.5176 
      4 N          16.4042  -27.8434  -41.4527 N.am      1 UNK        -0.4884 
      5 CA         16.5533  -27.0747  -42.6940 C.3       1 UNK         0.0853 
      6 C6         16.6880  -27.9896  -43.9472 C.3       10 UNK        -0.0849 
      7 S7         15.4124  -29.2958  -44.0421 S.3       10 UNK        -0.2776 
      8 C8         15.7684  -30.0872  -45.6483 C.3       10 UNK         0.0316 
      9 C9         17.1933  -30.6211  -45.7592 C.ar      10 UNK        -0.0863 
     10 C10        17.6283  -31.6798  -44.9540 C.ar      10 UNK        -0.1009 
     11 C11        18.9426  -32.1534  -45.0461 C.ar      10 UNK        -0.0712 
     12 C12        19.8098  -31.5887  -45.9859 C.ar      10 UNK        -0.0894 
     13 C13        19.3829  -30.5430  -46.8082 C.ar      10 UNK        -0.0745 
     14 C14        18.0756  -30.0622  -46.6880 C.ar      10 UNK        -0.0972 
     15 C15        20.3319  -29.9330  -47.8303 C.3       10 UNK         0.0209 
     16 S16        21.6833  -28.9895  -47.0552 S.3       10 UNK        -0.2568 
     17 C17        20.7772  -27.6830  -46.1582 C.3       10 UNK        -0.0983 
     18 CA         21.2877  -27.3761  -44.7206 C.3       3 UNK         0.0876 
     19 N          20.4429  -26.3817  -44.0730 N.am      3 UNK        -0.4424 
     20 C          20.2454  -25.1092  -44.4254 C.2       2 UNK         0.4918 
     21 O          20.8822  -24.5442  -45.3157 O.2       2 UNK        -0.4875 
     22 CA         19.1166  -24.3582  -43.6787 C.3       2 UNK         0.0481 
     23 CB         18.7166  -23.0477  -44.3817 C.3       2 UNK        -0.1831 
     24 N          17.9171  -25.1922  -43.5050 N.am      2 UNK        -0.4498 
     25 C          17.7834  -26.1506  -42.5777 C.2       1 UNK         0.5027 
     26 O          18.6415  -26.3642  -41.7167 O.2       1 UNK        -0.4969 
     27 C          21.2580  -28.5996  -43.7711 C.2       3 UNK         0.5005 
     28 O          20.2111  -28.8553  -43.1691 O.2       3 UNK        -0.5279 
     29 N          22.3541  -29.3469  -43.5843 N.am      4 UNK        -0.4463 
     30 CA         23.7070  -29.1316  -44.0999 C.3       4 UNK         0.0283 
     31 CB         24.4176  -30.4967  -44.1415 C.3       4 UNK        -0.1875 
     32 C          24.4896  -28.1326  -43.2311 C.2       4 UNK         0.4949 
     33 O          24.0083  -27.7017  -42.1823 O.2       4 UNK        -0.5039 
     34 N          25.7042  -27.7902  -43.6787 N.am      5 UNK        -0.4663 
     35 CA         26.6470  -26.9592  -42.9214 C.3       5 UNK         0.0242 
     36 CB         27.7638  -26.4711  -43.8583 C.3       5 UNK        -0.1982 
     37 C          27.2428  -27.6926  -41.7050 C.2       5 UNK         0.5017 
     38 O          27.5541  -27.0464  -40.7042 O.2       5 UNK        -0.5012 
     39 N          27.3888  -29.0218  -41.8145 N.am      6 UNK        -0.4439 
     40 CA         27.8951  -29.8986  -40.7554 C.3       6 UNK         0.0297 
     41 CB         28.2942  -31.2542  -41.3612 C.3       6 UNK        -0.2006 
     42 C          26.8900  -30.0981  -39.6077 C.2       6 UNK         0.4892 
     43 O          27.3059  -30.1749  -38.4510 O.2       6 UNK        -0.5089 
     44 N          25.5970  -30.1734  -39.9438 N.am      7 UNK        -0.4243 
     45 CA         24.4812  -30.3225  -39.0165 C.3       7 UNK         0.0196 
     46 CB         24.3933  -31.7682  -38.4915 C.3       7 UNK        -0.2007 
     47 C          23.2022  -29.9413  -39.7628 C.2       7 UNK         0.5020 
     48 O          23.0029  -30.4009  -40.8904 O.2       7 UNK        -0.5147 
     49 N          22.3500  -29.1345  -39.1205 N.am      8 UNK        -0.4734 
     50 CA         21.0822  -28.6392  -39.6641 C.3       8 UNK         0.0238 
     51 CB         20.6730  -27.3679  -38.8969 C.3       8 UNK        -0.1912 
     52 C          19.9855  -29.7206  -39.6405 C.2       8 UNK         0.5038 
     53 O          19.0048  -29.5922  -38.9051 O.2       8 UNK        -0.5046 
     54 N          20.1942  -30.7857  -40.4210 N.am      9 UNK        -0.4200 
     55 CA         19.2539  -31.8951  -40.6240 C.3       9 UNK         0.0839 
     56 C          17.9258  -31.5002  -41.3244 C.2       9 UNK         0.5513 
     57 N          17.8835  -30.4078  -42.0735 N.am      9 UNK        -0.7519 
     58 O          16.9262  -32.2004  -41.1906 O.2       9 UNK        -0.4960 
     59 C59        19.9331  -33.0976  -41.3317 C.3       10 UNK        -0.0876 
     60 S60        20.6859  -32.6899  -42.9509 S.3       10 UNK        -0.2414 
     61 C61        19.4318  -33.2775  -44.1416 C.3       10 UNK         0.0169 
     62 H62        14.8428  -28.4312  -38.7159 H         1 UNK         0.0903 
     63 H63        16.2232  -29.3074  -39.3793 H         1 UNK         0.0903 
     64 H64        16.4888  -27.8985  -38.3518 H         1 UNK         0.0903 
     65 H65        16.9006  -28.7263  -41.4297 H         1 UNK         0.3096 
     66 H66        15.6694  -26.4454  -42.8209 H         1 UNK         0.1121 
     67 H67        17.6686  -28.4681  -43.9759 H         1 UNK         0.0849 
     68 H68        16.6251  -27.3926  -44.8587 H         1 UNK         0.0849 
     69 H69        15.5591  -29.3715  -46.4448 H         1 UNK         0.0865 
     70 H70        15.0701  -30.9125  -45.7942 H         1 UNK         0.0865 
     71 H71        16.9480  -32.1170  -44.2359 H         1 UNK         0.1346 
     72 H72        20.8254  -31.9519  -46.0644 H         1 UNK         0.1412 
     73 H73        17.7454  -29.2489  -47.3196 H         1 UNK         0.1426 
     74 H74        19.7946  -29.2801  -48.5200 H         1 UNK         0.0716 
     75 H75        20.7629  -30.7299  -48.4379 H         1 UNK         0.0716 
     76 H76        19.7166  -27.9300  -46.1188 H         1 UNK         0.0695 
     77 H77        20.8413  -26.7847  -46.7730 H         1 UNK         0.0695 
     78 H78        22.2924  -26.9574  -44.7706 H         1 UNK         0.0983 
     79 H79        19.9130  -26.7575  -43.2903 H         1 UNK         0.3095 
     80 H80        19.5080  -24.0944  -42.6941 H         1 UNK         0.0454 
     81 H81        18.3445  -23.2278  -45.3909 H         1 UNK         0.0851 
     82 H82        19.5682  -22.3711  -44.4641 H         1 UNK         0.0851 
     83 H83        17.9415  -22.5193  -43.8264 H         1 UNK         0.0851 
     84 H84        17.1967  -25.0861  -44.2053 H         1 UNK         0.2976 
     85 H85        22.3022  -30.0578  -42.8657 H         1 UNK         0.3116 
     86 H86        23.6709  -28.7387  -45.1145 H         1 UNK         0.0646 
     87 H87        24.5357  -30.9237  -43.1447 H         1 UNK         0.0847 
     88 H88        25.4095  -30.4220  -44.5877 H         1 UNK         0.0847 
     89 H89        23.8542  -31.2122  -44.7413 H         1 UNK         0.0847 
     90 H90        26.0250  -28.1522  -44.5661 H         1 UNK         0.3040 
     91 H91        26.1105  -26.0848  -42.5450 H         1 UNK         0.1015 
     92 H92        27.3607  -25.8867  -44.6856 H         1 UNK         0.0786 
     93 H93        28.3337  -27.3010  -44.2783 H         1 UNK         0.0786 
     94 H94        28.4674  -25.8304  -43.3245 H         1 UNK         0.0786 
     95 H95        27.1241  -29.4578  -42.6850 H         1 UNK         0.3172 
     96 H96        28.7925  -29.4396  -40.3347 H         1 UNK         0.0595 
     97 H97        27.4438  -31.7624  -41.8178 H         1 UNK         0.0839 
     98 H98        28.6963  -31.9189  -40.5952 H         1 UNK         0.0839 
     99 H99        29.0658  -31.1380  -42.1226 H         1 UNK         0.0839 
    100 H100       25.3236  -30.0694  -40.9118 H         1 UNK         0.2998 
    101 H101       24.6277  -29.6384  -38.1778 H         1 UNK         0.0822 
    102 H102       25.2823  -32.0444  -37.9246 H         1 UNK         0.0787 
    103 H103       23.5364  -31.8906  -37.8278 H         1 UNK         0.0787 
    104 H104       24.2801  -32.4842  -39.3068 H         1 UNK         0.0787 
    105 H105       22.5759  -28.8401  -38.1811 H         1 UNK         0.3055 
    106 H106       21.2360  -28.3566  -40.7080 H         1 UNK         0.1106 
    107 H107       19.7347  -26.9670  -39.2832 H         1 UNK         0.0828 
    108 H108       21.4232  -26.5839  -39.0003 H         1 UNK         0.0828 
    109 H109       20.5303  -27.5626  -37.8334 H         1 UNK         0.0828 
    110 H110       21.0553  -30.8223  -40.9552 H         1 UNK         0.2931 
    111 H111       18.9698  -32.2372  -39.6270 H         1 UNK         0.0412 
    112 H112       18.7441  -29.9132  -42.2932 H         1 UNK         0.3472 
    113 H113       17.0484  -30.2307  -42.6128 H         1 UNK         0.3472 
    114 H114       20.7326  -33.4761  -40.6931 H         1 UNK         0.0970 
    115 H115       19.2374  -33.9320  -41.4355 H         1 UNK         0.0970 
    116 H116       18.5912  -33.7350  -43.6188 H         1 UNK         0.0612 
    117 H117       19.8730  -34.0644  -44.7546 H         1 UNK         0.0612 
@<TRIPOS>BOND
     1    1    2 1    
     2    1   62 1    
     3    1   63 1    
     4    1   64 1    
     5    2    3 2    
     6    2    4 am   BACKBONE|DICT|INTERRES
     7    4    5 1    
     8    4   65 1    
     9    5    6 1    
    10    5   25 1    
    11    5   66 1    
    12    6    7 1    
    13    6   67 1    
    14    6   68 1    
    15    7    8 1    
    16    8    9 1    
    17    8   69 1    
    18    8   70 1    
    19    9   10 ar   
    20    9   14 ar   
    21   10   11 ar   
    22   10   71 1    
    23   11   12 ar   
    24   11   61 1    
    25   12   13 ar   
    26   12   72 1    
    27   13   14 ar   
    28   13   15 1    
    29   14   73 1    
    30   15   16 1    
    31   15   74 1    
    32   15   75 1    
    33   16   17 1    
    34   17   18 1    
    35   17   76 1    
    36   17   77 1    
    37   18   19 1    
    38   18   27 1    
    39   18   78 1    
    40   19   20 am   BACKBONE|DICT|INTERRES
    41   19   79 1    
    42   20   21 2    
    43   20   22 1    
    44   22   23 1    
    45   22   24 1    
    46   22   80 1    
    47   23   81 1    
    48   23   82 1    
    49   23   83 1    
    50   24   25 am   BACKBONE|DICT|INTERRES
    51   24   84 1    
    52   25   26 2    
    53   27   28 2    
    54   27   29 am   BACKBONE|DICT|INTERRES
    55   29   30 1    
    56   29   85 1    
    57   30   31 1    
    58   30   32 1    
    59   30   86 1    
    60   31   87 1    
    61   31   88 1    
    62   31   89 1    
    63   32   33 2    
    64   32   34 am   BACKBONE|DICT|INTERRES
    65   34   35 1    
    66   34   90 1    
    67   35   36 1    
    68   35   37 1    
    69   35   91 1    
    70   36   92 1    
    71   36   93 1    
    72   36   94 1    
    73   37   38 2    
    74   37   39 am   BACKBONE|DICT|INTERRES
    75   39   40 1    
    76   39   95 1    
    77   40   41 1    
    78   40   42 1    
    79   40   96 1    
    80   41   97 1    
    81   41   98 1    
    82   41   99 1    
    83   42   43 2    
    84   42   44 am   BACKBONE|DICT|INTERRES
    85   44   45 1    
    86   44  100 1    
    87   45   46 1    
    88   45   47 1    
    89   45  101 1    
    90   46  102 1    
    91   46  103 1    
    92   46  104 1    
    93   47   48 2    
    94   47   49 am   BACKBONE|DICT|INTERRES
    95   49   50 1    
    96   49  105 1    
    97   50   51 1    
    98   50   52 1    
    99   50  106 1    
   100   51  107 1    
   101   51  108 1    
   102   51  109 1    
   103   52   53 2    
   104   52   54 am   BACKBONE|DICT|INTERRES
   105   54   55 1    
   106   54  110 1    
   107   55   56 1    
   108   55   59 1    
   109   55  111 1    
   110   56   57 am   BACKBONE|DICT|INTERRES
   111   56   58 2    
   112   57  112 1    
   113   57  113 1    
   114   59   60 1    
   115   59  114 1    
   116   59  115 1    
   117   60   61 1    
   118   61  116 1    
   119   61  117 1    
@<TRIPOS>SUBSTRUCTURE
     1 UNK         1 GROUP             0       ****    0 ROOT    
