@<TRIPOS>MOLECULE
3R8
117   119    1
SMALL
USER_CHARGES


@<TRIPOS>ATOM
      1 CA         19.4212  -24.5351  -50.5369 C.3       0 UNK        -0.2013 
      2 C          19.9883  -24.9927  -49.2012 C.2       0 UNK         0.4866 
      3 O          21.0535  -24.5261  -48.7956 O.2       0 UNK        -0.5176 
      4 N          19.2905  -25.9088  -48.5195 N.am      1 UNK        -0.4884 
      5 CA         19.6399  -26.4061  -47.1851 C.3       1 UNK         0.0853 
      6 C6         18.9924  -27.7891  -46.9069 C.3       10 UNK        -0.0849 
      7 S7         17.1655  -27.7937  -46.9909 S.3       10 UNK        -0.2776 
      8 C8         16.7807  -29.4866  -46.4435 C.3       10 UNK         0.0316 
      9 C9         17.0646  -29.6965  -44.9620 C.ar      10 UNK        -0.0863 
     10 C10        18.1878  -30.4216  -44.5546 C.ar      10 UNK        -0.1009 
     11 C11        18.4263  -30.6591  -43.1978 C.ar      10 UNK        -0.0712 
     12 C12        17.5363  -30.1583  -42.2423 C.ar      10 UNK        -0.0894 
     13 C13        16.4205  -29.4128  -42.6358 C.ar      10 UNK        -0.0745 
     14 C14        16.1871  -29.1917  -43.9974 C.ar      10 UNK        -0.0972 
     15 C15        15.4480  -28.8646  -41.6002 C.3       10 UNK         0.0209 
     16 S16        15.6246  -27.0633  -41.3921 S.3       10 UNK        -0.2568 
     17 C17        16.9188  -26.9245  -40.1099 C.3       10 UNK        -0.0983 
     18 CA         18.3627  -26.9062  -40.6702 C.3       3 UNK         0.0876 
     19 N          18.5361  -25.9425  -41.7602 N.am      3 UNK        -0.4424 
     20 C          19.6240  -25.8624  -42.5338 C.2       2 UNK         0.4918 
     21 O          20.6264  -26.5683  -42.3954 O.2       2 UNK        -0.4875 
     22 CA         19.5785  -24.8463  -43.6762 C.3       2 UNK         0.0481 
     23 CB         20.5915  -23.7089  -43.4697 C.3       2 UNK        -0.1831 
     24 N          19.8868  -25.5724  -44.9012 N.am      2 UNK        -0.4498 
     25 C          19.2956  -25.3779  -46.0839 C.2       1 UNK         0.5027 
     26 O          18.4916  -24.4671  -46.3062 O.2       1 UNK        -0.4969 
     27 C          19.3857  -26.6531  -39.5449 C.2       3 UNK         0.5005 
     28 O          19.6776  -25.4935  -39.2388 O.2       3 UNK        -0.5279 
     29 N          19.9365  -27.7368  -38.9782 N.am      4 UNK        -0.4463 
     30 CA         21.0188  -27.7986  -37.9811 C.3       4 UNK         0.0283 
     31 CB         20.6519  -27.0609  -36.6785 C.3       4 UNK        -0.1875 
     32 C          22.3924  -27.3446  -38.5122 C.2       4 UNK         0.4949 
     33 O          23.3861  -28.0220  -38.2529 O.2       4 UNK        -0.5039 
     34 N          22.4312  -26.2471  -39.2792 N.am      5 UNK        -0.4663 
     35 CA         23.6212  -25.7076  -39.9483 C.3       5 UNK         0.0242 
     36 CB         23.2658  -24.3633  -40.5996 C.3       5 UNK        -0.1982 
     37 C          24.2330  -26.6707  -40.9827 C.2       5 UNK         0.5017 
     38 O          25.4513  -26.6759  -41.1578 O.2       5 UNK        -0.5012 
     39 N          23.3843  -27.5002  -41.6061 N.am      6 UNK        -0.4439 
     40 CA         23.7582  -28.6145  -42.4825 C.3       6 UNK         0.0297 
     41 CB         22.5122  -29.0613  -43.2614 C.3       6 UNK        -0.2006 
     42 C          24.4175  -29.8123  -41.7614 C.2       6 UNK         0.4892 
     43 O          24.8475  -30.7438  -42.4447 O.2       6 UNK        -0.5089 
     44 N          24.4956  -29.7759  -40.4204 N.am      7 UNK        -0.4243 
     45 CA         25.1911  -30.7121  -39.5324 C.3       7 UNK         0.0196 
     46 CB         26.7218  -30.5610  -39.6870 C.3       7 UNK        -0.2007 
     47 C          24.6928  -32.1594  -39.6849 C.2       7 UNK         0.5020 
     48 O          23.6436  -32.4958  -39.1355 O.2       7 UNK        -0.5147 
     49 N          25.4501  -32.9854  -40.4193 N.am      8 UNK        -0.4734 
     50 CA         25.1612  -34.3975  -40.6829 C.3       8 UNK         0.0238 
     51 CB         26.3885  -35.0447  -41.3454 C.3       8 UNK        -0.1912 
     52 C          23.9015  -34.6402  -41.5343 C.2       8 UNK         0.5038 
     53 O          23.3505  -35.7401  -41.4650 O.2       8 UNK        -0.5046 
     54 N          23.4639  -33.6290  -42.3007 N.am      9 UNK        -0.4200 
     55 CA         22.2827  -33.6761  -43.1771 C.3       9 UNK         0.0839 
     56 C          22.4611  -34.6469  -44.3867 C.2       9 UNK         0.5513 
     57 N          21.3827  -35.0577  -45.0388 N.am      9 UNK        -0.7519 
     58 O          23.5749  -34.9949  -44.7752 O.2       9 UNK        -0.4960 
     59 C59        20.9735  -33.8865  -42.3515 C.3       10 UNK        -0.0876 
     60 S60        19.4629  -33.2208  -43.1293 S.3       10 UNK        -0.2414 
     61 C61        19.6507  -31.4510  -42.7701 C.3       10 UNK         0.0169 
     62 H62        18.4848  -25.0387  -50.7765 H         1 UNK         0.0903 
     63 H63        19.2331  -23.4620  -50.5162 H         1 UNK         0.0903 
     64 H64        20.1315  -24.7416  -51.3371 H         1 UNK         0.0903 
     65 H65        18.4010  -26.2309  -48.8750 H         1 UNK         0.3096 
     66 H66        20.7241  -26.5419  -47.1599 H         1 UNK         0.1121 
     67 H67        19.3039  -28.1613  -45.9296 H         1 UNK         0.0849 
     68 H68        19.3664  -28.5167  -47.6290 H         1 UNK         0.0849 
     69 H69        15.7259  -29.6866  -46.6376 H         1 UNK         0.0865 
     70 H70        17.3388  -30.2004  -47.0517 H         1 UNK         0.0865 
     71 H71        18.8724  -30.8170  -45.2929 H         1 UNK         0.1346 
     72 H72        17.7132  -30.3470  -41.1925 H         1 UNK         0.1412 
     73 H73        15.3196  -28.6246  -44.3071 H         1 UNK         0.1426 
     74 H74        15.5673  -29.3687  -40.6400 H         1 UNK         0.0716 
     75 H75        14.4287  -29.0770  -41.9261 H         1 UNK         0.0716 
     76 H76        16.7966  -27.7370  -39.3914 H         1 UNK         0.0695 
     77 H77        16.7200  -26.0045  -39.5561 H         1 UNK         0.0695 
     78 H78        18.5733  -27.8880  -41.0957 H         1 UNK         0.0983 
     79 H79        17.7543  -25.3288  -41.9345 H         1 UNK         0.3095 
     80 H80        18.5733  -24.4221  -43.7285 H         1 UNK         0.0454 
     81 H81        21.6180  -24.0756  -43.4913 H         1 UNK         0.0851 
     82 H82        20.4357  -23.2133  -42.5105 H         1 UNK         0.0851 
     83 H83        20.4944  -22.9513  -44.2472 H         1 UNK         0.0851 
     84 H84        20.5098  -26.3590  -44.7723 H         1 UNK         0.2976 
     85 H85        19.6324  -28.6410  -39.3125 H         1 UNK         0.3116 
     86 H86        21.1205  -28.8563  -37.7320 H         1 UNK         0.0646 
     87 H87        20.5720  -25.9832  -36.8227 H         1 UNK         0.0847 
     88 H88        21.4125  -27.2257  -35.9143 H         1 UNK         0.0847 
     89 H89        19.7045  -27.4165  -36.2740 H         1 UNK         0.0847 
     90 H90        21.5524  -25.7540  -39.4195 H         1 UNK         0.3040 
     91 H91        24.3803  -25.5309  -39.1832 H         1 UNK         0.1015 
     92 H92        22.4627  -24.4757  -41.3269 H         1 UNK         0.0786 
     93 H93        24.1252  -23.9377  -41.1198 H         1 UNK         0.0786 
     94 H94        22.9435  -23.6349  -39.8553 H         1 UNK         0.0786 
     95 H95        22.3909  -27.3481  -41.4701 H         1 UNK         0.3172 
     96 H96        24.4908  -28.2448  -43.2026 H         1 UNK         0.0595 
     97 H97        21.6942  -29.3022  -42.5833 H         1 UNK         0.0839 
     98 H98        22.7135  -29.9411  -43.8742 H         1 UNK         0.0839 
     99 H99        22.1657  -28.2761  -43.9329 H         1 UNK         0.0839 
    100 H100       24.0666  -28.9917  -39.9414 H         1 UNK         0.2998 
    101 H101       24.9374  -30.4116  -38.5144 H         1 UNK         0.0822 
    102 H102       27.0392  -29.5529  -39.4194 H         1 UNK         0.0787 
    103 H103       27.2545  -31.2485  -39.0282 H         1 UNK         0.0787 
    104 H104       27.0598  -30.7475  -40.7068 H         1 UNK         0.0787 
    105 H105       26.2723  -32.5994  -40.8614 H         1 UNK         0.3055 
    106 H106       24.9924  -34.8861  -39.7206 H         1 UNK         0.1106 
    107 H107       26.2200  -36.1075  -41.5255 H         1 UNK         0.0828 
    108 H108       26.6170  -34.5846  -42.3076 H         1 UNK         0.0828 
    109 H109       27.2727  -34.9625  -40.7130 H         1 UNK         0.0828 
    110 H110       24.0017  -32.7702  -42.3196 H         1 UNK         0.2931 
    111 H111       22.2478  -32.6809  -43.6201 H         1 UNK         0.0412 
    112 H112       21.4838  -35.6699  -45.8332 H         1 UNK         0.3472 
    113 H113       20.4663  -34.7531  -44.7429 H         1 UNK         0.3472 
    114 H114       21.0681  -33.4147  -41.3718 H         1 UNK         0.0970 
    115 H115       20.8188  -34.9469  -42.1440 H         1 UNK         0.0970 
    116 H116       19.8540  -31.3070  -41.7078 H         1 UNK         0.0612 
    117 H117       20.5187  -31.0830  -43.3136 H         1 UNK         0.0612 
@<TRIPOS>BOND
     1    1    2 1    
     2    1   62 1    
     3    1   63 1    
     4    1   64 1    
     5    2    3 2    
     6    2    4 am   BACKBONE|DICT|INTERRES
     7    4    5 1    
     8    4   65 1    
     9    5    6 1    
    10    5   25 1    
    11    5   66 1    
    12    6    7 1    
    13    6   67 1    
    14    6   68 1    
    15    7    8 1    
    16    8    9 1    
    17    8   69 1    
    18    8   70 1    
    19    9   10 ar   
    20    9   14 ar   
    21   10   11 ar   
    22   10   71 1    
    23   11   12 ar   
    24   11   61 1    
    25   12   13 ar   
    26   12   72 1    
    27   13   14 ar   
    28   13   15 1    
    29   14   73 1    
    30   15   16 1    
    31   15   74 1    
    32   15   75 1    
    33   16   17 1    
    34   17   18 1    
    35   17   76 1    
    36   17   77 1    
    37   18   19 1    
    38   18   27 1    
    39   18   78 1    
    40   19   20 am   BACKBONE|DICT|INTERRES
    41   19   79 1    
    42   20   21 2    
    43   20   22 1    
    44   22   23 1    
    45   22   24 1    
    46   22   80 1    
    47   23   81 1    
    48   23   82 1    
    49   23   83 1    
    50   24   25 am   BACKBONE|DICT|INTERRES
    51   24   84 1    
    52   25   26 2    
    53   27   28 2    
    54   27   29 am   BACKBONE|DICT|INTERRES
    55   29   30 1    
    56   29   85 1    
    57   30   31 1    
    58   30   32 1    
    59   30   86 1    
    60   31   87 1    
    61   31   88 1    
    62   31   89 1    
    63   32   33 2    
    64   32   34 am   BACKBONE|DICT|INTERRES
    65   34   35 1    
    66   34   90 1    
    67   35   36 1    
    68   35   37 1    
    69   35   91 1    
    70   36   92 1    
    71   36   93 1    
    72   36   94 1    
    73   37   38 2    
    74   37   39 am   BACKBONE|DICT|INTERRES
    75   39   40 1    
    76   39   95 1    
    77   40   41 1    
    78   40   42 1    
    79   40   96 1    
    80   41   97 1    
    81   41   98 1    
    82   41   99 1    
    83   42   43 2    
    84   42   44 am   BACKBONE|DICT|INTERRES
    85   44   45 1    
    86   44  100 1    
    87   45   46 1    
    88   45   47 1    
    89   45  101 1    
    90   46  102 1    
    91   46  103 1    
    92   46  104 1    
    93   47   48 2    
    94   47   49 am   BACKBONE|DICT|INTERRES
    95   49   50 1    
    96   49  105 1    
    97   50   51 1    
    98   50   52 1    
    99   50  106 1    
   100   51  107 1    
   101   51  108 1    
   102   51  109 1    
   103   52   53 2    
   104   52   54 am   BACKBONE|DICT|INTERRES
   105   54   55 1    
   106   54  110 1    
   107   55   56 1    
   108   55   59 1    
   109   55  111 1    
   110   56   57 am   BACKBONE|DICT|INTERRES
   111   56   58 2    
   112   57  112 1    
   113   57  113 1    
   114   59   60 1    
   115   59  114 1    
   116   59  115 1    
   117   60   61 1    
   118   61  116 1    
   119   61  117 1    
@<TRIPOS>SUBSTRUCTURE
     1 UNK         1 GROUP             0       ****    0 ROOT    
