@<TRIPOS>MOLECULE
3R8
117   119    1
SMALL
USER_CHARGES


@<TRIPOS>ATOM
      1 CA         19.2519  -28.3731  -41.5718 C.3       0 UNK        -0.2013 
      2 C          18.5249  -27.1291  -42.0545 C.2       0 UNK         0.4866 
      3 O          18.3966  -26.1650  -41.2998 O.2       0 UNK        -0.5176 
      4 N          18.0447  -27.1545  -43.3034 N.am      1 UNK        -0.4884 
      5 CA         17.3352  -26.0534  -43.9652 C.3       1 UNK         0.0853 
      6 C6         16.2745  -26.5827  -44.9697 C.3       10 UNK        -0.0849 
      7 S7         15.0717  -27.7202  -44.2043 S.3       10 UNK        -0.2776 
      8 C8         15.3784  -29.2555  -45.1363 C.3       10 UNK         0.0316 
      9 C9         16.6032  -30.0137  -44.6382 C.ar      10 UNK        -0.0863 
     10 C10        16.4807  -30.8707  -43.5410 C.ar      10 UNK        -0.1009 
     11 C11        17.5538  -31.6685  -43.1379 C.ar      10 UNK        -0.0712 
     12 C12        18.7703  -31.5727  -43.8181 C.ar      10 UNK        -0.0894 
     13 C13        18.9224  -30.7070  -44.9058 C.ar      10 UNK        -0.0745 
     14 C14        17.8270  -29.9317  -45.3148 C.ar      10 UNK        -0.0972 
     15 C15        20.2458  -30.7365  -45.6737 C.3       10 UNK         0.0209 
     16 S16        20.6694  -29.2101  -46.5785 S.3       10 UNK        -0.2568 
     17 C17        21.6169  -28.2779  -45.3297 C.3       10 UNK        -0.0983 
     18 CA         21.9902  -26.8586  -45.8300 C.3       3 UNK         0.0876 
     19 N          20.7932  -26.1086  -46.2156 N.am      3 UNK        -0.4424 
     20 C          20.7249  -24.8632  -46.7059 C.2       2 UNK         0.4918 
     21 O          21.7022  -24.2078  -47.0667 O.2       2 UNK        -0.4875 
     22 CA         19.3185  -24.2275  -46.7590 C.3       2 UNK         0.0481 
     23 CB         18.8197  -24.1491  -48.2107 C.3       2 UNK        -0.1831 
     24 N          18.3155  -24.9295  -45.9415 N.am      2 UNK        -0.4498 
     25 C          18.3726  -25.1043  -44.6095 C.2       1 UNK         0.5027 
     26 O          19.2567  -24.6023  -43.9118 O.2       1 UNK        -0.4969 
     27 C          22.8391  -26.1163  -44.7724 C.2       3 UNK         0.5005 
     28 O          24.0644  -26.2374  -44.7976 O.2       3 UNK        -0.5279 
     29 N          22.1755  -25.3424  -43.8941 N.am      4 UNK        -0.4463 
     30 CA         22.7435  -24.3920  -42.9289 C.3       4 UNK         0.0283 
     31 CB         23.3849  -23.2005  -43.6716 C.3       4 UNK        -0.1875 
     32 C          23.6900  -25.0068  -41.8776 C.2       4 UNK         0.4949 
     33 O          24.5408  -24.2966  -41.3386 O.2       4 UNK        -0.5039 
     34 N          23.5200  -26.2989  -41.5783 N.am      5 UNK        -0.4663 
     35 CA         24.2814  -27.0285  -40.5709 C.3       5 UNK         0.0242 
     36 CB         25.5751  -27.5888  -41.1897 C.3       5 UNK        -0.1982 
     37 C          23.4078  -28.1595  -40.0306 C.2       5 UNK         0.5017 
     38 O          22.7650  -28.8534  -40.8215 O.2       5 UNK        -0.5012 
     39 N          23.4318  -28.3555  -38.7061 N.am      6 UNK        -0.4439 
     40 CA         22.7273  -29.4448  -38.0230 C.3       6 UNK         0.0297 
     41 CB         22.7312  -29.1941  -36.5069 C.3       6 UNK        -0.2006 
     42 C          23.3187  -30.8276  -38.3431 C.2       6 UNK         0.4892 
     43 O          22.5706  -31.8015  -38.4005 O.2       6 UNK        -0.5089 
     44 N          24.6368  -30.8824  -38.5900 N.am      7 UNK        -0.4243 
     45 CA         25.3770  -32.0886  -38.9762 C.3       7 UNK         0.0196 
     46 CB         26.8801  -31.7695  -39.0146 C.3       7 UNK        -0.2007 
     47 C          24.9221  -32.6900  -40.3179 C.2       7 UNK         0.5020 
     48 O          24.9974  -33.9062  -40.4904 O.2       7 UNK        -0.5147 
     49 N          24.4206  -31.8418  -41.2270 N.am      8 UNK        -0.4734 
     50 CA         23.8283  -32.2486  -42.5052 C.3       8 UNK         0.0238 
     51 CB         23.8039  -31.0353  -43.4501 C.3       8 UNK        -0.1912 
     52 C          22.4144  -32.8443  -42.3565 C.2       8 UNK         0.5038 
     53 O          21.9114  -33.4282  -43.3165 O.2       8 UNK        -0.5046 
     54 N          21.8023  -32.6755  -41.1782 N.am      9 UNK        -0.4200 
     55 CA         20.4563  -33.1325  -40.8124 C.3       9 UNK         0.0839 
     56 C          20.4751  -34.2754  -39.7524 C.2       9 UNK         0.5513 
     57 N          21.6273  -34.8311  -39.3930 N.am      9 UNK        -0.7519 
     58 O          19.4292  -34.7004  -39.2705 O.2       9 UNK        -0.4960 
     59 C59        19.6027  -31.8981  -40.4026 C.3       10 UNK        -0.0876 
     60 S60        17.7848  -32.0918  -40.3778 S.3       10 UNK        -0.2414 
     61 C61        17.3621  -32.7060  -42.0392 C.3       10 UNK         0.0169 
     62 H62        19.5195  -29.0313  -42.3977 H         1 UNK         0.0903 
     63 H63        20.1676  -28.0984  -41.0497 H         1 UNK         0.0903 
     64 H64        18.6177  -28.9281  -40.8812 H         1 UNK         0.0903 
     65 H65        18.1325  -28.0039  -43.8442 H         1 UNK         0.3096 
     66 H66        16.8091  -25.4656  -43.2094 H         1 UNK         0.1121 
     67 H67        15.7047  -25.7520  -45.3909 H         1 UNK         0.0849 
     68 H68        16.7505  -27.0885  -45.8111 H         1 UNK         0.0849 
     69 H69        15.4637  -29.0369  -46.2020 H         1 UNK         0.0865 
     70 H70        14.4996  -29.8953  -45.0404 H         1 UNK         0.0865 
     71 H71        15.5305  -30.9538  -43.0307 H         1 UNK         0.1346 
     72 H72        19.5923  -32.2108  -43.5288 H         1 UNK         0.1412 
     73 H73        17.9087  -29.2999  -46.1882 H         1 UNK         0.1426 
     74 H74        20.1903  -31.5503  -46.3977 H         1 UNK         0.0716 
     75 H75        21.0668  -30.9866  -45.0003 H         1 UNK         0.0716 
     76 H76        22.5189  -28.8459  -45.0955 H         1 UNK         0.0695 
     77 H77        21.0305  -28.2278  -44.4100 H         1 UNK         0.0695 
     78 H78        22.6092  -26.9565  -46.7244 H         1 UNK         0.0983 
     79 H79        19.9205  -26.5706  -46.0148 H         1 UNK         0.3095 
     80 H80        19.4085  -23.2108  -46.3713 H         1 UNK         0.0454 
     81 H81        18.6946  -25.1396  -48.6499 H         1 UNK         0.0851 
     82 H82        19.5265  -23.6031  -48.8373 H         1 UNK         0.0851 
     83 H83        17.8648  -23.6275  -48.2763 H         1 UNK         0.0851 
     84 H84        17.5572  -25.3603  -46.4503 H         1 UNK         0.2976 
     85 H85        21.1626  -25.3055  -43.9652 H         1 UNK         0.3116 
     86 H86        21.8930  -24.0039  -42.3665 H         1 UNK         0.0646 
     87 H87        23.6715  -22.4098  -42.9772 H         1 UNK         0.0847 
     88 H88        22.6922  -22.7617  -44.3899 H         1 UNK         0.0847 
     89 H89        24.2829  -23.5002  -44.2127 H         1 UNK         0.0847 
     90 H90        22.7891  -26.8282  -42.0352 H         1 UNK         0.3040 
     91 H91        24.5361  -26.3548  -39.7493 H         1 UNK         0.1015 
     92 H92        26.2172  -26.7878  -41.5567 H         1 UNK         0.0786 
     93 H93        25.3640  -28.2550  -42.0276 H         1 UNK         0.0786 
     94 H94        26.1506  -28.1545  -40.4560 H         1 UNK         0.0786 
     95 H95        23.9807  -27.7353  -38.1269 H         1 UNK         0.3172 
     96 H96        21.6899  -29.4434  -38.3656 H         1 UNK         0.0595 
     97 H97        23.7433  -29.1675  -36.1011 H         1 UNK         0.0839 
     98 H98        22.1910  -29.9831  -35.9813 H         1 UNK         0.0839 
     99 H99        22.2436  -28.2512  -36.2586 H         1 UNK         0.0839 
    100 H100       25.1701  -30.0291  -38.5125 H         1 UNK         0.2998 
    101 H101       25.2041  -32.8432  -38.2058 H         1 UNK         0.0822 
    102 H102       27.2386  -31.4255  -38.0441 H         1 UNK         0.0787 
    103 H103       27.4603  -32.6558  -39.2760 H         1 UNK         0.0787 
    104 H104       27.1116  -30.9996  -39.7519 H         1 UNK         0.0787 
    105 H105       24.3621  -30.8599  -40.9942 H         1 UNK         0.3055 
    106 H106       24.4598  -33.0201  -42.9517 H         1 UNK         0.1106 
    107 H107       23.4533  -31.3219  -44.4423 H         1 UNK         0.0828 
    108 H108       23.1407  -30.2513  -43.0833 H         1 UNK         0.0828 
    109 H109       24.7977  -30.6047  -43.5735 H         1 UNK         0.0828 
    110 H110       22.3100  -32.2238  -40.4263 H         1 UNK         0.2931 
    111 H111       20.0096  -33.5874  -41.6932 H         1 UNK         0.0412 
    112 H112       22.4991  -34.5062  -39.7817 H         1 UNK         0.3472 
    113 H113       21.6237  -35.5760  -38.7143 H         1 UNK         0.3472 
    114 H114       19.8129  -31.0780  -41.0882 H         1 UNK         0.0970 
    115 H115       19.9176  -31.5383  -39.4214 H         1 UNK         0.0970 
    116 H116       16.3157  -33.0141  -42.0185 H         1 UNK         0.0612 
    117 H117       17.9166  -33.6151  -42.2681 H         1 UNK         0.0612 
@<TRIPOS>BOND
     1    1    2 1    
     2    1   62 1    
     3    1   63 1    
     4    1   64 1    
     5    2    3 2    
     6    2    4 am   BACKBONE|DICT|INTERRES
     7    4    5 1    
     8    4   65 1    
     9    5    6 1    
    10    5   25 1    
    11    5   66 1    
    12    6    7 1    
    13    6   67 1    
    14    6   68 1    
    15    7    8 1    
    16    8    9 1    
    17    8   69 1    
    18    8   70 1    
    19    9   10 ar   
    20    9   14 ar   
    21   10   11 ar   
    22   10   71 1    
    23   11   12 ar   
    24   11   61 1    
    25   12   13 ar   
    26   12   72 1    
    27   13   14 ar   
    28   13   15 1    
    29   14   73 1    
    30   15   16 1    
    31   15   74 1    
    32   15   75 1    
    33   16   17 1    
    34   17   18 1    
    35   17   76 1    
    36   17   77 1    
    37   18   19 1    
    38   18   27 1    
    39   18   78 1    
    40   19   20 am   BACKBONE|DICT|INTERRES
    41   19   79 1    
    42   20   21 2    
    43   20   22 1    
    44   22   23 1    
    45   22   24 1    
    46   22   80 1    
    47   23   81 1    
    48   23   82 1    
    49   23   83 1    
    50   24   25 am   BACKBONE|DICT|INTERRES
    51   24   84 1    
    52   25   26 2    
    53   27   28 2    
    54   27   29 am   BACKBONE|DICT|INTERRES
    55   29   30 1    
    56   29   85 1    
    57   30   31 1    
    58   30   32 1    
    59   30   86 1    
    60   31   87 1    
    61   31   88 1    
    62   31   89 1    
    63   32   33 2    
    64   32   34 am   BACKBONE|DICT|INTERRES
    65   34   35 1    
    66   34   90 1    
    67   35   36 1    
    68   35   37 1    
    69   35   91 1    
    70   36   92 1    
    71   36   93 1    
    72   36   94 1    
    73   37   38 2    
    74   37   39 am   BACKBONE|DICT|INTERRES
    75   39   40 1    
    76   39   95 1    
    77   40   41 1    
    78   40   42 1    
    79   40   96 1    
    80   41   97 1    
    81   41   98 1    
    82   41   99 1    
    83   42   43 2    
    84   42   44 am   BACKBONE|DICT|INTERRES
    85   44   45 1    
    86   44  100 1    
    87   45   46 1    
    88   45   47 1    
    89   45  101 1    
    90   46  102 1    
    91   46  103 1    
    92   46  104 1    
    93   47   48 2    
    94   47   49 am   BACKBONE|DICT|INTERRES
    95   49   50 1    
    96   49  105 1    
    97   50   51 1    
    98   50   52 1    
    99   50  106 1    
   100   51  107 1    
   101   51  108 1    
   102   51  109 1    
   103   52   53 2    
   104   52   54 am   BACKBONE|DICT|INTERRES
   105   54   55 1    
   106   54  110 1    
   107   55   56 1    
   108   55   59 1    
   109   55  111 1    
   110   56   57 am   BACKBONE|DICT|INTERRES
   111   56   58 2    
   112   57  112 1    
   113   57  113 1    
   114   59   60 1    
   115   59  114 1    
   116   59  115 1    
   117   60   61 1    
   118   61  116 1    
   119   61  117 1    
@<TRIPOS>SUBSTRUCTURE
     1 UNK         1 GROUP             0       ****    0 ROOT    
