@<TRIPOS>MOLECULE
3R8
117   119    1
SMALL
USER_CHARGES


@<TRIPOS>ATOM
      1 CA         21.5031  -28.6372  -48.9189 C.3       0 UNK        -0.2013 
      2 C          20.6801  -28.5748  -47.6419 C.2       0 UNK         0.4866 
      3 O          20.9764  -29.2900  -46.6857 O.2       0 UNK        -0.5176 
      4 N          19.6584  -27.7105  -47.6032 N.am      1 UNK        -0.4884 
      5 CA         18.7182  -27.5347  -46.4855 C.3       1 UNK         0.0853 
      6 C6         17.3724  -26.9318  -46.9659 C.3       10 UNK        -0.0849 
      7 S7         16.5022  -28.0607  -48.1033 S.3       10 UNK        -0.2776 
      8 C8         15.0881  -28.5960  -47.0822 C.3       10 UNK         0.0316 
      9 C9         15.5026  -29.2691  -45.7767 C.ar      10 UNK        -0.0863 
     10 C10        16.3062  -30.4135  -45.7920 C.ar      10 UNK        -0.1009 
     11 C11        16.6468  -31.0592  -44.6001 C.ar      10 UNK        -0.0712 
     12 C12        16.1547  -30.5661  -43.3870 C.ar      10 UNK        -0.0894 
     13 C13        15.3651  -29.4125  -43.3517 C.ar      10 UNK        -0.0745 
     14 C14        15.0470  -28.7677  -44.5520 C.ar      10 UNK        -0.0972 
     15 C15        14.7971  -28.8921  -42.0324 C.3       10 UNK         0.0209 
     16 S16        16.0252  -28.7636  -40.6860 S.3       10 UNK        -0.2568 
     17 C17        17.0865  -27.3972  -41.2590 C.3       10 UNK        -0.0983 
     18 CA         18.5901  -27.7517  -41.1334 C.3       3 UNK         0.0876 
     19 N          19.3816  -27.0901  -42.1677 N.am      3 UNK        -0.4424 
     20 C          20.6628  -27.3471  -42.4547 C.2       2 UNK         0.4918 
     21 O          21.3502  -28.1688  -41.8489 O.2       2 UNK        -0.4875 
     22 CA         21.2236  -26.6200  -43.6902 C.3       2 UNK         0.0481 
     23 CB         22.7441  -26.7964  -43.8586 C.3       2 UNK        -0.1831 
     24 N          20.5454  -27.1178  -44.8877 N.am      2 UNK        -0.4498 
     25 C          19.3321  -26.7395  -45.3100 C.2       1 UNK         0.5027 
     26 O          18.6993  -25.8225  -44.7808 O.2       1 UNK        -0.4969 
     27 C          19.1568  -27.4515  -39.7318 C.2       3 UNK         0.5005 
     28 O          19.2650  -26.2795  -39.3618 O.2       3 UNK        -0.5279 
     29 N          19.5193  -28.5156  -39.0012 N.am      4 UNK        -0.4463 
     30 CA         20.1518  -28.5156  -37.6788 C.3       4 UNK         0.0283 
     31 CB         19.1951  -27.9452  -36.6095 C.3       4 UNK        -0.1875 
     32 C          21.5455  -27.8524  -37.6571 C.2       4 UNK         0.4949 
     33 O          21.9239  -27.2774  -36.6348 O.2       4 UNK        -0.5039 
     34 N          22.2954  -27.9553  -38.7634 N.am      5 UNK        -0.4663 
     35 CA         23.6630  -27.4548  -38.8912 C.3       5 UNK         0.0242 
     36 CB         23.6683  -26.2237  -39.8099 C.3       5 UNK        -0.1982 
     37 C          24.5593  -28.5614  -39.4574 C.2       5 UNK         0.5017 
     38 O          24.1316  -29.3098  -40.3381 O.2       5 UNK        -0.5012 
     39 N          25.8072  -28.6182  -38.9725 N.am      6 UNK        -0.4439 
     40 CA         26.8081  -29.6479  -39.2878 C.3       6 UNK         0.0297 
     41 CB         28.0403  -29.4325  -38.3926 C.3       6 UNK        -0.2006 
     42 C          27.2297  -29.7409  -40.7684 C.2       6 UNK         0.4892 
     43 O          27.8676  -30.7247  -41.1457 O.2       6 UNK        -0.5089 
     44 N          26.8743  -28.7327  -41.5763 N.am      7 UNK        -0.4243 
     45 CA         27.0847  -28.6970  -43.0230 C.3       7 UNK         0.0196 
     46 CB         26.7450  -27.2923  -43.5472 C.3       7 UNK        -0.2007 
     47 C          26.2840  -29.7657  -43.7904 C.2       7 UNK         0.5020 
     48 O          26.7588  -30.2201  -44.8320 O.2       7 UNK        -0.5147 
     49 N          25.1052  -30.1524  -43.2808 N.am      8 UNK        -0.4734 
     50 CA         24.2465  -31.1768  -43.8755 C.3       8 UNK         0.0238 
     51 CB         23.5962  -30.6746  -45.1871 C.3       8 UNK        -0.1912 
     52 C          23.2391  -31.6771  -42.8306 C.2       8 UNK         0.5038 
     53 O          23.6258  -32.4449  -41.9494 O.2       8 UNK        -0.5046 
     54 N          21.9762  -31.2566  -42.9664 N.am      9 UNK        -0.4200 
     55 CA         20.7803  -31.6734  -42.2132 C.3       9 UNK         0.0839 
     56 C          20.7548  -31.3307  -40.6885 C.2       9 UNK         0.5513 
     57 N          21.8789  -31.2591  -39.9966 N.am      9 UNK        -0.7519 
     58 O          19.6902  -31.1270  -40.1086 O.2       9 UNK        -0.4960 
     59 C59        19.4976  -31.1858  -42.9400 C.3       10 UNK        -0.0876 
     60 S60        19.3022  -31.8625  -44.6226 S.3       10 UNK        -0.2414 
     61 C61        17.5325  -32.2978  -44.6295 C.3       10 UNK         0.0169 
     62 H62        21.1362  -27.9441  -49.6756 H         1 UNK         0.0903 
     63 H63        22.5430  -28.3904  -48.7065 H         1 UNK         0.0903 
     64 H64        21.4701  -29.6436  -49.3353 H         1 UNK         0.0903 
     65 H65        19.4715  -27.1365  -48.4134 H         1 UNK         0.3096 
     66 H66        18.5014  -28.5239  -46.0744 H         1 UNK         0.1121 
     67 H67        16.7138  -26.7137  -46.1229 H         1 UNK         0.0849 
     68 H68        17.5360  -25.9785  -47.4713 H         1 UNK         0.0849 
     69 H69        14.4493  -27.7326  -46.8893 H         1 UNK         0.0865 
     70 H70        14.4836  -29.2960  -47.6606 H         1 UNK         0.0865 
     71 H71        16.6684  -30.8013  -46.7346 H         1 UNK         0.1346 
     72 H72        16.3826  -31.0797  -42.4637 H         1 UNK         0.1412 
     73 H73        14.4184  -27.8876  -44.5346 H         1 UNK         0.1426 
     74 H74        14.0037  -29.5681  -41.7115 H         1 UNK         0.0716 
     75 H75        14.3291  -27.9158  -42.1690 H         1 UNK         0.0716 
     76 H76        16.8336  -26.4856  -40.7139 H         1 UNK         0.0695 
     77 H77        16.8367  -27.1940  -42.3019 H         1 UNK         0.0695 
     78 H78        18.6975  -28.8211  -41.3173 H         1 UNK         0.0983 
     79 H79        18.8991  -26.4115  -42.7445 H         1 UNK         0.3095 
     80 H80        21.0224  -25.5524  -43.5799 H         1 UNK         0.0454 
     81 H81        23.0462  -27.8420  -43.8190 H         1 UNK         0.0851 
     82 H82        23.2818  -26.2757  -43.0678 H         1 UNK         0.0851 
     83 H83        23.0919  -26.3825  -44.8050 H         1 UNK         0.0851 
     84 H84        20.9664  -27.9102  -45.3663 H         1 UNK         0.2976 
     85 H85        19.4229  -29.4401  -39.4198 H         1 UNK         0.3116 
     86 H86        20.3210  -29.5651  -37.4344 H         1 UNK         0.0646 
     87 H87        19.0314  -26.8752  -36.7413 H         1 UNK         0.0847 
     88 H88        19.5980  -28.0895  -35.6063 H         1 UNK         0.0847 
     89 H89        18.2243  -28.4398  -36.6403 H         1 UNK         0.0847 
     90 H90        21.9460  -28.4606  -39.5714 H         1 UNK         0.3040 
     91 H91        24.0553  -27.1639  -37.9142 H         1 UNK         0.1015 
     92 H92        23.0569  -25.4213  -39.3966 H         1 UNK         0.0786 
     93 H93        23.2754  -26.4653  -40.7960 H         1 UNK         0.0786 
     94 H94        24.6772  -25.8310  -39.9420 H         1 UNK         0.0786 
     95 H95        26.0807  -27.9378  -38.2774 H         1 UNK         0.3172 
     96 H96        26.3668  -30.6128  -39.0296 H         1 UNK         0.0595 
     97 H97        28.5142  -28.4688  -38.5837 H         1 UNK         0.0839 
     98 H98        28.7920  -30.2039  -38.5671 H         1 UNK         0.0839 
     99 H99        27.7784  -29.4765  -37.3352 H         1 UNK         0.0839 
    100 H100       26.3495  -27.9715  -41.1725 H         1 UNK         0.2998 
    101 H101       28.1442  -28.8856  -43.2099 H         1 UNK         0.0822 
    102 H102       27.3734  -26.5319  -43.0830 H         1 UNK         0.0787 
    103 H103       26.9042  -27.2287  -44.6247 H         1 UNK         0.0787 
    104 H104       25.7039  -27.0315  -43.3559 H         1 UNK         0.0787 
    105 H105       24.8026  -29.7822  -42.3840 H         1 UNK         0.3055 
    106 H106       24.8699  -32.0390  -44.1237 H         1 UNK         0.1106 
    107 H107       22.8962  -31.4084  -45.5901 H         1 UNK         0.0828 
    108 H108       23.0519  -29.7427  -45.0478 H         1 UNK         0.0828 
    109 H109       24.3422  -30.5011  -45.9622 H         1 UNK         0.0828 
    110 H110       21.7883  -30.6078  -43.7154 H         1 UNK         0.2931 
    111 H111       20.7658  -32.7640  -42.2435 H         1 UNK         0.0412 
    112 H112       22.7618  -31.4221  -40.4669 H         1 UNK         0.3472 
    113 H113       21.8582  -31.0649  -39.0106 H         1 UNK         0.3472 
    114 H114       18.6182  -31.4630  -42.3599 H         1 UNK         0.0970 
    115 H115       19.4879  -30.0991  -43.0155 H         1 UNK         0.0970 
    116 H116       17.3108  -32.9512  -43.7842 H         1 UNK         0.0612 
    117 H117       17.3195  -32.8804  -45.5270 H         1 UNK         0.0612 
@<TRIPOS>BOND
     1    1    2 1    
     2    1   62 1    
     3    1   63 1    
     4    1   64 1    
     5    2    3 2    
     6    2    4 am   BACKBONE|DICT|INTERRES
     7    4    5 1    
     8    4   65 1    
     9    5    6 1    
    10    5   25 1    
    11    5   66 1    
    12    6    7 1    
    13    6   67 1    
    14    6   68 1    
    15    7    8 1    
    16    8    9 1    
    17    8   69 1    
    18    8   70 1    
    19    9   10 ar   
    20    9   14 ar   
    21   10   11 ar   
    22   10   71 1    
    23   11   12 ar   
    24   11   61 1    
    25   12   13 ar   
    26   12   72 1    
    27   13   14 ar   
    28   13   15 1    
    29   14   73 1    
    30   15   16 1    
    31   15   74 1    
    32   15   75 1    
    33   16   17 1    
    34   17   18 1    
    35   17   76 1    
    36   17   77 1    
    37   18   19 1    
    38   18   27 1    
    39   18   78 1    
    40   19   20 am   BACKBONE|DICT|INTERRES
    41   19   79 1    
    42   20   21 2    
    43   20   22 1    
    44   22   23 1    
    45   22   24 1    
    46   22   80 1    
    47   23   81 1    
    48   23   82 1    
    49   23   83 1    
    50   24   25 am   BACKBONE|DICT|INTERRES
    51   24   84 1    
    52   25   26 2    
    53   27   28 2    
    54   27   29 am   BACKBONE|DICT|INTERRES
    55   29   30 1    
    56   29   85 1    
    57   30   31 1    
    58   30   32 1    
    59   30   86 1    
    60   31   87 1    
    61   31   88 1    
    62   31   89 1    
    63   32   33 2    
    64   32   34 am   BACKBONE|DICT|INTERRES
    65   34   35 1    
    66   34   90 1    
    67   35   36 1    
    68   35   37 1    
    69   35   91 1    
    70   36   92 1    
    71   36   93 1    
    72   36   94 1    
    73   37   38 2    
    74   37   39 am   BACKBONE|DICT|INTERRES
    75   39   40 1    
    76   39   95 1    
    77   40   41 1    
    78   40   42 1    
    79   40   96 1    
    80   41   97 1    
    81   41   98 1    
    82   41   99 1    
    83   42   43 2    
    84   42   44 am   BACKBONE|DICT|INTERRES
    85   44   45 1    
    86   44  100 1    
    87   45   46 1    
    88   45   47 1    
    89   45  101 1    
    90   46  102 1    
    91   46  103 1    
    92   46  104 1    
    93   47   48 2    
    94   47   49 am   BACKBONE|DICT|INTERRES
    95   49   50 1    
    96   49  105 1    
    97   50   51 1    
    98   50   52 1    
    99   50  106 1    
   100   51  107 1    
   101   51  108 1    
   102   51  109 1    
   103   52   53 2    
   104   52   54 am   BACKBONE|DICT|INTERRES
   105   54   55 1    
   106   54  110 1    
   107   55   56 1    
   108   55   59 1    
   109   55  111 1    
   110   56   57 am   BACKBONE|DICT|INTERRES
   111   56   58 2    
   112   57  112 1    
   113   57  113 1    
   114   59   60 1    
   115   59  114 1    
   116   59  115 1    
   117   60   61 1    
   118   61  116 1    
   119   61  117 1    
@<TRIPOS>SUBSTRUCTURE
     1 UNK         1 GROUP             0       ****    0 ROOT    
