@<TRIPOS>MOLECULE
3R8
117   119    1
SMALL
USER_CHARGES


@<TRIPOS>ATOM
      1 CA         15.5184  -26.1068  -46.0671 C.3       0 UNK        -0.2013 
      2 C          16.8640  -25.9295  -46.7538 C.2       0 UNK         0.4866 
      3 O          17.1548  -24.8373  -47.2416 O.2       0 UNK        -0.5176 
      4 N          17.6768  -26.9944  -46.8188 N.am      1 UNK        -0.4884 
      5 CA         18.9765  -27.0021  -47.5008 C.3       1 UNK         0.0853 
      6 C6         19.4586  -28.4432  -47.8295 C.3       10 UNK        -0.0849 
      7 S7         20.0695  -29.4389  -46.4192 S.3       10 UNK        -0.2776 
      8 C8         18.5911  -30.3352  -45.8493 C.3       10 UNK         0.0316 
      9 C9         18.3546  -30.0861  -44.3660 C.ar      10 UNK        -0.0863 
     10 C10        19.1769  -30.6956  -43.4143 C.ar      10 UNK        -0.1009 
     11 C11        18.9743  -30.4709  -42.0496 C.ar      10 UNK        -0.0712 
     12 C12        17.9383  -29.6296  -41.6345 C.ar      10 UNK        -0.0894 
     13 C13        17.1155  -29.0050  -42.5765 C.ar      10 UNK        -0.0745 
     14 C14        17.3208  -29.2483  -43.9384 C.ar      10 UNK        -0.0972 
     15 C15        15.9976  -28.0722  -42.1336 C.3       10 UNK         0.0209 
     16 S16        16.3605  -26.3410  -42.5678 S.3       10 UNK        -0.2568 
     17 C17        17.3951  -25.7790  -41.1737 C.3       10 UNK        -0.0983 
     18 CA         18.9030  -26.1064  -41.3220 C.3       3 UNK         0.0876 
     19 N          19.4451  -25.7163  -42.6269 N.am      3 UNK        -0.4424 
     20 C          20.6361  -26.1102  -43.0940 C.2       2 UNK         0.4918 
     21 O          21.3920  -26.8686  -42.4851 O.2       2 UNK        -0.4875 
     22 CA         20.9979  -25.6244  -44.5039 C.3       2 UNK         0.0481 
     23 CB         22.4765  -25.9090  -44.8555 C.3       2 UNK        -0.1831 
     24 N          20.0825  -26.2817  -45.4355 N.am      2 UNK        -0.4498 
     25 C          20.0359  -26.1488  -46.7676 C.2       1 UNK         0.5027 
     26 O          20.7566  -25.3882  -47.4159 O.2       1 UNK        -0.4969 
     27 C          19.7054  -25.4650  -40.1706 C.2       3 UNK         0.5005 
     28 O          20.1533  -24.3227  -40.3052 O.2       3 UNK        -0.5279 
     29 N          19.8422  -26.2032  -39.0570 N.am      4 UNK        -0.4463 
     30 CA         20.5874  -25.8369  -37.8420 C.3       4 UNK         0.0283 
     31 CB         19.9108  -24.6561  -37.1124 C.3       4 UNK        -0.1875 
     32 C          22.0915  -25.6028  -38.1005 C.2       4 UNK         0.4949 
     33 O          22.6965  -24.7163  -37.4951 O.2       4 UNK        -0.5039 
     34 N          22.6661  -26.4115  -38.9958 N.am      5 UNK        -0.4663 
     35 CA         24.0663  -26.3939  -39.4060 C.3       5 UNK         0.0242 
     36 CB         24.2533  -25.3622  -40.5362 C.3       5 UNK        -0.1982 
     37 C          24.4599  -27.8066  -39.8607 C.2       5 UNK         0.5017 
     38 O          23.6020  -28.6931  -39.9216 O.2       5 UNK        -0.5012 
     39 N          25.7484  -27.9933  -40.1784 N.am      6 UNK        -0.4439 
     40 CA         26.2808  -29.2159  -40.7836 C.3       6 UNK         0.0297 
     41 CB         27.8182  -29.1664  -40.7817 C.3       6 UNK        -0.2006 
     42 C          25.7282  -29.3803  -42.2094 C.2       6 UNK         0.4892 
     43 O          25.9984  -28.5342  -43.0649 O.2       6 UNK        -0.5089 
     44 N          24.9423  -30.4392  -42.4194 N.am      7 UNK        -0.4243 
     45 CA         24.2034  -30.7212  -43.6467 C.3       7 UNK         0.0196 
     46 CB         22.9796  -29.7831  -43.7522 C.3       7 UNK        -0.2007 
     47 C          23.8283  -32.2110  -43.6671 C.2       7 UNK         0.5020 
     48 O          24.4833  -33.0147  -42.9982 O.2       7 UNK        -0.5147 
     49 N          22.7699  -32.5579  -44.4136 N.am      8 UNK        -0.4734 
     50 CA         22.2673  -33.9236  -44.6308 C.3       8 UNK         0.0238 
     51 CB         21.0709  -33.8649  -45.5958 C.3       8 UNK        -0.1912 
     52 C          21.8873  -34.7090  -43.3585 C.2       8 UNK         0.5038 
     53 O          21.8243  -35.9380  -43.4134 O.2       8 UNK        -0.5046 
     54 N          21.6546  -34.0003  -42.2468 N.am      9 UNK        -0.4200 
     55 CA         21.4318  -34.5719  -40.9093 C.3       9 UNK         0.0839 
     56 C          22.6996  -35.2133  -40.2716 C.2       9 UNK         0.5513 
     57 N          23.9037  -34.9595  -40.7734 N.am      9 UNK        -0.7519 
     58 O          22.5846  -35.9575  -39.3013 O.2       9 UNK        -0.4960 
     59 C59        20.7959  -33.5456  -39.9330 C.3       10 UNK        -0.0876 
     60 S60        19.2716  -32.7890  -40.5919 S.3       10 UNK        -0.2414 
     61 C61        19.8835  -31.1342  -41.0302 C.3       10 UNK         0.0169 
     62 H62        15.4047  -27.0950  -45.6249 H         1 UNK         0.0903 
     63 H63        15.4007  -25.3657  -45.2772 H         1 UNK         0.0903 
     64 H64        14.7117  -25.9643  -46.7856 H         1 UNK         0.0903 
     65 H65        17.3910  -27.8694  -46.4090 H         1 UNK         0.3096 
     66 H66        18.8182  -26.5092  -48.4634 H         1 UNK         0.1121 
     67 H67        18.6723  -28.9936  -48.3485 H         1 UNK         0.0849 
     68 H68        20.2780  -28.3834  -48.5482 H         1 UNK         0.0849 
     69 H69        17.7152  -30.0522  -46.4339 H         1 UNK         0.0865 
     70 H70        18.7346  -31.4027  -46.0223 H         1 UNK         0.0865 
     71 H71        19.9793  -31.3431  -43.7372 H         1 UNK         0.1346 
     72 H72        17.7780  -29.4577  -40.5790 H         1 UNK         0.1412 
     73 H73        16.6706  -28.7790  -44.6603 H         1 UNK         0.1426 
     74 H74        15.8083  -28.1579  -41.0626 H         1 UNK         0.0716 
     75 H75        15.0727  -28.3693  -42.6302 H         1 UNK         0.0716 
     76 H76        17.0000  -26.2038  -40.2491 H         1 UNK         0.0695 
     77 H77        17.2520  -24.6997  -41.0905 H         1 UNK         0.0695 
     78 H78        19.0260  -27.1869  -41.2454 H         1 UNK         0.0983 
     79 H79        18.8747  -25.0925  -43.1779 H         1 UNK         0.3095 
     80 H80        20.8274  -24.5471  -44.5426 H         1 UNK         0.0454 
     81 H81        22.6536  -26.9731  -45.0075 H         1 UNK         0.0851 
     82 H82        23.1439  -25.5739  -44.0603 H         1 UNK         0.0851 
     83 H83        22.7835  -25.3885  -45.7618 H         1 UNK         0.0851 
     84 H84        19.4480  -26.9470  -45.0133 H         1 UNK         0.2976 
     85 H85        19.4288  -27.1256  -39.0428 H         1 UNK         0.3116 
     86 H86        20.5310  -26.7021  -37.1797 H         1 UNK         0.0646 
     87 H87        19.9838  -23.7302  -37.6835 H         1 UNK         0.0847 
     88 H88        20.3787  -24.4757  -36.1439 H         1 UNK         0.0847 
     89 H89        18.8552  -24.8546  -36.9278 H         1 UNK         0.0847 
     90 H90        22.1251  -27.1558  -39.4192 H         1 UNK         0.3040 
     91 H91        24.6924  -26.1271  -38.5516 H         1 UNK         0.1015 
     92 H92        23.6687  -25.6274  -41.4182 H         1 UNK         0.0786 
     93 H93        25.2966  -25.2898  -40.8444 H         1 UNK         0.0786 
     94 H94        23.9427  -24.3662  -40.2198 H         1 UNK         0.0786 
     95 H95        26.3800  -27.2074  -40.1241 H         1 UNK         0.3172 
     96 H96        25.9677  -30.0662  -40.1735 H         1 UNK         0.0595 
     97 H97        28.1985  -28.3219  -41.3582 H         1 UNK         0.0839 
     98 H98        28.2359  -30.0734  -41.2208 H         1 UNK         0.0839 
     99 H99        28.2125  -29.0868  -39.7685 H         1 UNK         0.0839 
    100 H100       24.8223  -31.1261  -41.6863 H         1 UNK         0.2998 
    101 H101       24.8633  -30.5447  -44.4985 H         1 UNK         0.0822 
    102 H102       23.2689  -28.7398  -43.6324 H         1 UNK         0.0787 
    103 H103       22.4935  -29.8615  -44.7239 H         1 UNK         0.0787 
    104 H104       22.2354  -29.9951  -42.9849 H         1 UNK         0.0787 
    105 H105       22.2992  -31.8259  -44.9264 H         1 UNK         0.3055 
    106 H106       23.0693  -34.4860  -45.1138 H         1 UNK         0.1106 
    107 H107       20.7130  -34.8675  -45.8349 H         1 UNK         0.0828 
    108 H108       20.2320  -33.3167  -45.1666 H         1 UNK         0.0828 
    109 H109       21.3393  -33.3878  -46.5386 H         1 UNK         0.0828 
    110 H110       21.7365  -32.9980  -42.2977 H         1 UNK         0.2931 
    111 H111       20.7133  -35.3850  -41.0315 H         1 UNK         0.0412 
    112 H112       24.0199  -34.3422  -41.5703 H         1 UNK         0.3472 
    113 H113       24.7125  -35.3860  -40.3498 H         1 UNK         0.3472 
    114 H114       20.5361  -34.0356  -38.9926 H         1 UNK         0.0970 
    115 H115       21.5131  -32.7651  -39.6713 H         1 UNK         0.0970 
    116 H116       19.9589  -30.5254  -40.1279 H         1 UNK         0.0612 
    117 H117       20.8928  -31.2067  -41.4360 H         1 UNK         0.0612 
@<TRIPOS>BOND
     1    1    2 1    
     2    1   62 1    
     3    1   63 1    
     4    1   64 1    
     5    2    3 2    
     6    2    4 am   BACKBONE|DICT|INTERRES
     7    4    5 1    
     8    4   65 1    
     9    5    6 1    
    10    5   25 1    
    11    5   66 1    
    12    6    7 1    
    13    6   67 1    
    14    6   68 1    
    15    7    8 1    
    16    8    9 1    
    17    8   69 1    
    18    8   70 1    
    19    9   10 ar   
    20    9   14 ar   
    21   10   11 ar   
    22   10   71 1    
    23   11   12 ar   
    24   11   61 1    
    25   12   13 ar   
    26   12   72 1    
    27   13   14 ar   
    28   13   15 1    
    29   14   73 1    
    30   15   16 1    
    31   15   74 1    
    32   15   75 1    
    33   16   17 1    
    34   17   18 1    
    35   17   76 1    
    36   17   77 1    
    37   18   19 1    
    38   18   27 1    
    39   18   78 1    
    40   19   20 am   BACKBONE|DICT|INTERRES
    41   19   79 1    
    42   20   21 2    
    43   20   22 1    
    44   22   23 1    
    45   22   24 1    
    46   22   80 1    
    47   23   81 1    
    48   23   82 1    
    49   23   83 1    
    50   24   25 am   BACKBONE|DICT|INTERRES
    51   24   84 1    
    52   25   26 2    
    53   27   28 2    
    54   27   29 am   BACKBONE|DICT|INTERRES
    55   29   30 1    
    56   29   85 1    
    57   30   31 1    
    58   30   32 1    
    59   30   86 1    
    60   31   87 1    
    61   31   88 1    
    62   31   89 1    
    63   32   33 2    
    64   32   34 am   BACKBONE|DICT|INTERRES
    65   34   35 1    
    66   34   90 1    
    67   35   36 1    
    68   35   37 1    
    69   35   91 1    
    70   36   92 1    
    71   36   93 1    
    72   36   94 1    
    73   37   38 2    
    74   37   39 am   BACKBONE|DICT|INTERRES
    75   39   40 1    
    76   39   95 1    
    77   40   41 1    
    78   40   42 1    
    79   40   96 1    
    80   41   97 1    
    81   41   98 1    
    82   41   99 1    
    83   42   43 2    
    84   42   44 am   BACKBONE|DICT|INTERRES
    85   44   45 1    
    86   44  100 1    
    87   45   46 1    
    88   45   47 1    
    89   45  101 1    
    90   46  102 1    
    91   46  103 1    
    92   46  104 1    
    93   47   48 2    
    94   47   49 am   BACKBONE|DICT|INTERRES
    95   49   50 1    
    96   49  105 1    
    97   50   51 1    
    98   50   52 1    
    99   50  106 1    
   100   51  107 1    
   101   51  108 1    
   102   51  109 1    
   103   52   53 2    
   104   52   54 am   BACKBONE|DICT|INTERRES
   105   54   55 1    
   106   54  110 1    
   107   55   56 1    
   108   55   59 1    
   109   55  111 1    
   110   56   57 am   BACKBONE|DICT|INTERRES
   111   56   58 2    
   112   57  112 1    
   113   57  113 1    
   114   59   60 1    
   115   59  114 1    
   116   59  115 1    
   117   60   61 1    
   118   61  116 1    
   119   61  117 1    
@<TRIPOS>SUBSTRUCTURE
     1 UNK         1 GROUP             0       ****    0 ROOT    
