@<TRIPOS>MOLECULE
3R8
117   119    1
SMALL
USER_CHARGES


@<TRIPOS>ATOM
      1 CA         17.9625  -27.7020  -39.5950 C.3       0 UNK        -0.2013 
      2 C          17.8521  -27.6612  -41.1110 C.2       0 UNK         0.4866 
      3 O          18.8687  -27.7162  -41.8039 O.2       0 UNK        -0.5176 
      4 N          16.6168  -27.5508  -41.6221 N.am      1 UNK        -0.4884 
      5 CA         16.2343  -27.4816  -43.0399 C.3       1 UNK         0.0853 
      6 C6         16.6536  -28.7458  -43.8401 C.3       10 UNK        -0.0849 
      7 S7         15.9834  -28.8008  -45.5394 S.3       10 UNK        -0.2776 
      8 C8         16.5206  -30.4506  -46.0984 C.3       10 UNK         0.0316 
      9 C9         18.0253  -30.6409  -45.9654 C.ar      10 UNK        -0.0863 
     10 C10        18.5415  -31.3741  -44.8921 C.ar      10 UNK        -0.1009 
     11 C11        19.9208  -31.5352  -44.7403 C.ar      10 UNK        -0.0712 
     12 C12        20.7822  -30.9788  -45.6873 C.ar      10 UNK        -0.0894 
     13 C13        20.2838  -30.2105  -46.7429 C.ar      10 UNK        -0.0745 
     14 C14        18.9011  -30.0575  -46.8877 C.ar      10 UNK        -0.0972 
     15 C15        21.2482  -29.5251  -47.7024 C.3       10 UNK         0.0209 
     16 S16        21.5417  -27.7753  -47.2665 S.3       10 UNK        -0.2568 
     17 C17        22.3799  -27.8948  -45.6423 C.3       10 UNK        -0.0983 
     18 CA         22.1106  -26.6944  -44.6933 C.3       3 UNK         0.0876 
     19 N          20.6884  -26.3286  -44.6574 N.am      3 UNK        -0.4424 
     20 C          20.2071  -25.0950  -44.4545 C.2       2 UNK         0.4918 
     21 O          20.9085  -24.1274  -44.1626 O.2       2 UNK        -0.4875 
     22 CA         18.6891  -24.9220  -44.5658 C.3       2 UNK         0.0481 
     23 CB         18.2803  -24.7899  -46.0471 C.3       2 UNK        -0.1831 
     24 N          18.0098  -26.0445  -43.9211 N.am      2 UNK        -0.4498 
     25 C          16.6978  -26.1632  -43.6963 C.2       1 UNK         0.5027 
     26 O          15.8676  -25.2950  -43.9713 O.2       1 UNK        -0.4969 
     27 C          22.6907  -26.9601  -43.2812 C.2       3 UNK         0.5005 
     28 O          23.6811  -27.6846  -43.1646 O.2       3 UNK        -0.5279 
     29 N          22.0761  -26.3816  -42.2366 N.am      4 UNK        -0.4463 
     30 CA         22.3097  -26.6287  -40.8068 C.3       4 UNK         0.0283 
     31 CB         21.4310  -25.6701  -39.9875 C.3       4 UNK        -0.1875 
     32 C          23.7720  -26.5357  -40.3348 C.2       4 UNK         0.4949 
     33 O          24.1349  -27.2078  -39.3696 O.2       4 UNK        -0.5039 
     34 N          24.5848  -25.7221  -41.0228 N.am      5 UNK        -0.4663 
     35 CA         26.0272  -25.5985  -40.7991 C.3       5 UNK         0.0242 
     36 CB         26.5525  -24.3762  -41.5693 C.3       5 UNK        -0.1982 
     37 C          26.8209  -26.8615  -41.1868 C.2       5 UNK         0.5017 
     38 O          27.8860  -27.0917  -40.6127 O.2       5 UNK        -0.5012 
     39 N          26.3016  -27.6484  -42.1400 N.am      6 UNK        -0.4439 
     40 CA         26.8574  -28.9370  -42.5487 C.3       6 UNK         0.0297 
     41 CB         26.6283  -29.1564  -44.0545 C.3       6 UNK        -0.2006 
     42 C          26.2340  -30.0690  -41.7212 C.2       6 UNK         0.4892 
     43 O          26.9729  -30.8515  -41.1222 O.2       6 UNK        -0.5089 
     44 N          24.8962  -30.1244  -41.6831 N.am      7 UNK        -0.4243 
     45 CA         24.1137  -31.0949  -40.9198 C.3       7 UNK         0.0196 
     46 CB         24.1760  -32.4874  -41.5788 C.3       7 UNK        -0.2007 
     47 C          22.6656  -30.6073  -40.8417 C.2       7 UNK         0.5020 
     48 O          22.1714  -30.0330  -41.8104 O.2       7 UNK        -0.5147 
     49 N          22.0023  -30.8665  -39.7088 N.am      8 UNK        -0.4734 
     50 CA         20.6060  -30.4798  -39.4743 C.3       8 UNK         0.0238 
     51 CB         20.4169  -30.1735  -37.9792 C.3       8 UNK        -0.1912 
     52 C          19.5878  -31.5362  -39.9409 C.2       8 UNK         0.5038 
     53 O          18.4148  -31.1959  -40.0938 O.2       8 UNK        -0.5046 
     54 N          20.0372  -32.7845  -40.1519 N.am      9 UNK        -0.4200 
     55 CA         19.2215  -33.9420  -40.5761 C.3       9 UNK         0.0839 
     56 C          18.1246  -34.3706  -39.5498 C.2       9 UNK         0.5513 
     57 N          18.2392  -34.0132  -38.2760 N.am      9 UNK        -0.7519 
     58 O          17.1745  -35.0676  -39.8972 O.2       9 UNK        -0.4960 
     59 C59        18.6781  -33.7991  -42.0321 C.3       10 UNK        -0.0876 
     60 S60        19.9951  -33.9388  -43.2908 S.3       10 UNK        -0.2414 
     61 C61        20.5020  -32.2066  -43.5057 C.3       10 UNK         0.0169 
     62 H62        18.9951  -27.5618  -39.2775 H         1 UNK         0.0903 
     63 H63        17.3600  -26.9171  -39.1383 H         1 UNK         0.0903 
     64 H64        17.6200  -28.6657  -39.2190 H         1 UNK         0.0903 
     65 H65        15.8398  -27.4831  -40.9782 H         1 UNK         0.3096 
     66 H66        15.1430  -27.4525  -43.0439 H         1 UNK         0.1121 
     67 H67        17.7401  -28.8255  -43.8923 H         1 UNK         0.0849 
     68 H68        16.3137  -29.6391  -43.3138 H         1 UNK         0.0849 
     69 H69        16.2264  -30.5864  -47.1401 H         1 UNK         0.0865 
     70 H70        15.9848  -31.2130  -45.5306 H         1 UNK         0.0865 
     71 H71        17.8689  -31.7919  -44.1573 H         1 UNK         0.1346 
     72 H72        21.8512  -31.0910  -45.5676 H         1 UNK         0.1412 
     73 H73        18.5077  -29.4625  -47.7009 H         1 UNK         0.1426 
     74 H74        20.8472  -29.5722  -48.7159 H         1 UNK         0.0716 
     75 H75        22.2031  -30.0526  -47.7291 H         1 UNK         0.0716 
     76 H76        23.4508  -27.9977  -45.8272 H         1 UNK         0.0695 
     77 H77        22.0765  -28.8121  -45.1438 H         1 UNK         0.0695 
     78 H78        22.6664  -25.8426  -45.0914 H         1 UNK         0.0983 
     79 H79        20.0500  -27.0666  -44.9162 H         1 UNK         0.3095 
     80 H80        18.4149  -24.0069  -44.0372 H         1 UNK         0.0454 
     81 H81        18.4587  -25.7139  -46.5988 H         1 UNK         0.0851 
     82 H82        18.8488  -24.0003  -46.5403 H         1 UNK         0.0851 
     83 H83        17.2262  -24.5358  -46.1549 H         1 UNK         0.0851 
     84 H84        18.6013  -26.7506  -43.4898 H         1 UNK         0.2976 
     85 H85        21.2926  -25.7833  -42.4541 H         1 UNK         0.3116 
     86 H86        21.9714  -27.6457  -40.6064 H         1 UNK         0.0646 
     87 H87        20.3781  -25.7703  -40.2497 H         1 UNK         0.0847 
     88 H88        21.7166  -24.6291  -40.1442 H         1 UNK         0.0847 
     89 H89        21.5188  -25.8757  -38.9196 H         1 UNK         0.0847 
     90 H90        24.1944  -25.2086  -41.7996 H         1 UNK         0.3040 
     91 H91        26.1895  -25.4285  -39.7323 H         1 UNK         0.1015 
     92 H92        27.6218  -24.2392  -41.4007 H         1 UNK         0.0786 
     93 H93        26.0562  -23.4603  -41.2478 H         1 UNK         0.0786 
     94 H94        26.4033  -24.4814  -42.6447 H         1 UNK         0.0786 
     95 H95        25.3804  -27.4240  -42.5128 H         1 UNK         0.3172 
     96 H96        27.9358  -28.9434  -42.3758 H         1 UNK         0.0595 
     97 H97        25.5691  -29.1759  -44.3129 H         1 UNK         0.0839 
     98 H98        27.0579  -30.1055  -44.3774 H         1 UNK         0.0839 
     99 H99        27.1000  -28.3703  -44.6440 H         1 UNK         0.0839 
    100 H100       24.3444  -29.4325  -42.1860 H         1 UNK         0.2998 
    101 H101       24.5208  -31.1502  -39.9079 H         1 UNK         0.0822 
    102 H102       25.1866  -32.8951  -41.5608 H         1 UNK         0.0787 
    103 H103       23.5343  -33.1996  -41.0585 H         1 UNK         0.0787 
    104 H104       23.8501  -32.4525  -42.6188 H         1 UNK         0.0787 
    105 H105       22.4800  -31.3388  -38.9536 H         1 UNK         0.3055 
    106 H106       20.3877  -29.5678  -40.0359 H         1 UNK         0.1106 
    107 H107       19.3893  -29.8767  -37.7653 H         1 UNK         0.0828 
    108 H108       21.0606  -29.3534  -37.6603 H         1 UNK         0.0828 
    109 H109       20.6409  -31.0394  -37.3554 H         1 UNK         0.0828 
    110 H110       21.0155  -32.9719  -39.9938 H         1 UNK         0.2931 
    111 H111       19.9104  -34.7876  -40.5765 H         1 UNK         0.0412 
    112 H112       19.0194  -33.4560  -37.9680 H         1 UNK         0.3472 
    113 H113       17.5338  -34.3038  -37.6170 H         1 UNK         0.3472 
    114 H114       17.9665  -34.5939  -42.2612 H         1 UNK         0.0970 
    115 H115       18.1243  -32.8684  -42.1537 H         1 UNK         0.0970 
    116 H116       21.5916  -32.1809  -43.5353 H         1 UNK         0.0612 
    117 H117       20.2121  -31.6160  -42.6405 H         1 UNK         0.0612 
@<TRIPOS>BOND
     1    1    2 1    
     2    1   62 1    
     3    1   63 1    
     4    1   64 1    
     5    2    3 2    
     6    2    4 am   BACKBONE|DICT|INTERRES
     7    4    5 1    
     8    4   65 1    
     9    5    6 1    
    10    5   25 1    
    11    5   66 1    
    12    6    7 1    
    13    6   67 1    
    14    6   68 1    
    15    7    8 1    
    16    8    9 1    
    17    8   69 1    
    18    8   70 1    
    19    9   10 ar   
    20    9   14 ar   
    21   10   11 ar   
    22   10   71 1    
    23   11   12 ar   
    24   11   61 1    
    25   12   13 ar   
    26   12   72 1    
    27   13   14 ar   
    28   13   15 1    
    29   14   73 1    
    30   15   16 1    
    31   15   74 1    
    32   15   75 1    
    33   16   17 1    
    34   17   18 1    
    35   17   76 1    
    36   17   77 1    
    37   18   19 1    
    38   18   27 1    
    39   18   78 1    
    40   19   20 am   BACKBONE|DICT|INTERRES
    41   19   79 1    
    42   20   21 2    
    43   20   22 1    
    44   22   23 1    
    45   22   24 1    
    46   22   80 1    
    47   23   81 1    
    48   23   82 1    
    49   23   83 1    
    50   24   25 am   BACKBONE|DICT|INTERRES
    51   24   84 1    
    52   25   26 2    
    53   27   28 2    
    54   27   29 am   BACKBONE|DICT|INTERRES
    55   29   30 1    
    56   29   85 1    
    57   30   31 1    
    58   30   32 1    
    59   30   86 1    
    60   31   87 1    
    61   31   88 1    
    62   31   89 1    
    63   32   33 2    
    64   32   34 am   BACKBONE|DICT|INTERRES
    65   34   35 1    
    66   34   90 1    
    67   35   36 1    
    68   35   37 1    
    69   35   91 1    
    70   36   92 1    
    71   36   93 1    
    72   36   94 1    
    73   37   38 2    
    74   37   39 am   BACKBONE|DICT|INTERRES
    75   39   40 1    
    76   39   95 1    
    77   40   41 1    
    78   40   42 1    
    79   40   96 1    
    80   41   97 1    
    81   41   98 1    
    82   41   99 1    
    83   42   43 2    
    84   42   44 am   BACKBONE|DICT|INTERRES
    85   44   45 1    
    86   44  100 1    
    87   45   46 1    
    88   45   47 1    
    89   45  101 1    
    90   46  102 1    
    91   46  103 1    
    92   46  104 1    
    93   47   48 2    
    94   47   49 am   BACKBONE|DICT|INTERRES
    95   49   50 1    
    96   49  105 1    
    97   50   51 1    
    98   50   52 1    
    99   50  106 1    
   100   51  107 1    
   101   51  108 1    
   102   51  109 1    
   103   52   53 2    
   104   52   54 am   BACKBONE|DICT|INTERRES
   105   54   55 1    
   106   54  110 1    
   107   55   56 1    
   108   55   59 1    
   109   55  111 1    
   110   56   57 am   BACKBONE|DICT|INTERRES
   111   56   58 2    
   112   57  112 1    
   113   57  113 1    
   114   59   60 1    
   115   59  114 1    
   116   59  115 1    
   117   60   61 1    
   118   61  116 1    
   119   61  117 1    
@<TRIPOS>SUBSTRUCTURE
     1 UNK         1 GROUP             0       ****    0 ROOT    
