@<TRIPOS>MOLECULE
3R8
117   119    1
SMALL
USER_CHARGES


@<TRIPOS>ATOM
      1 CA         18.3786  -24.8944  -49.8480 C.3       0 UNK        -0.2013 
      2 C          19.2765  -25.2126  -48.6616 C.2       0 UNK         0.4866 
      3 O          20.3906  -24.6938  -48.5801 O.2       0 UNK        -0.5176 
      4 N          18.8056  -26.0685  -47.7467 N.am      1 UNK        -0.4884 
      5 CA         19.5122  -26.4513  -46.5207 C.3       1 UNK         0.0853 
      6 C6         18.8292  -27.6464  -45.8114 C.3       10 UNK        -0.0849 
      7 S7         18.9365  -29.2079  -46.7384 S.3       10 UNK        -0.2776 
      8 C8         17.4242  -30.0571  -46.1691 C.3       10 UNK         0.0316 
      9 C9         17.2896  -30.0791  -44.6489 C.ar      10 UNK        -0.0863 
     10 C10        18.2048  -30.7901  -43.8675 C.ar      10 UNK        -0.1009 
     11 C11        18.0781  -30.8262  -42.4745 C.ar      10 UNK        -0.0712 
     12 C12        17.0058  -30.1650  -41.8686 C.ar      10 UNK        -0.0894 
     13 C13        16.1050  -29.4144  -42.6325 C.ar      10 UNK        -0.0745 
     14 C14        16.2493  -29.3835  -44.0232 C.ar      10 UNK        -0.0972 
     15 C15        14.9692  -28.6423  -41.9664 C.3       10 UNK         0.0209 
     16 S16        15.5072  -27.6562  -40.5256 S.3       10 UNK        -0.2568 
     17 C17        16.5433  -26.3525  -41.2823 C.3       10 UNK        -0.0983 
     18 CA         18.0493  -26.7081  -41.3807 C.3       3 UNK         0.0876 
     19 N          18.8054  -25.6721  -42.0889 N.am      3 UNK        -0.4424 
     20 C          20.0857  -25.8015  -42.4573 C.2       2 UNK         0.4918 
     21 O          20.7749  -26.7899  -42.2006 O.2       2 UNK        -0.4875 
     22 CA         20.6586  -24.7106  -43.3736 C.3       2 UNK         0.0481 
     23 CB         22.0947  -24.3264  -42.9792 C.3       2 UNK        -0.1831 
     24 N          20.6574  -25.2772  -44.7190 N.am      2 UNK        -0.4498 
     25 C          19.5803  -25.2883  -45.5138 C.2       1 UNK         0.5027 
     26 O          18.6204  -24.5231  -45.3861 O.2       1 UNK        -0.4969 
     27 C          18.6932  -27.0465  -40.0171 C.2       3 UNK         0.5005 
     28 O          18.9581  -26.1418  -39.2218 O.2       3 UNK        -0.5279 
     29 N          18.9405  -28.3479  -39.8088 N.am      4 UNK        -0.4463 
     30 CA         19.5659  -28.9803  -38.6414 C.3       4 UNK         0.0283 
     31 CB         18.7768  -28.6828  -37.3485 C.3       4 UNK        -0.1875 
     32 C          21.0755  -28.7035  -38.4896 C.2       4 UNK         0.4949 
     33 O          21.6340  -29.0264  -37.4398 O.2       4 UNK        -0.5039 
     34 N          21.7283  -28.1494  -39.5218 N.am      5 UNK        -0.4663 
     35 CA         23.1796  -27.9597  -39.5523 C.3       5 UNK         0.0242 
     36 CB         23.5321  -26.8934  -40.6016 C.3       5 UNK        -0.1982 
     37 C          23.9064  -29.2722  -39.8813 C.2       5 UNK         0.5017 
     38 O          23.3716  -30.1086  -40.6163 O.2       5 UNK        -0.5012 
     39 N          25.1551  -29.3867  -39.4085 N.am      6 UNK        -0.4439 
     40 CA         26.0664  -30.4989  -39.7070 C.3       6 UNK         0.0297 
     41 CB         27.3280  -30.3736  -38.8384 C.3       6 UNK        -0.2006 
     42 C          26.4467  -30.6024  -41.1967 C.2       6 UNK         0.4892 
     43 O          26.7612  -31.6952  -41.6655 O.2       6 UNK        -0.5089 
     44 N          26.3752  -29.4790  -41.9227 N.am      7 UNK        -0.4243 
     45 CA         26.5333  -29.4204  -43.3763 C.3       7 UNK         0.0196 
     46 CB         26.7845  -27.9606  -43.7894 C.3       7 UNK        -0.2007 
     47 C          25.3248  -29.9905  -44.1444 C.2       7 UNK         0.5020 
     48 O          25.4832  -30.3550  -45.3097 O.2       7 UNK        -0.5147 
     49 N          24.1467  -30.0350  -43.5056 N.am      8 UNK        -0.4734 
     50 CA         22.8894  -30.4627  -44.1184 C.3       8 UNK         0.0238 
     51 CB         21.7735  -29.4871  -43.7128 C.3       8 UNK        -0.1912 
     52 C          22.5294  -31.9092  -43.7481 C.2       8 UNK         0.5038 
     53 O          22.1844  -32.6778  -44.6465 O.2       8 UNK        -0.5046 
     54 N          22.6203  -32.2560  -42.4558 N.am      9 UNK        -0.4200 
     55 CA         22.2792  -33.5872  -41.9132 C.3       9 UNK         0.0839 
     56 C          23.4335  -34.2431  -41.1032 C.2       9 UNK         0.5513 
     57 N          24.6512  -33.7210  -41.1227 N.am      9 UNK        -0.7519 
     58 O          23.2322  -35.2686  -40.4574 O.2       9 UNK        -0.4960 
     59 C59        20.9482  -33.5712  -41.1086 C.3       10 UNK        -0.0876 
     60 S60        19.4907  -33.2145  -42.1463 S.3       10 UNK        -0.2414 
     61 C61        19.1276  -31.5170  -41.6132 C.3       10 UNK         0.0169 
     62 H62        17.4319  -25.4322  -49.7993 H         1 UNK         0.0903 
     63 H63        18.1609  -23.8271  -49.8776 H         1 UNK         0.0903 
     64 H64        18.8755  -25.1670  -50.7786 H         1 UNK         0.0903 
     65 H65        17.8819  -26.4609  -47.8589 H         1 UNK         0.3096 
     66 H66        20.5316  -26.7349  -46.7934 H         1 UNK         0.1121 
     67 H67        19.2805  -27.8367  -44.8347 H         1 UNK         0.0849 
     68 H68        17.7806  -27.4129  -45.6152 H         1 UNK         0.0849 
     69 H69        16.5582  -29.5760  -46.6265 H         1 UNK         0.0865 
     70 H70        17.4328  -31.0822  -46.5420 H         1 UNK         0.0865 
     71 H71        19.0246  -31.3083  -44.3465 H         1 UNK         0.1346 
     72 H72        16.8847  -30.2045  -40.7944 H         1 UNK         0.1412 
     73 H73        15.5470  -28.8188  -44.6213 H         1 UNK         0.1426 
     74 H74        14.2145  -29.3569  -41.6358 H         1 UNK         0.0716 
     75 H75        14.4745  -27.9809  -42.6795 H         1 UNK         0.0716 
     76 H76        16.4131  -25.4410  -40.6960 H         1 UNK         0.0695 
     77 H77        16.1474  -26.1297  -42.2745 H         1 UNK         0.0695 
     78 H78        18.1277  -27.5928  -42.0147 H         1 UNK         0.0983 
     79 H79        18.2993  -24.8388  -42.3510 H         1 UNK         0.3095 
     80 H80        20.0330  -23.8166  -43.3262 H         1 UNK         0.0454 
     81 H81        22.7766  -25.1756  -43.0341 H         1 UNK         0.0851 
     82 H82        22.1283  -23.9460  -41.9576 H         1 UNK         0.0851 
     83 H83        22.4856  -23.5442  -43.6297 H         1 UNK         0.0851 
     84 H84        21.3857  -25.9547  -44.8953 H         1 UNK         0.2976 
     85 H85        18.6977  -28.9833  -40.5552 H         1 UNK         0.3116 
     86 H86        19.4905  -30.0537  -38.8167 H         1 UNK         0.0646 
     87 H87        18.8789  -27.6422  -37.0401 H         1 UNK         0.0847 
     88 H88        19.1328  -29.2988  -36.5219 H         1 UNK         0.0847 
     89 H89        17.7147  -28.8941  -37.4728 H         1 UNK         0.0847 
     90 H90        21.2217  -27.9078  -40.3654 H         1 UNK         0.3040 
     91 H91        23.5069  -27.6054  -38.5720 H         1 UNK         0.1015 
     92 H92        22.9763  -25.9714  -40.4309 H         1 UNK         0.0786 
     93 H93        23.3122  -27.2354  -41.6139 H         1 UNK         0.0786 
     94 H94        24.5925  -26.6411  -40.5672 H         1 UNK         0.0786 
     95 H95        25.5210  -28.6512  -38.8200 H         1 UNK         0.3172 
     96 H96        25.5562  -31.4255  -39.4358 H         1 UNK         0.0595 
     97 H97        27.8747  -29.4530  -39.0469 H         1 UNK         0.0839 
     98 H98        28.0105  -31.2052  -39.0209 H         1 UNK         0.0839 
     99 H99        27.0831  -30.3874  -37.7761 H         1 UNK         0.0839 
    100 H100       26.1327  -28.6192  -41.4537 H         1 UNK         0.2998 
    101 H101       27.4086  -30.0121  -43.6536 H         1 UNK         0.0822 
    102 H102       27.6756  -27.5586  -43.3067 H         1 UNK         0.0787 
    103 H103       26.9385  -27.8811  -44.8666 H         1 UNK         0.0787 
    104 H104       25.9420  -27.3168  -43.5327 H         1 UNK         0.0787 
    105 H105       24.1045  -29.7792  -42.5266 H         1 UNK         0.3055 
    106 H106       22.9738  -30.4205  -45.2070 H         1 UNK         0.1106 
    107 H107       20.8237  -29.7724  -44.1623 H         1 UNK         0.0828 
    108 H108       21.6311  -29.4492  -42.6329 H         1 UNK         0.0828 
    109 H109       21.9950  -28.4751  -44.0507 H         1 UNK         0.0828 
    110 H110       22.9149  -31.5607  -41.7751 H         1 UNK         0.2931 
    111 H111       22.1357  -34.2800  -42.7440 H         1 UNK         0.0412 
    112 H112       25.3820  -34.1764  -40.5999 H         1 UNK         0.3472 
    113 H113       24.8754  -32.9058  -41.6735 H         1 UNK         0.3472 
    114 H114       20.7623  -34.5436  -40.6489 H         1 UNK         0.0970 
    115 H115       21.0117  -32.8609  -40.2823 H         1 UNK         0.0970 
    116 H116       20.0441  -30.9275  -41.6400 H         1 UNK         0.0612 
    117 H117       18.8072  -31.5538  -40.5713 H         1 UNK         0.0612 
@<TRIPOS>BOND
     1    1    2 1    
     2    1   62 1    
     3    1   63 1    
     4    1   64 1    
     5    2    3 2    
     6    2    4 am   BACKBONE|DICT|INTERRES
     7    4    5 1    
     8    4   65 1    
     9    5    6 1    
    10    5   25 1    
    11    5   66 1    
    12    6    7 1    
    13    6   67 1    
    14    6   68 1    
    15    7    8 1    
    16    8    9 1    
    17    8   69 1    
    18    8   70 1    
    19    9   10 ar   
    20    9   14 ar   
    21   10   11 ar   
    22   10   71 1    
    23   11   12 ar   
    24   11   61 1    
    25   12   13 ar   
    26   12   72 1    
    27   13   14 ar   
    28   13   15 1    
    29   14   73 1    
    30   15   16 1    
    31   15   74 1    
    32   15   75 1    
    33   16   17 1    
    34   17   18 1    
    35   17   76 1    
    36   17   77 1    
    37   18   19 1    
    38   18   27 1    
    39   18   78 1    
    40   19   20 am   BACKBONE|DICT|INTERRES
    41   19   79 1    
    42   20   21 2    
    43   20   22 1    
    44   22   23 1    
    45   22   24 1    
    46   22   80 1    
    47   23   81 1    
    48   23   82 1    
    49   23   83 1    
    50   24   25 am   BACKBONE|DICT|INTERRES
    51   24   84 1    
    52   25   26 2    
    53   27   28 2    
    54   27   29 am   BACKBONE|DICT|INTERRES
    55   29   30 1    
    56   29   85 1    
    57   30   31 1    
    58   30   32 1    
    59   30   86 1    
    60   31   87 1    
    61   31   88 1    
    62   31   89 1    
    63   32   33 2    
    64   32   34 am   BACKBONE|DICT|INTERRES
    65   34   35 1    
    66   34   90 1    
    67   35   36 1    
    68   35   37 1    
    69   35   91 1    
    70   36   92 1    
    71   36   93 1    
    72   36   94 1    
    73   37   38 2    
    74   37   39 am   BACKBONE|DICT|INTERRES
    75   39   40 1    
    76   39   95 1    
    77   40   41 1    
    78   40   42 1    
    79   40   96 1    
    80   41   97 1    
    81   41   98 1    
    82   41   99 1    
    83   42   43 2    
    84   42   44 am   BACKBONE|DICT|INTERRES
    85   44   45 1    
    86   44  100 1    
    87   45   46 1    
    88   45   47 1    
    89   45  101 1    
    90   46  102 1    
    91   46  103 1    
    92   46  104 1    
    93   47   48 2    
    94   47   49 am   BACKBONE|DICT|INTERRES
    95   49   50 1    
    96   49  105 1    
    97   50   51 1    
    98   50   52 1    
    99   50  106 1    
   100   51  107 1    
   101   51  108 1    
   102   51  109 1    
   103   52   53 2    
   104   52   54 am   BACKBONE|DICT|INTERRES
   105   54   55 1    
   106   54  110 1    
   107   55   56 1    
   108   55   59 1    
   109   55  111 1    
   110   56   57 am   BACKBONE|DICT|INTERRES
   111   56   58 2    
   112   57  112 1    
   113   57  113 1    
   114   59   60 1    
   115   59  114 1    
   116   59  115 1    
   117   60   61 1    
   118   61  116 1    
   119   61  117 1    
@<TRIPOS>SUBSTRUCTURE
     1 UNK         1 GROUP             0       ****    0 ROOT    
