@<TRIPOS>MOLECULE
3R8
117   119    1
SMALL
USER_CHARGES


@<TRIPOS>ATOM
      1 CA         19.3293  -28.9682  -40.5015 C.3       0 UNK        -0.2013 
      2 C          18.6716  -27.7308  -41.0911 C.2       0 UNK         0.4866 
      3 O          18.5565  -26.7119  -40.4088 O.2       0 UNK        -0.5176 
      4 N          18.2207  -27.8248  -42.3474 N.am      1 UNK        -0.4884 
      5 CA         17.5432  -26.7494  -43.0831 C.3       1 UNK         0.0853 
      6 C6         16.5460  -27.3001  -44.1426 C.3       10 UNK        -0.0849 
      7 S7         15.5095  -28.6725  -43.4995 S.3       10 UNK        -0.2776 
      8 C8         15.8873  -30.0955  -44.5859 C.3       10 UNK         0.0316 
      9 C9         17.3745  -30.2718  -44.8683 C.ar      10 UNK        -0.0863 
     10 C10        18.2283  -30.8599  -43.9303 C.ar      10 UNK        -0.1009 
     11 C11        19.5954  -30.9964  -44.2044 C.ar      10 UNK        -0.0712 
     12 C12        20.1049  -30.5074  -45.4144 C.ar      10 UNK        -0.0894 
     13 C13        19.2637  -29.9040  -46.3542 C.ar      10 UNK        -0.0745 
     14 C14        17.8939  -29.8332  -46.0873 C.ar      10 UNK        -0.0972 
     15 C15        19.8363  -29.3270  -47.6478 C.3       10 UNK         0.0209 
     16 S16        19.0803  -27.7192  -48.0798 S.3       10 UNK        -0.2568 
     17 C17        20.5127  -26.6758  -48.5210 C.3       10 UNK        -0.0983 
     18 CA         21.0961  -25.8460  -47.3422 C.3       3 UNK         0.0876 
     19 N          20.0393  -25.2405  -46.5251 N.am      3 UNK        -0.4424 
     20 C          20.1347  -24.0844  -45.8595 C.2       2 UNK         0.4918 
     21 O          21.1259  -23.3550  -45.8960 O.2       2 UNK        -0.4875 
     22 CA         18.9219  -23.6656  -44.9997 C.3       2 UNK         0.0481 
     23 CB         18.0114  -22.7188  -45.7980 C.3       2 UNK        -0.1831 
     24 N          18.1098  -24.7635  -44.4467 N.am      2 UNK        -0.4498 
     25 C          18.5766  -25.7675  -43.6881 C.2       1 UNK         0.5027 
     26 O          19.7792  -25.9282  -43.4724 O.2       1 UNK        -0.4969 
     27 C          22.1154  -26.6696  -46.5225 C.2       3 UNK         0.5005 
     28 O          23.1386  -27.0644  -47.0861 O.2       3 UNK        -0.5279 
     29 N          21.8402  -26.9481  -45.2398 N.am      4 UNK        -0.4463 
     30 CA         22.7021  -27.7584  -44.3783 C.3       4 UNK         0.0283 
     31 CB         21.8849  -28.2698  -43.1827 C.3       4 UNK        -0.1875 
     32 C          23.9148  -26.9583  -43.8794 C.2       4 UNK         0.4949 
     33 O          23.7910  -25.7659  -43.5916 O.2       4 UNK        -0.5039 
     34 N          25.0542  -27.6460  -43.7344 N.am      5 UNK        -0.4663 
     35 CA         26.2767  -27.0938  -43.1391 C.3       5 UNK         0.0242 
     36 CB         27.4872  -27.8986  -43.6403 C.3       5 UNK        -0.1982 
     37 C          26.2388  -27.0876  -41.5990 C.2       5 UNK         0.5017 
     38 O          26.9541  -26.2984  -40.9809 O.2       5 UNK        -0.5012 
     39 N          25.4179  -27.9658  -41.0130 N.am      6 UNK        -0.4439 
     40 CA         25.2028  -28.1569  -39.5829 C.3       6 UNK         0.0297 
     41 CB         26.3937  -28.9138  -38.9626 C.3       6 UNK        -0.2006 
     42 C          23.9010  -28.9486  -39.4113 C.2       6 UNK         0.4892 
     43 O          23.4025  -29.5206  -40.3849 O.2       6 UNK        -0.5089 
     44 N          23.3898  -29.0162  -38.1760 N.am      7 UNK        -0.4243 
     45 CA         22.1569  -29.7209  -37.7953 C.3       7 UNK         0.0196 
     46 CB         21.6577  -29.1579  -36.4514 C.3       7 UNK        -0.2007 
     47 C          22.2814  -31.2628  -37.7782 C.2       7 UNK         0.5020 
     48 O          21.7011  -31.9181  -36.9114 O.2       7 UNK        -0.5147 
     49 N          23.0216  -31.8271  -38.7406 N.am      8 UNK        -0.4734 
     50 CA         23.2912  -33.2613  -38.8875 C.3       8 UNK         0.0238 
     51 CB         24.3832  -33.4584  -39.9515 C.3       8 UNK        -0.1912 
     52 C          22.0443  -34.0927  -39.2348 C.2       8 UNK         0.5038 
     53 O          21.9962  -35.2755  -38.8946 O.2       8 UNK        -0.5046 
     54 N          21.0635  -33.4584  -39.8890 N.am      9 UNK        -0.4200 
     55 CA         19.7537  -34.0432  -40.2155 C.3       9 UNK         0.0839 
     56 C          18.7654  -34.0937  -39.0121 C.2       9 UNK         0.5513 
     57 N          19.0881  -33.5373  -37.8491 N.am      9 UNK        -0.7519 
     58 O          17.6812  -34.6573  -39.1361 O.2       9 UNK        -0.4960 
     59 C59        19.1034  -33.3598  -41.4486 C.3       10 UNK        -0.0876 
     60 S60        20.1767  -33.4035  -42.9283 S.3       10 UNK        -0.2414 
     61 C61        20.5388  -31.6381  -43.1918 C.3       10 UNK         0.0169 
     62 H62        20.4046  -28.9431  -40.6754 H         1 UNK         0.0903 
     63 H63        19.1532  -29.0139  -39.4270 H         1 UNK         0.0903 
     64 H64        18.9230  -29.8769  -40.9422 H         1 UNK         0.0903 
     65 H65        18.3478  -28.6807  -42.8690 H         1 UNK         0.3096 
     66 H66        16.9598  -26.1715  -42.3625 H         1 UNK         0.1121 
     67 H67        17.0691  -27.6031  -45.0469 H         1 UNK         0.0849 
     68 H68        15.8657  -26.5083  -44.4598 H         1 UNK         0.0849 
     69 H69        15.4958  -31.0035  -44.1249 H         1 UNK         0.0865 
     70 H70        15.3361  -29.9755  -45.5200 H         1 UNK         0.0865 
     71 H71        17.8234  -31.2141  -42.9933 H         1 UNK         0.1346 
     72 H72        21.1638  -30.5842  -45.6200 H         1 UNK         0.1412 
     73 H73        17.2296  -29.3889  -46.8159 H         1 UNK         0.1426 
     74 H74        19.6619  -30.0319  -48.4614 H         1 UNK         0.0716 
     75 H75        20.9176  -29.2132  -47.5614 H         1 UNK         0.0716 
     76 H76        20.1622  -25.9834  -49.2878 H         1 UNK         0.0695 
     77 H77        21.2753  -27.2803  -49.0163 H         1 UNK         0.0695 
     78 H78        21.6797  -25.0364  -47.7867 H         1 UNK         0.0983 
     79 H79        19.1868  -25.7770  -46.4530 H         1 UNK         0.3095 
     80 H80        19.3182  -23.1091  -44.1480 H         1 UNK         0.0454 
     81 H81        18.5776  -21.8768  -46.1992 H         1 UNK         0.0851 
     82 H82        17.2213  -22.3031  -45.1726 H         1 UNK         0.0851 
     83 H83        17.5423  -23.2262  -46.6419 H         1 UNK         0.0851 
     84 H84        17.1131  -24.6913  -44.5928 H         1 UNK         0.2976 
     85 H85        21.0306  -26.5261  -44.7925 H         1 UNK         0.3116 
     86 H86        23.0441  -28.6214  -44.9538 H         1 UNK         0.0646 
     87 H87        22.3863  -29.1097  -42.7044 H         1 UNK         0.0847 
     88 H88        21.7425  -27.4968  -42.4259 H         1 UNK         0.0847 
     89 H89        20.8972  -28.6105  -43.4860 H         1 UNK         0.0847 
     90 H90        25.0790  -28.6188  -44.0068 H         1 UNK         0.3040 
     91 H91        26.3958  -26.0585  -43.4676 H         1 UNK         0.1015 
     92 H92        28.4174  -27.4950  -43.2373 H         1 UNK         0.0786 
     93 H93        27.5651  -27.8627  -44.7272 H         1 UNK         0.0786 
     94 H94        27.4303  -28.9459  -43.3407 H         1 UNK         0.0786 
     95 H95        24.8213  -28.5482  -41.5883 H         1 UNK         0.3172 
     96 H96        25.0851  -27.1828  -39.1039 H         1 UNK         0.0595 
     97 H97        26.5307  -29.8932  -39.4230 H         1 UNK         0.0839 
     98 H98        26.2499  -29.0730  -37.8934 H         1 UNK         0.0839 
     99 H99        27.3246  -28.3586  -39.0788 H         1 UNK         0.0839 
    100 H100       23.8856  -28.5544  -37.4266 H         1 UNK         0.2998 
    101 H101       21.3996  -29.4888  -38.5441 H         1 UNK         0.0822 
    102 H102       20.6933  -29.5879  -36.1772 H         1 UNK         0.0787 
    103 H103       22.3546  -29.3749  -35.6409 H         1 UNK         0.0787 
    104 H104       21.5216  -28.0772  -36.4989 H         1 UNK         0.0787 
    105 H105       23.4057  -31.2064  -39.4474 H         1 UNK         0.3055 
    106 H106       23.6687  -33.6304  -37.9312 H         1 UNK         0.1106 
    107 H107       25.3036  -32.9432  -39.6762 H         1 UNK         0.0828 
    108 H108       24.6278  -34.5151  -40.0693 H         1 UNK         0.0828 
    109 H109       24.0681  -33.0856  -40.9271 H         1 UNK         0.0828 
    110 H110       21.1975  -32.4879  -40.1255 H         1 UNK         0.2931 
    111 H111       19.9263  -35.0856  -40.4909 H         1 UNK         0.0412 
    112 H112       19.9829  -33.0863  -37.7122 H         1 UNK         0.3472 
    113 H113       18.4328  -33.5871  -37.0849 H         1 UNK         0.3472 
    114 H114       18.1706  -33.8624  -41.7115 H         1 UNK         0.0970 
    115 H115       18.8294  -32.3329  -41.2067 H         1 UNK         0.0970 
    116 H116       21.5704  -31.5618  -43.5388 H         1 UNK         0.0612 
    117 H117       20.5070  -31.0941  -42.2487 H         1 UNK         0.0612 
@<TRIPOS>BOND
     1    1    2 1    
     2    1   62 1    
     3    1   63 1    
     4    1   64 1    
     5    2    3 2    
     6    2    4 am   BACKBONE|DICT|INTERRES
     7    4    5 1    
     8    4   65 1    
     9    5    6 1    
    10    5   25 1    
    11    5   66 1    
    12    6    7 1    
    13    6   67 1    
    14    6   68 1    
    15    7    8 1    
    16    8    9 1    
    17    8   69 1    
    18    8   70 1    
    19    9   10 ar   
    20    9   14 ar   
    21   10   11 ar   
    22   10   71 1    
    23   11   12 ar   
    24   11   61 1    
    25   12   13 ar   
    26   12   72 1    
    27   13   14 ar   
    28   13   15 1    
    29   14   73 1    
    30   15   16 1    
    31   15   74 1    
    32   15   75 1    
    33   16   17 1    
    34   17   18 1    
    35   17   76 1    
    36   17   77 1    
    37   18   19 1    
    38   18   27 1    
    39   18   78 1    
    40   19   20 am   BACKBONE|DICT|INTERRES
    41   19   79 1    
    42   20   21 2    
    43   20   22 1    
    44   22   23 1    
    45   22   24 1    
    46   22   80 1    
    47   23   81 1    
    48   23   82 1    
    49   23   83 1    
    50   24   25 am   BACKBONE|DICT|INTERRES
    51   24   84 1    
    52   25   26 2    
    53   27   28 2    
    54   27   29 am   BACKBONE|DICT|INTERRES
    55   29   30 1    
    56   29   85 1    
    57   30   31 1    
    58   30   32 1    
    59   30   86 1    
    60   31   87 1    
    61   31   88 1    
    62   31   89 1    
    63   32   33 2    
    64   32   34 am   BACKBONE|DICT|INTERRES
    65   34   35 1    
    66   34   90 1    
    67   35   36 1    
    68   35   37 1    
    69   35   91 1    
    70   36   92 1    
    71   36   93 1    
    72   36   94 1    
    73   37   38 2    
    74   37   39 am   BACKBONE|DICT|INTERRES
    75   39   40 1    
    76   39   95 1    
    77   40   41 1    
    78   40   42 1    
    79   40   96 1    
    80   41   97 1    
    81   41   98 1    
    82   41   99 1    
    83   42   43 2    
    84   42   44 am   BACKBONE|DICT|INTERRES
    85   44   45 1    
    86   44  100 1    
    87   45   46 1    
    88   45   47 1    
    89   45  101 1    
    90   46  102 1    
    91   46  103 1    
    92   46  104 1    
    93   47   48 2    
    94   47   49 am   BACKBONE|DICT|INTERRES
    95   49   50 1    
    96   49  105 1    
    97   50   51 1    
    98   50   52 1    
    99   50  106 1    
   100   51  107 1    
   101   51  108 1    
   102   51  109 1    
   103   52   53 2    
   104   52   54 am   BACKBONE|DICT|INTERRES
   105   54   55 1    
   106   54  110 1    
   107   55   56 1    
   108   55   59 1    
   109   55  111 1    
   110   56   57 am   BACKBONE|DICT|INTERRES
   111   56   58 2    
   112   57  112 1    
   113   57  113 1    
   114   59   60 1    
   115   59  114 1    
   116   59  115 1    
   117   60   61 1    
   118   61  116 1    
   119   61  117 1    
@<TRIPOS>SUBSTRUCTURE
     1 UNK         1 GROUP             0       ****    0 ROOT    
