@<TRIPOS>MOLECULE
3R8
117   119    1
SMALL
USER_CHARGES


@<TRIPOS>ATOM
      1 CA         16.2328  -28.7731  -48.9685 C.3       0 UNK        -0.2013 
      2 C          16.8622  -28.6254  -47.5912 C.2       0 UNK         0.4866 
      3 O          17.9955  -29.0600  -47.3882 O.2       0 UNK        -0.5176 
      4 N          16.1313  -28.0231  -46.6449 N.am      1 UNK        -0.4884 
      5 CA         16.5778  -27.7545  -45.2738 C.3       1 UNK         0.0853 
      6 C6         15.3951  -27.3356  -44.3639 C.3       10 UNK        -0.0849 
      7 S7         14.2098  -28.7102  -44.1442 S.3       10 UNK        -0.2776 
      8 C8         14.3645  -29.1122  -42.3680 C.3       10 UNK         0.0316 
      9 C9         15.8102  -29.2529  -41.9049 C.ar      10 UNK        -0.0863 
     10 C10        16.6749  -30.1576  -42.5274 C.ar      10 UNK        -0.1009 
     11 C11        18.0155  -30.2366  -42.1411 C.ar      10 UNK        -0.0712 
     12 C12        18.4838  -29.4306  -41.0995 C.ar      10 UNK        -0.0894 
     13 C13        17.6239  -28.5362  -40.4555 C.ar      10 UNK        -0.0745 
     14 C14        16.2891  -28.4543  -40.8621 C.ar      10 UNK        -0.0972 
     15 C15        18.1237  -27.6455  -39.3281 C.3       10 UNK         0.0209 
     16 S16        18.3202  -25.9278  -39.9004 S.3       10 UNK        -0.2568 
     17 C17        20.1236  -25.6872  -39.7868 C.3       10 UNK        -0.0983 
     18 CA         20.9208  -26.3697  -40.9247 C.3       3 UNK         0.0876 
     19 N          20.3979  -26.0446  -42.2599 N.am      3 UNK        -0.4424 
     20 C          20.8363  -26.5671  -43.4126 C.2       2 UNK         0.4918 
     21 O          21.7998  -27.3292  -43.4965 O.2       2 UNK        -0.4875 
     22 CA         20.0443  -26.1895  -44.6667 C.3       2 UNK         0.0481 
     23 CB         20.8633  -26.3685  -45.9598 C.3       2 UNK        -0.1831 
     24 N          18.8531  -27.0295  -44.7164 N.am      2 UNK        -0.4498 
     25 C          17.6869  -26.6845  -45.2723 C.2       1 UNK         0.5027 
     26 O          17.4629  -25.5806  -45.7755 O.2       1 UNK        -0.4969 
     27 C          22.4305  -26.0973  -40.7487 C.2       3 UNK         0.5005 
     28 O          23.0681  -26.7616  -39.9309 O.2       3 UNK        -0.5279 
     29 N          22.9829  -25.1631  -41.5385 N.am      4 UNK        -0.4463 
     30 CA         24.4115  -24.8406  -41.6084 C.3       4 UNK         0.0283 
     31 CB         24.6199  -23.6684  -42.5802 C.3       4 UNK        -0.1875 
     32 C          25.3054  -26.0305  -42.0073 C.2       4 UNK         0.4949 
     33 O          26.4655  -26.0717  -41.5964 O.2       4 UNK        -0.5039 
     34 N          24.7560  -27.0031  -42.7500 N.am      5 UNK        -0.4663 
     35 CA         25.4107  -28.2666  -43.0978 C.3       5 UNK         0.0242 
     36 CB         24.7872  -28.8070  -44.3957 C.3       5 UNK        -0.1982 
     37 C          25.3328  -29.2725  -41.9317 C.2       5 UNK         0.5017 
     38 O          24.7618  -30.3561  -42.0839 O.2       5 UNK        -0.5012 
     39 N          25.8804  -28.8657  -40.7751 N.am      6 UNK        -0.4439 
     40 CA         26.0205  -29.6073  -39.5122 C.3       6 UNK         0.0297 
     41 CB         27.0959  -30.7024  -39.6734 C.3       6 UNK        -0.2006 
     42 C          24.7021  -30.1750  -38.9426 C.2       6 UNK         0.4892 
     43 O          24.7332  -31.1868  -38.2403 O.2       6 UNK        -0.5089 
     44 N          23.5683  -29.5465  -39.2920 N.am      7 UNK        -0.4243 
     45 CA         22.1867  -30.0021  -39.0828 C.3       7 UNK         0.0196 
     46 CB         21.8169  -29.9598  -37.5860 C.3       7 UNK        -0.2007 
     47 C          21.8569  -31.3657  -39.7342 C.2       7 UNK         0.5020 
     48 O          20.8347  -31.9620  -39.3942 O.2       7 UNK        -0.5147 
     49 N          22.7108  -31.8375  -40.6522 N.am      8 UNK        -0.4734 
     50 CA         22.6278  -33.1529  -41.2863 C.3       8 UNK         0.0238 
     51 CB         24.0063  -33.8288  -41.1981 C.3       8 UNK        -0.1912 
     52 C          22.1769  -33.0644  -42.7491 C.2       8 UNK         0.5038 
     53 O          21.5664  -34.0171  -43.2351 O.2       8 UNK        -0.5046 
     54 N          22.4767  -31.9414  -43.4195 N.am      9 UNK        -0.4200 
     55 CA         22.1579  -31.6793  -44.8362 C.3       9 UNK         0.0839 
     56 C          22.9289  -32.5871  -45.8435 C.2       9 UNK         0.5513 
     57 N          24.0583  -33.1744  -45.4650 N.am      9 UNK        -0.7519 
     58 O          22.5218  -32.7405  -46.9924 O.2       9 UNK        -0.4960 
     59 C59        20.6285  -31.6129  -45.1184 C.3       10 UNK        -0.0876 
     60 S60        19.8078  -30.2637  -44.2076 S.3       10 UNK        -0.2414 
     61 C61        18.9641  -31.1661  -42.8762 C.3       10 UNK         0.0169 
     62 H62        16.1746  -29.8261  -49.2430 H         1 UNK         0.0903 
     63 H63        15.2260  -28.3574  -49.0045 H         1 UNK         0.0903 
     64 H64        16.8388  -28.2594  -49.7143 H         1 UNK         0.0903 
     65 H65        15.2078  -27.6834  -46.8721 H         1 UNK         0.3096 
     66 H66        17.0026  -28.6807  -44.8812 H         1 UNK         0.1121 
     67 H67        14.8634  -26.4837  -44.7922 H         1 UNK         0.0849 
     68 H68        15.7523  -26.9987  -43.3892 H         1 UNK         0.0849 
     69 H69        13.8489  -28.3403  -41.7944 H         1 UNK         0.0865 
     70 H70        13.8350  -30.0447  -42.1683 H         1 UNK         0.0865 
     71 H71        16.3116  -30.7729  -43.3395 H         1 UNK         0.1346 
     72 H72        19.5199  -29.4963  -40.8031 H         1 UNK         0.1412 
     73 H73        15.6289  -27.7503  -40.3733 H         1 UNK         0.1426 
     74 H74        19.0605  -28.0270  -38.9190 H         1 UNK         0.0716 
     75 H75        17.4055  -27.6633  -38.5071 H         1 UNK         0.0716 
     76 H76        20.3069  -24.6108  -39.7918 H         1 UNK         0.0695 
     77 H77        20.4601  -26.0443  -38.8111 H         1 UNK         0.0695 
     78 H78        20.7979  -27.4470  -40.8153 H         1 UNK         0.0983 
     79 H79        19.5797  -25.4523  -42.2745 H         1 UNK         0.3095 
     80 H80        19.7589  -25.1392  -44.5772 H         1 UNK         0.0454 
     81 H81        21.7867  -25.7894  -45.9218 H         1 UNK         0.0851 
     82 H82        21.1372  -27.4122  -46.1214 H         1 UNK         0.0851 
     83 H83        20.3041  -26.0327  -46.8330 H         1 UNK         0.0851 
     84 H84        18.9652  -27.9601  -44.3306 H         1 UNK         0.2976 
     85 H85        22.3758  -24.6695  -42.1765 H         1 UNK         0.3116 
     86 H86        24.7232  -24.5204  -40.6121 H         1 UNK         0.0646 
     87 H87        25.6730  -23.3879  -42.6325 H         1 UNK         0.0847 
     88 H88        24.0681  -22.7836  -42.2621 H         1 UNK         0.0847 
     89 H89        24.3003  -23.9203  -43.5922 H         1 UNK         0.0847 
     90 H90        23.7759  -26.9282  -43.0040 H         1 UNK         0.3040 
     91 H91        26.4700  -28.0838  -43.2922 H         1 UNK         0.1015 
     92 H92        24.9468  -28.1200  -45.2268 H         1 UNK         0.0786 
     93 H93        23.7137  -28.9490  -44.2852 H         1 UNK         0.0786 
     94 H94        25.2232  -29.7662  -44.6782 H         1 UNK         0.0786 
     95 H95        26.2661  -27.9258  -40.7748 H         1 UNK         0.3172 
     96 H96        26.3824  -28.8886  -38.7757 H         1 UNK         0.0595 
     97 H97        28.0304  -30.2898  -40.0535 H         1 UNK         0.0839 
     98 H98        26.7710  -31.4855  -40.3598 H         1 UNK         0.0839 
     99 H99        27.3215  -31.1791  -38.7187 H         1 UNK         0.0839 
    100 H100       23.6541  -28.6693  -39.7978 H         1 UNK         0.2998 
    101 H101       21.5583  -29.2732  -39.5914 H         1 UNK         0.0822 
    102 H102       22.0296  -28.9818  -37.1540 H         1 UNK         0.0787 
    103 H103       20.7537  -30.1526  -37.4381 H         1 UNK         0.0787 
    104 H104       22.3656  -30.7076  -37.0129 H         1 UNK         0.0787 
    105 H105       23.5113  -31.2663  -40.9092 H         1 UNK         0.3055 
    106 H106       21.9062  -33.7820  -40.7599 H         1 UNK         0.1106 
    107 H107       24.7763  -33.2473  -41.7071 H         1 UNK         0.0828 
    108 H108       24.3171  -33.9550  -40.1608 H         1 UNK         0.0828 
    109 H109       23.9873  -34.8197  -41.6541 H         1 UNK         0.0828 
    110 H110       23.0293  -31.2328  -42.9527 H         1 UNK         0.2931 
    111 H111       22.5478  -30.6843  -45.0401 H         1 UNK         0.0412 
    112 H112       24.5590  -33.7521  -46.1219 H         1 UNK         0.3472 
    113 H113       24.4153  -33.0424  -44.5325 H         1 UNK         0.3472 
    114 H114       20.1444  -32.5668  -44.9066 H         1 UNK         0.0970 
    115 H115       20.4453  -31.4195  -46.1769 H         1 UNK         0.0970 
    116 H116       19.6997  -31.5761  -42.1838 H         1 UNK         0.0612 
    117 H117       18.4162  -32.0128  -43.2924 H         1 UNK         0.0612 
@<TRIPOS>BOND
     1    1    2 1    
     2    1   62 1    
     3    1   63 1    
     4    1   64 1    
     5    2    3 2    
     6    2    4 am   BACKBONE|DICT|INTERRES
     7    4    5 1    
     8    4   65 1    
     9    5    6 1    
    10    5   25 1    
    11    5   66 1    
    12    6    7 1    
    13    6   67 1    
    14    6   68 1    
    15    7    8 1    
    16    8    9 1    
    17    8   69 1    
    18    8   70 1    
    19    9   10 ar   
    20    9   14 ar   
    21   10   11 ar   
    22   10   71 1    
    23   11   12 ar   
    24   11   61 1    
    25   12   13 ar   
    26   12   72 1    
    27   13   14 ar   
    28   13   15 1    
    29   14   73 1    
    30   15   16 1    
    31   15   74 1    
    32   15   75 1    
    33   16   17 1    
    34   17   18 1    
    35   17   76 1    
    36   17   77 1    
    37   18   19 1    
    38   18   27 1    
    39   18   78 1    
    40   19   20 am   BACKBONE|DICT|INTERRES
    41   19   79 1    
    42   20   21 2    
    43   20   22 1    
    44   22   23 1    
    45   22   24 1    
    46   22   80 1    
    47   23   81 1    
    48   23   82 1    
    49   23   83 1    
    50   24   25 am   BACKBONE|DICT|INTERRES
    51   24   84 1    
    52   25   26 2    
    53   27   28 2    
    54   27   29 am   BACKBONE|DICT|INTERRES
    55   29   30 1    
    56   29   85 1    
    57   30   31 1    
    58   30   32 1    
    59   30   86 1    
    60   31   87 1    
    61   31   88 1    
    62   31   89 1    
    63   32   33 2    
    64   32   34 am   BACKBONE|DICT|INTERRES
    65   34   35 1    
    66   34   90 1    
    67   35   36 1    
    68   35   37 1    
    69   35   91 1    
    70   36   92 1    
    71   36   93 1    
    72   36   94 1    
    73   37   38 2    
    74   37   39 am   BACKBONE|DICT|INTERRES
    75   39   40 1    
    76   39   95 1    
    77   40   41 1    
    78   40   42 1    
    79   40   96 1    
    80   41   97 1    
    81   41   98 1    
    82   41   99 1    
    83   42   43 2    
    84   42   44 am   BACKBONE|DICT|INTERRES
    85   44   45 1    
    86   44  100 1    
    87   45   46 1    
    88   45   47 1    
    89   45  101 1    
    90   46  102 1    
    91   46  103 1    
    92   46  104 1    
    93   47   48 2    
    94   47   49 am   BACKBONE|DICT|INTERRES
    95   49   50 1    
    96   49  105 1    
    97   50   51 1    
    98   50   52 1    
    99   50  106 1    
   100   51  107 1    
   101   51  108 1    
   102   51  109 1    
   103   52   53 2    
   104   52   54 am   BACKBONE|DICT|INTERRES
   105   54   55 1    
   106   54  110 1    
   107   55   56 1    
   108   55   59 1    
   109   55  111 1    
   110   56   57 am   BACKBONE|DICT|INTERRES
   111   56   58 2    
   112   57  112 1    
   113   57  113 1    
   114   59   60 1    
   115   59  114 1    
   116   59  115 1    
   117   60   61 1    
   118   61  116 1    
   119   61  117 1    
@<TRIPOS>SUBSTRUCTURE
     1 UNK         1 GROUP             0       ****    0 ROOT    
