@<TRIPOS>MOLECULE
3R8
117   119    1
SMALL
USER_CHARGES


@<TRIPOS>ATOM
      1 CA         17.8244  -27.7594  -40.5577 C.3       0 UNK        -0.2013 
      2 C          16.9121  -26.7900  -41.2928 C.2       0 UNK         0.4866 
      3 O          15.7290  -26.6907  -40.9668 O.2       0 UNK        -0.5176 
      4 N          17.4525  -26.0834  -42.2923 N.am      1 UNK        -0.4884 
      5 CA         16.7172  -25.1191  -43.1178 C.3       1 UNK         0.0853 
      6 C6         15.7496  -25.7823  -44.1408 C.3       10 UNK        -0.0849 
      7 S7         16.5686  -26.8373  -45.3901 S.3       10 UNK        -0.2776 
      8 C8         16.4124  -28.5078  -44.6637 C.3       10 UNK         0.0316 
      9 C9         17.5929  -29.4477  -44.9290 C.ar      10 UNK        -0.0863 
     10 C10        17.6614  -30.6430  -44.2085 C.ar      10 UNK        -0.1009 
     11 C11        18.6945  -31.5566  -44.4305 C.ar      10 UNK        -0.0712 
     12 C12        19.6898  -31.2545  -45.3661 C.ar      10 UNK        -0.0894 
     13 C13        19.6532  -30.0594  -46.0942 C.ar      10 UNK        -0.0745 
     14 C14        18.5868  -29.1748  -45.8794 C.ar      10 UNK        -0.0972 
     15 C15        20.7545  -29.7870  -47.1278 C.3       10 UNK         0.0209 
     16 S16        20.8434  -28.0637  -47.7471 S.3       10 UNK        -0.2568 
     17 C17        22.4686  -27.4468  -47.1695 C.3       10 UNK        -0.0983 
     18 CA         22.4340  -26.5618  -45.8911 C.3       3 UNK         0.0876 
     19 N          21.2911  -25.6389  -45.8607 N.am      3 UNK        -0.4424 
     20 C          21.1254  -24.6393  -44.9818 C.2       2 UNK         0.4918 
     21 O          21.9461  -24.3406  -44.1147 O.2       2 UNK        -0.4875 
     22 CA         19.8056  -23.8638  -45.0569 C.3       2 UNK         0.0481 
     23 CB         19.3690  -23.5398  -46.5004 C.3       2 UNK        -0.1831 
     24 N          18.7715  -24.6314  -44.3677 N.am      2 UNK        -0.4498 
     25 C          17.6879  -24.1162  -43.7704 C.2       1 UNK         0.5027 
     26 O          17.4490  -22.9095  -43.7043 O.2       1 UNK        -0.4969 
     27 C          22.5258  -27.4120  -44.6115 C.2       3 UNK         0.5005 
     28 O          23.6060  -27.5299  -44.0275 O.2       3 UNK        -0.5279 
     29 N          21.3826  -27.9902  -44.2111 N.am      4 UNK        -0.4463 
     30 CA         21.1479  -28.7677  -42.9877 C.3       4 UNK         0.0283 
     31 CB         21.1535  -27.8230  -41.7682 C.3       4 UNK        -0.1875 
     32 C          22.1013  -29.9637  -42.7855 C.2       4 UNK         0.4949 
     33 O          22.2843  -30.3920  -41.6476 O.2       4 UNK        -0.5039 
     34 N          22.7291  -30.4437  -43.8705 N.am      5 UNK        -0.4663 
     35 CA         23.8154  -31.4323  -43.9026 C.3       5 UNK         0.0242 
     36 CB         23.2673  -32.8449  -43.6201 C.3       5 UNK        -0.1982 
     37 C          24.9962  -31.0454  -42.9856 C.2       5 UNK         0.5017 
     38 O          25.5130  -31.8941  -42.2583 O.2       5 UNK        -0.5012 
     39 N          25.3667  -29.7539  -43.0133 N.am      6 UNK        -0.4439 
     40 CA         26.3570  -29.1014  -42.1464 C.3       6 UNK         0.0297 
     41 CB         27.7730  -29.6774  -42.3654 C.3       6 UNK        -0.2006 
     42 C          25.9165  -29.0997  -40.6686 C.2       6 UNK         0.4892 
     43 O          26.7031  -29.4372  -39.7828 O.2       6 UNK        -0.5089 
     44 N          24.6490  -28.7183  -40.4525 N.am      7 UNK        -0.4243 
     45 CA         23.9335  -28.6051  -39.1736 C.3       7 UNK         0.0196 
     46 CB         24.6349  -27.6140  -38.2203 C.3       7 UNK        -0.2007 
     47 C          23.6064  -29.9468  -38.4878 C.2       7 UNK         0.5020 
     48 O          23.1350  -29.9341  -37.3499 O.2       7 UNK        -0.5147 
     49 N          23.8031  -31.0774  -39.1792 N.am      8 UNK        -0.4734 
     50 CA         23.4326  -32.4123  -38.6996 C.3       8 UNK         0.0238 
     51 CB         24.1409  -33.4791  -39.5477 C.3       8 UNK        -0.1912 
     52 C          21.9106  -32.6458  -38.6866 C.2       8 UNK         0.5038 
     53 O          21.4283  -33.3875  -37.8295 O.2       8 UNK        -0.5046 
     54 N          21.1853  -32.0032  -39.6118 N.am      9 UNK        -0.4200 
     55 CA         19.7147  -32.0187  -39.6943 C.3       9 UNK         0.0839 
     56 C          19.0170  -31.0525  -38.6919 C.2       9 UNK         0.5513 
     57 N          19.7378  -30.2545  -37.9119 N.am      9 UNK        -0.7519 
     58 O          17.7915  -31.0300  -38.6171 O.2       9 UNK        -0.4960 
     59 C59        19.2071  -31.7766  -41.1422 C.3       10 UNK        -0.0876 
     60 S60        19.9047  -32.9595  -42.3433 S.3       10 UNK        -0.2414 
     61 C61        18.6978  -32.8946  -43.7013 C.3       10 UNK         0.0169 
     62 H62        18.2693  -28.4687  -41.2544 H         1 UNK         0.0903 
     63 H63        18.6197  -27.2237  -40.0404 H         1 UNK         0.0903 
     64 H64        17.2650  -28.3287  -39.8152 H         1 UNK         0.0903 
     65 H65        18.4425  -26.1512  -42.4736 H         1 UNK         0.3096 
     66 H66        16.1027  -24.5236  -42.4378 H         1 UNK         0.1121 
     67 H67        14.9925  -26.3676  -43.6170 H         1 UNK         0.0849 
     68 H68        15.1916  -25.0093  -44.6724 H         1 UNK         0.0849 
     69 H69        16.2757  -28.4210  -43.5863 H         1 UNK         0.0865 
     70 H70        15.5017  -28.9675  -45.0497 H         1 UNK         0.0865 
     71 H71        16.8893  -30.8770  -43.4878 H         1 UNK         0.1346 
     72 H72        20.4880  -31.9642  -45.5364 H         1 UNK         0.1412 
     73 H73        18.5201  -28.2745  -46.4691 H         1 UNK         0.1426 
     74 H74        20.5802  -30.4397  -47.9842 H         1 UNK         0.0716 
     75 H75        21.7215  -30.0799  -46.7189 H         1 UNK         0.0716 
     76 H76        22.8659  -26.8437  -47.9873 H         1 UNK         0.0695 
     77 H77        23.1738  -28.2745  -47.0703 H         1 UNK         0.0695 
     78 H78        23.3354  -25.9444  -45.9016 H         1 UNK         0.0983 
     79 H79        20.5782  -25.8091  -46.5555 H         1 UNK         0.3095 
     80 H80        19.9633  -22.9202  -44.5298 H         1 UNK         0.0454 
     81 H81        20.1784  -23.0691  -47.0601 H         1 UNK         0.0851 
     82 H82        18.5297  -22.8443  -46.5064 H         1 UNK         0.0851 
     83 H83        19.0584  -24.4295  -47.0490 H         1 UNK         0.0851 
     84 H84        18.8623  -25.6358  -44.4124 H         1 UNK         0.2976 
     85 H85        20.5804  -27.8892  -44.8173 H         1 UNK         0.3116 
     86 H86        20.1474  -29.1895  -43.0826 H         1 UNK         0.0646 
     87 H87        22.1387  -27.3871  -41.6033 H         1 UNK         0.0847 
     88 H88        20.4540  -26.9994  -41.9006 H         1 UNK         0.0847 
     89 H89        20.8684  -28.3482  -40.8556 H         1 UNK         0.0847 
     90 H90        22.5120  -30.0016  -44.7505 H         1 UNK         0.3040 
     91 H91        24.2127  -31.4315  -44.9188 H         1 UNK         0.1015 
     92 H92        24.0495  -33.5991  -43.7137 H         1 UNK         0.0786 
     93 H93        22.4758  -33.1104  -44.3205 H         1 UNK         0.0786 
     94 H94        22.8584  -32.9205  -42.6136 H         1 UNK         0.0786 
     95 H95        24.8276  -29.1206  -43.5982 H         1 UNK         0.3172 
     96 H96        26.3822  -28.0551  -42.4550 H         1 UNK         0.0595 
     97 H97        27.8542  -30.7081  -42.0192 H         1 UNK         0.0839 
     98 H98        28.5165  -29.0960  -41.8189 H         1 UNK         0.0839 
     99 H99        28.0535  -29.6533  -43.4182 H         1 UNK         0.0839 
    100 H100       24.0903  -28.5187  -41.2706 H         1 UNK         0.2998 
    101 H101       22.9639  -28.1730  -39.4213 H         1 UNK         0.0822 
    102 H102       24.0131  -27.4015  -37.3498 H         1 UNK         0.0787 
    103 H103       24.8343  -26.6622  -38.7127 H         1 UNK         0.0787 
    104 H104       25.5821  -28.0070  -37.8501 H         1 UNK         0.0787 
    105 H105       24.1367  -31.0060  -40.1319 H         1 UNK         0.3055 
    106 H106       23.7844  -32.5112  -37.6701 H         1 UNK         0.1106 
    107 H107       25.2236  -33.3539  -39.5207 H         1 UNK         0.0828 
    108 H108       23.9197  -34.4816  -39.1790 H         1 UNK         0.0828 
    109 H109       23.8276  -33.4390  -40.5901 H         1 UNK         0.0828 
    110 H110       21.6632  -31.4218  -40.2981 H         1 UNK         0.2931 
    111 H111       19.3842  -33.0195  -39.4101 H         1 UNK         0.0412 
    112 H112       19.2662  -29.6426  -37.2650 H         1 UNK         0.3472 
    113 H113       20.7460  -30.2852  -37.9328 H         1 UNK         0.3472 
    114 H114       18.1190  -31.8562  -41.1783 H         1 UNK         0.0970 
    115 H115       19.4487  -30.7653  -41.4668 H         1 UNK         0.0970 
    116 H116       18.9356  -33.6871  -44.4122 H         1 UNK         0.0612 
    117 H117       17.7054  -33.1275  -43.3121 H         1 UNK         0.0612 
@<TRIPOS>BOND
     1    1    2 1    
     2    1   62 1    
     3    1   63 1    
     4    1   64 1    
     5    2    3 2    
     6    2    4 am   BACKBONE|DICT|INTERRES
     7    4    5 1    
     8    4   65 1    
     9    5    6 1    
    10    5   25 1    
    11    5   66 1    
    12    6    7 1    
    13    6   67 1    
    14    6   68 1    
    15    7    8 1    
    16    8    9 1    
    17    8   69 1    
    18    8   70 1    
    19    9   10 ar   
    20    9   14 ar   
    21   10   11 ar   
    22   10   71 1    
    23   11   12 ar   
    24   11   61 1    
    25   12   13 ar   
    26   12   72 1    
    27   13   14 ar   
    28   13   15 1    
    29   14   73 1    
    30   15   16 1    
    31   15   74 1    
    32   15   75 1    
    33   16   17 1    
    34   17   18 1    
    35   17   76 1    
    36   17   77 1    
    37   18   19 1    
    38   18   27 1    
    39   18   78 1    
    40   19   20 am   BACKBONE|DICT|INTERRES
    41   19   79 1    
    42   20   21 2    
    43   20   22 1    
    44   22   23 1    
    45   22   24 1    
    46   22   80 1    
    47   23   81 1    
    48   23   82 1    
    49   23   83 1    
    50   24   25 am   BACKBONE|DICT|INTERRES
    51   24   84 1    
    52   25   26 2    
    53   27   28 2    
    54   27   29 am   BACKBONE|DICT|INTERRES
    55   29   30 1    
    56   29   85 1    
    57   30   31 1    
    58   30   32 1    
    59   30   86 1    
    60   31   87 1    
    61   31   88 1    
    62   31   89 1    
    63   32   33 2    
    64   32   34 am   BACKBONE|DICT|INTERRES
    65   34   35 1    
    66   34   90 1    
    67   35   36 1    
    68   35   37 1    
    69   35   91 1    
    70   36   92 1    
    71   36   93 1    
    72   36   94 1    
    73   37   38 2    
    74   37   39 am   BACKBONE|DICT|INTERRES
    75   39   40 1    
    76   39   95 1    
    77   40   41 1    
    78   40   42 1    
    79   40   96 1    
    80   41   97 1    
    81   41   98 1    
    82   41   99 1    
    83   42   43 2    
    84   42   44 am   BACKBONE|DICT|INTERRES
    85   44   45 1    
    86   44  100 1    
    87   45   46 1    
    88   45   47 1    
    89   45  101 1    
    90   46  102 1    
    91   46  103 1    
    92   46  104 1    
    93   47   48 2    
    94   47   49 am   BACKBONE|DICT|INTERRES
    95   49   50 1    
    96   49  105 1    
    97   50   51 1    
    98   50   52 1    
    99   50  106 1    
   100   51  107 1    
   101   51  108 1    
   102   51  109 1    
   103   52   53 2    
   104   52   54 am   BACKBONE|DICT|INTERRES
   105   54   55 1    
   106   54  110 1    
   107   55   56 1    
   108   55   59 1    
   109   55  111 1    
   110   56   57 am   BACKBONE|DICT|INTERRES
   111   56   58 2    
   112   57  112 1    
   113   57  113 1    
   114   59   60 1    
   115   59  114 1    
   116   59  115 1    
   117   60   61 1    
   118   61  116 1    
   119   61  117 1    
@<TRIPOS>SUBSTRUCTURE
     1 UNK         1 GROUP             0       ****    0 ROOT    
