@<TRIPOS>MOLECULE
3R8
117   119    1
SMALL
USER_CHARGES


@<TRIPOS>ATOM
      1 CA         14.3164  -24.4363  -46.4066 C.3       0 UNK        -0.2013 
      2 C          15.8314  -24.3370  -46.3078 C.2       0 UNK         0.4866 
      3 O          16.3671  -23.2341  -46.1907 O.2       0 UNK        -0.5176 
      4 N          16.5265  -25.4791  -46.3636 N.am      1 UNK        -0.4884 
      5 CA         17.9797  -25.5886  -46.2029 C.3       1 UNK         0.0853 
      6 C6         18.5191  -26.9259  -46.7774 C.3       10 UNK        -0.0849 
      7 S7         17.6821  -28.4158  -46.1256 S.3       10 UNK        -0.2776 
      8 C8         19.0072  -29.1555  -45.1264 C.3       10 UNK         0.0316 
      9 C9         18.4397  -30.1475  -44.1251 C.ar      10 UNK        -0.0863 
     10 C10        18.2519  -31.4886  -44.4728 C.ar      10 UNK        -0.1009 
     11 C11        17.7320  -32.4011  -43.5442 C.ar      10 UNK        -0.0712 
     12 C12        17.4200  -31.9533  -42.2553 C.ar      10 UNK        -0.0894 
     13 C13        17.6016  -30.6128  -41.8966 C.ar      10 UNK        -0.0745 
     14 C14        18.0903  -29.7130  -42.8459 C.ar      10 UNK        -0.0972 
     15 C15        17.2540  -30.1374  -40.4915 C.3       10 UNK         0.0209 
     16 S16        18.7321  -29.6295  -39.5466 S.3       10 UNK        -0.2568 
     17 C17        18.8734  -27.8553  -39.9510 C.3       10 UNK        -0.0983 
     18 CA         20.1006  -27.5095  -40.8367 C.3       3 UNK         0.0876 
     19 N          19.8416  -26.2974  -41.6253 N.am      3 UNK        -0.4424 
     20 C          20.6647  -25.7454  -42.5255 C.2       2 UNK         0.4918 
     21 O          21.7735  -26.1936  -42.8137 O.2       2 UNK        -0.4875 
     22 CA         20.1565  -24.4728  -43.2211 C.3       2 UNK         0.0481 
     23 CB         21.2780  -23.4326  -43.3858 C.3       2 UNK        -0.1831 
     24 N          19.5885  -24.7819  -44.5333 N.am      2 UNK        -0.4498 
     25 C          18.3978  -25.3634  -44.7322 C.2       1 UNK         0.5027 
     26 O          17.6495  -25.7133  -43.8144 O.2       1 UNK        -0.4969 
     27 C          21.3988  -27.4154  -40.0061 C.2       3 UNK         0.5005 
     28 O          22.2048  -28.3478  -40.0105 O.2       3 UNK        -0.5279 
     29 N          21.5879  -26.2624  -39.3480 N.am      4 UNK        -0.4463 
     30 CA         22.7274  -25.9605  -38.4796 C.3       4 UNK         0.0283 
     31 CB         22.4025  -24.7104  -37.6459 C.3       4 UNK        -0.1875 
     32 C          24.0633  -25.7721  -39.2198 C.2       4 UNK         0.4949 
     33 O          25.1118  -25.8728  -38.5829 O.2       4 UNK        -0.5039 
     34 N          24.0328  -25.5218  -40.5369 N.am      5 UNK        -0.4663 
     35 CA         25.2137  -25.2845  -41.3774 C.3       5 UNK         0.0242 
     36 CB         24.8041  -24.4158  -42.5812 C.3       5 UNK        -0.1982 
     37 C          25.9132  -26.5929  -41.8027 C.2       5 UNK         0.5017 
     38 O          26.2818  -26.7402  -42.9692 O.2       5 UNK        -0.5012 
     39 N          26.0705  -27.5213  -40.8469 N.am      6 UNK        -0.4439 
     40 CA         26.6481  -28.8651  -40.9796 C.3       6 UNK         0.0297 
     41 CB         28.1692  -28.7772  -41.2274 C.3       6 UNK        -0.2006 
     42 C          25.9215  -29.7465  -42.0183 C.2       6 UNK         0.4892 
     43 O          26.5678  -30.5398  -42.7058 O.2       6 UNK        -0.5089 
     44 N          24.5953  -29.5826  -42.1167 N.am      7 UNK        -0.4243 
     45 CA         23.7265  -30.3254  -43.0238 C.3       7 UNK         0.0196 
     46 CB         22.7233  -29.3512  -43.6752 C.3       7 UNK        -0.2007 
     47 C          23.0684  -31.4717  -42.2436 C.2       7 UNK         0.5020 
     48 O          23.7208  -32.4884  -42.0021 O.2       7 UNK        -0.5147 
     49 N          21.7854  -31.3060  -41.8892 N.am      8 UNK        -0.4734 
     50 CA         20.9387  -32.2436  -41.1355 C.3       8 UNK         0.0238 
     51 CB         21.4360  -32.3647  -39.6798 C.3       8 UNK        -0.1912 
     52 C          20.7540  -33.6182  -41.8107 C.2       8 UNK         0.5038 
     53 O          20.4135  -34.5873  -41.1298 O.2       8 UNK        -0.5046 
     54 N          20.9993  -33.6781  -43.1279 N.am      9 UNK        -0.4200 
     55 CA         21.0776  -34.8982  -43.9452 C.3       9 UNK         0.0839 
     56 C          22.2161  -35.8772  -43.5159 C.2       9 UNK         0.5513 
     57 N          23.2589  -35.4164  -42.8326 N.am      9 UNK        -0.7519 
     58 O          22.1776  -37.0637  -43.8325 O.2       9 UNK        -0.4960 
     59 C59        19.6948  -35.5855  -44.1271 C.3       10 UNK        -0.0876 
     60 S60        18.5572  -34.5874  -45.1491 S.3       10 UNK        -0.2414 
     61 C61        17.4218  -33.8505  -43.9224 C.3       10 UNK         0.0169 
     62 H62        13.9820  -25.4674  -46.5202 H         1 UNK         0.0903 
     63 H63        13.8547  -24.0274  -45.5082 H         1 UNK         0.0903 
     64 H64        13.9577  -23.8672  -47.2639 H         1 UNK         0.0903 
     65 H65        16.0395  -26.3631  -46.4198 H         1 UNK         0.3096 
     66 H66        18.4271  -24.7819  -46.7888 H         1 UNK         0.1121 
     67 H67        18.3794  -26.9274  -47.8596 H         1 UNK         0.0849 
     68 H68        19.5983  -27.0040  -46.6312 H         1 UNK         0.0849 
     69 H69        19.7277  -29.6463  -45.7826 H         1 UNK         0.0865 
     70 H70        19.5541  -28.3727  -44.5975 H         1 UNK         0.0865 
     71 H71        18.4882  -31.8109  -45.4773 H         1 UNK         0.1346 
     72 H72        17.0168  -32.6496  -41.5323 H         1 UNK         0.1412 
     73 H73        18.1966  -28.6681  -42.5934 H         1 UNK         0.1426 
     74 H74        16.7618  -30.9375  -39.9367 H         1 UNK         0.0716 
     75 H75        16.5291  -29.3241  -40.5425 H         1 UNK         0.0716 
     76 H76        18.8850  -27.2883  -39.0180 H         1 UNK         0.0695 
     77 H77        17.9536  -27.5495  -40.4511 H         1 UNK         0.0695 
     78 H78        20.2497  -28.3150  -41.5562 H         1 UNK         0.0983 
     79 H79        18.9335  -25.8716  -41.5006 H         1 UNK         0.3095 
     80 H80        19.3795  -24.0212  -42.6001 H         1 UNK         0.0454 
     81 H81        20.8940  -22.4978  -43.7942 H         1 UNK         0.0851 
     82 H82        22.0682  -23.7864  -44.0489 H         1 UNK         0.0851 
     83 H83        21.7381  -23.1990  -42.4248 H         1 UNK         0.0851 
     84 H84        20.1620  -24.5512  -45.3321 H         1 UNK         0.2976 
     85 H85        20.8786  -25.5477  -39.4274 H         1 UNK         0.3116 
     86 H86        22.8560  -26.8015  -37.7947 H         1 UNK         0.0646 
     87 H87        22.2470  -23.8331  -38.2752 H         1 UNK         0.0847 
     88 H88        23.2171  -24.4762  -36.9587 H         1 UNK         0.0847 
     89 H89        21.5067  -24.8557  -37.0418 H         1 UNK         0.0847 
     90 H90        23.1414  -25.5452  -41.0145 H         1 UNK         0.3040 
     91 H91        25.9450  -24.7153  -40.7989 H         1 UNK         0.1015 
     92 H92        24.3189  -23.4938  -42.2612 H         1 UNK         0.0786 
     93 H93        24.1209  -24.9467  -43.2445 H         1 UNK         0.0786 
     94 H94        25.6751  -24.1311  -43.1729 H         1 UNK         0.0786 
     95 H95        25.7479  -27.2652  -39.9188 H         1 UNK         0.3172 
     96 H96        26.4999  -29.3542  -40.0158 H         1 UNK         0.0595 
     97 H97        28.6297  -29.7655  -41.1960 H         1 UNK         0.0839 
     98 H98        28.6613  -28.1693  -40.4683 H         1 UNK         0.0839 
     99 H99        28.3952  -28.3446  -42.2026 H         1 UNK         0.0839 
    100 H100       24.1367  -28.9462  -41.4774 H         1 UNK         0.2998 
    101 H101       24.3123  -30.7788  -43.8264 H         1 UNK         0.0822 
    102 H102       22.0350  -29.8750  -44.3398 H         1 UNK         0.0787 
    103 H103       22.1345  -28.8110  -42.9356 H         1 UNK         0.0787 
    104 H104       23.2429  -28.6050  -44.2770 H         1 UNK         0.0787 
    105 H105       21.3420  -30.4360  -42.1451 H         1 UNK         0.3055 
    106 H106       19.9468  -31.7994  -41.1023 H         1 UNK         0.1106 
    107 H107       22.3991  -32.8725  -39.6219 H         1 UNK         0.0828 
    108 H108       21.5444  -31.3831  -39.2178 H         1 UNK         0.0828 
    109 H109       20.7310  -32.9305  -39.0697 H         1 UNK         0.0828 
    110 H110       21.2630  -32.8236  -43.5936 H         1 UNK         0.2931 
    111 H111       21.3946  -34.5576  -44.9316 H         1 UNK         0.0412 
    112 H112       23.3216  -34.4389  -42.5695 H         1 UNK         0.3472 
    113 H113       23.9946  -36.0531  -42.5703 H         1 UNK         0.3472 
    114 H114       19.2437  -35.8304  -43.1651 H         1 UNK         0.0970 
    115 H115       19.8061  -36.5383  -44.6472 H         1 UNK         0.0970 
    116 H116       16.4164  -33.8728  -44.3442 H         1 UNK         0.0612 
    117 H117       17.3886  -34.4797  -43.0320 H         1 UNK         0.0612 
@<TRIPOS>BOND
     1    1    2 1    
     2    1   62 1    
     3    1   63 1    
     4    1   64 1    
     5    2    3 2    
     6    2    4 am   BACKBONE|DICT|INTERRES
     7    4    5 1    
     8    4   65 1    
     9    5    6 1    
    10    5   25 1    
    11    5   66 1    
    12    6    7 1    
    13    6   67 1    
    14    6   68 1    
    15    7    8 1    
    16    8    9 1    
    17    8   69 1    
    18    8   70 1    
    19    9   10 ar   
    20    9   14 ar   
    21   10   11 ar   
    22   10   71 1    
    23   11   12 ar   
    24   11   61 1    
    25   12   13 ar   
    26   12   72 1    
    27   13   14 ar   
    28   13   15 1    
    29   14   73 1    
    30   15   16 1    
    31   15   74 1    
    32   15   75 1    
    33   16   17 1    
    34   17   18 1    
    35   17   76 1    
    36   17   77 1    
    37   18   19 1    
    38   18   27 1    
    39   18   78 1    
    40   19   20 am   BACKBONE|DICT|INTERRES
    41   19   79 1    
    42   20   21 2    
    43   20   22 1    
    44   22   23 1    
    45   22   24 1    
    46   22   80 1    
    47   23   81 1    
    48   23   82 1    
    49   23   83 1    
    50   24   25 am   BACKBONE|DICT|INTERRES
    51   24   84 1    
    52   25   26 2    
    53   27   28 2    
    54   27   29 am   BACKBONE|DICT|INTERRES
    55   29   30 1    
    56   29   85 1    
    57   30   31 1    
    58   30   32 1    
    59   30   86 1    
    60   31   87 1    
    61   31   88 1    
    62   31   89 1    
    63   32   33 2    
    64   32   34 am   BACKBONE|DICT|INTERRES
    65   34   35 1    
    66   34   90 1    
    67   35   36 1    
    68   35   37 1    
    69   35   91 1    
    70   36   92 1    
    71   36   93 1    
    72   36   94 1    
    73   37   38 2    
    74   37   39 am   BACKBONE|DICT|INTERRES
    75   39   40 1    
    76   39   95 1    
    77   40   41 1    
    78   40   42 1    
    79   40   96 1    
    80   41   97 1    
    81   41   98 1    
    82   41   99 1    
    83   42   43 2    
    84   42   44 am   BACKBONE|DICT|INTERRES
    85   44   45 1    
    86   44  100 1    
    87   45   46 1    
    88   45   47 1    
    89   45  101 1    
    90   46  102 1    
    91   46  103 1    
    92   46  104 1    
    93   47   48 2    
    94   47   49 am   BACKBONE|DICT|INTERRES
    95   49   50 1    
    96   49  105 1    
    97   50   51 1    
    98   50   52 1    
    99   50  106 1    
   100   51  107 1    
   101   51  108 1    
   102   51  109 1    
   103   52   53 2    
   104   52   54 am   BACKBONE|DICT|INTERRES
   105   54   55 1    
   106   54  110 1    
   107   55   56 1    
   108   55   59 1    
   109   55  111 1    
   110   56   57 am   BACKBONE|DICT|INTERRES
   111   56   58 2    
   112   57  112 1    
   113   57  113 1    
   114   59   60 1    
   115   59  114 1    
   116   59  115 1    
   117   60   61 1    
   118   61  116 1    
   119   61  117 1    
@<TRIPOS>SUBSTRUCTURE
     1 UNK         1 GROUP             0       ****    0 ROOT    
