@<TRIPOS>MOLECULE
3R8
117   119    1
SMALL
USER_CHARGES


@<TRIPOS>ATOM
      1 CA         19.2557  -31.6456  -48.6707 C.3       0 UNK        -0.2013 
      2 C          19.1395  -31.1046  -47.2544 C.2       0 UNK         0.4866 
      3 O          19.8489  -31.5700  -46.3638 O.2       0 UNK        -0.5176 
      4 N          18.2455  -30.1342  -47.0369 N.am      1 UNK        -0.4884 
      5 CA         18.0209  -29.4555  -45.7571 C.3       1 UNK         0.0853 
      6 C6         16.5523  -28.9697  -45.6424 C.3       10 UNK        -0.0849 
      7 S7         15.4708  -30.3642  -45.1519 S.3       10 UNK        -0.2776 
      8 C8         15.0321  -30.0133  -43.4088 C.3       10 UNK         0.0316 
      9 C9         16.1825  -29.4131  -42.6115 C.ar      10 UNK        -0.0863 
     10 C10        17.2662  -30.1984  -42.2089 C.ar      10 UNK        -0.1009 
     11 C11        18.3683  -29.6128  -41.5754 C.ar      10 UNK        -0.0712 
     12 C12        18.3697  -28.2346  -41.3278 C.ar      10 UNK        -0.0894 
     13 C13        17.2735  -27.4481  -41.6958 C.ar      10 UNK        -0.0745 
     14 C14        16.1785  -28.0475  -42.3198 C.ar      10 UNK        -0.0972 
     15 C15        17.2603  -25.9460  -41.4581 C.3       10 UNK         0.0209 
     16 S16        17.4566  -25.0527  -43.0344 S.3       10 UNK        -0.2568 
     17 C17        19.0118  -24.1354  -42.7915 C.3       10 UNK        -0.0983 
     18 CA         20.2639  -25.0267  -42.5971 C.3       3 UNK         0.0876 
     19 N          20.4181  -26.0278  -43.6575 N.am      3 UNK        -0.4424 
     20 C          21.3178  -27.0187  -43.6496 C.2       2 UNK         0.4918 
     21 O          22.0421  -27.2760  -42.6826 O.2       2 UNK        -0.4875 
     22 CA         21.4246  -27.8414  -44.9474 C.3       2 UNK         0.0481 
     23 CB         22.6959  -28.7086  -44.9895 C.3       2 UNK        -0.1831 
     24 N          20.2621  -28.7053  -45.1452 N.am      2 UNK        -0.4498 
     25 C          19.0589  -28.3278  -45.5960 C.2       1 UNK         0.5027 
     26 O          18.7815  -27.1721  -45.9239 O.2       1 UNK        -0.4969 
     27 C          21.5250  -24.1454  -42.4755 C.2       3 UNK         0.5005 
     28 O          22.2658  -23.9910  -43.4508 O.2       3 UNK        -0.5279 
     29 N          21.7596  -23.6013  -41.2723 N.am      4 UNK        -0.4463 
     30 CA         22.9239  -22.8088  -40.8380 C.3       4 UNK         0.0283 
     31 CB         23.1186  -21.5394  -41.6909 C.3       4 UNK        -0.1875 
     32 C          24.2284  -23.6219  -40.7332 C.2       4 UNK         0.4949 
     33 O          24.9697  -23.4387  -39.7677 O.2       4 UNK        -0.5039 
     34 N          24.4679  -24.5297  -41.6890 N.am      5 UNK        -0.4663 
     35 CA         25.5199  -25.5479  -41.6409 C.3       5 UNK         0.0242 
     36 CB         25.6376  -26.2302  -43.0127 C.3       5 UNK        -0.1982 
     37 C          25.2638  -26.5867  -40.5350 C.2       5 UNK         0.5017 
     38 O          26.2125  -26.9908  -39.8623 O.2       5 UNK        -0.5012 
     39 N          23.9851  -26.9598  -40.3550 N.am      6 UNK        -0.4439 
     40 CA         23.4523  -27.8448  -39.3124 C.3       6 UNK         0.0297 
     41 CB         23.5747  -27.1851  -37.9223 C.3       6 UNK        -0.2006 
     42 C          24.0635  -29.2567  -39.3706 C.2       6 UNK         0.4892 
     43 O          24.5705  -29.7639  -38.3672 O.2       6 UNK        -0.5089 
     44 N          24.0117  -29.8515  -40.5678 N.am      7 UNK        -0.4243 
     45 CA         24.4479  -31.2196  -40.8482 C.3       7 UNK         0.0196 
     46 CB         24.6984  -31.3366  -42.3646 C.3       7 UNK        -0.2007 
     47 C          23.4164  -32.2600  -40.3655 C.2       7 UNK         0.5020 
     48 O          22.3954  -31.9059  -39.7715 O.2       7 UNK        -0.5147 
     49 N          23.6794  -33.5399  -40.6677 N.am      8 UNK        -0.4734 
     50 CA         22.7052  -34.6305  -40.5165 C.3       8 UNK         0.0238 
     51 CB         23.4084  -35.9822  -40.7215 C.3       8 UNK        -0.1912 
     52 C          21.5073  -34.4873  -41.4776 C.2       8 UNK         0.5038 
     53 O          20.3962  -34.8778  -41.1168 O.2       8 UNK        -0.5046 
     54 N          21.7676  -33.8909  -42.6505 N.am      9 UNK        -0.4200 
     55 CA         20.8113  -33.4887  -43.6928 C.3       9 UNK         0.0839 
     56 C          20.1437  -34.6691  -44.4525 C.2       9 UNK         0.5513 
     57 N          19.4840  -34.3704  -45.5624 N.am      9 UNK        -0.7519 
     58 O          20.2319  -35.8374  -44.0806 O.2       9 UNK        -0.4960 
     59 C59        19.7724  -32.4478  -43.1841 C.3       10 UNK        -0.0876 
     60 S60        20.5802  -30.9135  -42.6104 S.3       10 UNK        -0.2414 
     61 C61        19.5650  -30.4623  -41.1707 C.3       10 UNK         0.0169 
     62 H62        20.2692  -31.5011  -49.0437 H         1 UNK         0.0903 
     63 H63        19.0374  -32.7131  -48.6828 H         1 UNK         0.0903 
     64 H64        18.5675  -31.1505  -49.3555 H         1 UNK         0.0903 
     65 H65        17.7017  -29.7839  -47.8127 H         1 UNK         0.3096 
     66 H66        18.2044  -30.1560  -44.9399 H         1 UNK         0.1121 
     67 H67        16.4499  -28.1467  -44.9367 H         1 UNK         0.0849 
     68 H68        16.2006  -28.5662  -46.5934 H         1 UNK         0.0849 
     69 H69        14.1701  -29.3444  -43.3951 H         1 UNK         0.0865 
     70 H70        14.7018  -30.9376  -42.9327 H         1 UNK         0.0865 
     71 H71        17.2655  -31.2577  -42.4231 H         1 UNK         0.1346 
     72 H72        19.2268  -27.7762  -40.8543 H         1 UNK         0.1412 
     73 H73        15.3428  -27.4331  -42.6275 H         1 UNK         0.1426 
     74 H74        18.0278  -25.6542  -40.7409 H         1 UNK         0.0716 
     75 H75        16.3074  -25.6605  -41.0101 H         1 UNK         0.0716 
     76 H76        18.8772  -23.4691  -41.9372 H         1 UNK         0.0695 
     77 H77        19.1410  -23.4877  -43.6611 H         1 UNK         0.0695 
     78 H78        20.1634  -25.5762  -41.6601 H         1 UNK         0.0983 
     79 H79        19.8251  -25.9226  -44.4716 H         1 UNK         0.3095 
     80 H80        21.4805  -27.1373  -45.7802 H         1 UNK         0.0454 
     81 H81        22.7238  -29.4271  -44.1706 H         1 UNK         0.0851 
     82 H82        23.5913  -28.0920  -44.9134 H         1 UNK         0.0851 
     83 H83        22.7667  -29.2649  -45.9242 H         1 UNK         0.0851 
     84 H84        20.3931  -29.6818  -44.9114 H         1 UNK         0.2976 
     85 H85        21.0956  -23.7966  -40.5349 H         1 UNK         0.3116 
     86 H86        22.6848  -22.4798  -39.8253 H         1 UNK         0.0646 
     87 H87        22.2058  -20.9456  -41.7341 H         1 UNK         0.0847 
     88 H88        23.8977  -20.9053  -41.2657 H         1 UNK         0.0847 
     89 H89        23.4182  -21.7705  -42.7133 H         1 UNK         0.0847 
     90 H90        23.8150  -24.5636  -42.4676 H         1 UNK         0.3040 
     91 H91        26.4665  -25.0500  -41.4184 H         1 UNK         0.1015 
     92 H92        24.7079  -26.7221  -43.2978 H         1 UNK         0.0786 
     93 H93        26.4207  -26.9897  -43.0054 H         1 UNK         0.0786 
     94 H94        25.8895  -25.5116  -43.7927 H         1 UNK         0.0786 
     95 H95        23.3084  -26.6412  -41.0395 H         1 UNK         0.3172 
     96 H96        22.3888  -27.9634  -39.5266 H         1 UNK         0.0595 
     97 H97        24.6156  -27.0599  -37.6223 H         1 UNK         0.0839 
     98 H98        23.1015  -26.2033  -37.9060 H         1 UNK         0.0839 
     99 H99        23.0879  -27.7928  -37.1586 H         1 UNK         0.0839 
    100 H100       23.5423  -29.3647  -41.3184 H         1 UNK         0.2998 
    101 H101       25.3860  -31.4035  -40.3201 H         1 UNK         0.0822 
    102 H102       25.1695  -32.2854  -42.6224 H         1 UNK         0.0787 
    103 H103       23.7695  -31.2664  -42.9320 H         1 UNK         0.0787 
    104 H104       25.3645  -30.5490  -42.7183 H         1 UNK         0.0787 
    105 H105       24.5533  -33.7673  -41.1206 H         1 UNK         0.3055 
    106 H106       22.3120  -34.5973  -39.4977 H         1 UNK         0.1106 
    107 H107       24.2115  -36.1262  -39.9985 H         1 UNK         0.0828 
    108 H108       22.7071  -36.8079  -40.5927 H         1 UNK         0.0828 
    109 H109       23.8344  -36.0711  -41.7216 H         1 UNK         0.0828 
    110 H110       22.7259  -33.6393  -42.8350 H         1 UNK         0.2931 
    111 H111       21.4297  -32.9904  -44.4412 H         1 UNK         0.0412 
    112 H112       19.0434  -35.1039  -46.0948 H         1 UNK         0.3472 
    113 H113       19.4802  -33.4130  -45.9016 H         1 UNK         0.3472 
    114 H114       19.0677  -32.1765  -43.9694 H         1 UNK         0.0970 
    115 H115       19.1689  -32.8785  -42.3847 H         1 UNK         0.0970 
    116 H116       19.2360  -31.3562  -40.6394 H         1 UNK         0.0612 
    117 H117       20.1977  -29.9140  -40.4709 H         1 UNK         0.0612 
@<TRIPOS>BOND
     1    1    2 1    
     2    1   62 1    
     3    1   63 1    
     4    1   64 1    
     5    2    3 2    
     6    2    4 am   BACKBONE|DICT|INTERRES
     7    4    5 1    
     8    4   65 1    
     9    5    6 1    
    10    5   25 1    
    11    5   66 1    
    12    6    7 1    
    13    6   67 1    
    14    6   68 1    
    15    7    8 1    
    16    8    9 1    
    17    8   69 1    
    18    8   70 1    
    19    9   10 ar   
    20    9   14 ar   
    21   10   11 ar   
    22   10   71 1    
    23   11   12 ar   
    24   11   61 1    
    25   12   13 ar   
    26   12   72 1    
    27   13   14 ar   
    28   13   15 1    
    29   14   73 1    
    30   15   16 1    
    31   15   74 1    
    32   15   75 1    
    33   16   17 1    
    34   17   18 1    
    35   17   76 1    
    36   17   77 1    
    37   18   19 1    
    38   18   27 1    
    39   18   78 1    
    40   19   20 am   BACKBONE|DICT|INTERRES
    41   19   79 1    
    42   20   21 2    
    43   20   22 1    
    44   22   23 1    
    45   22   24 1    
    46   22   80 1    
    47   23   81 1    
    48   23   82 1    
    49   23   83 1    
    50   24   25 am   BACKBONE|DICT|INTERRES
    51   24   84 1    
    52   25   26 2    
    53   27   28 2    
    54   27   29 am   BACKBONE|DICT|INTERRES
    55   29   30 1    
    56   29   85 1    
    57   30   31 1    
    58   30   32 1    
    59   30   86 1    
    60   31   87 1    
    61   31   88 1    
    62   31   89 1    
    63   32   33 2    
    64   32   34 am   BACKBONE|DICT|INTERRES
    65   34   35 1    
    66   34   90 1    
    67   35   36 1    
    68   35   37 1    
    69   35   91 1    
    70   36   92 1    
    71   36   93 1    
    72   36   94 1    
    73   37   38 2    
    74   37   39 am   BACKBONE|DICT|INTERRES
    75   39   40 1    
    76   39   95 1    
    77   40   41 1    
    78   40   42 1    
    79   40   96 1    
    80   41   97 1    
    81   41   98 1    
    82   41   99 1    
    83   42   43 2    
    84   42   44 am   BACKBONE|DICT|INTERRES
    85   44   45 1    
    86   44  100 1    
    87   45   46 1    
    88   45   47 1    
    89   45  101 1    
    90   46  102 1    
    91   46  103 1    
    92   46  104 1    
    93   47   48 2    
    94   47   49 am   BACKBONE|DICT|INTERRES
    95   49   50 1    
    96   49  105 1    
    97   50   51 1    
    98   50   52 1    
    99   50  106 1    
   100   51  107 1    
   101   51  108 1    
   102   51  109 1    
   103   52   53 2    
   104   52   54 am   BACKBONE|DICT|INTERRES
   105   54   55 1    
   106   54  110 1    
   107   55   56 1    
   108   55   59 1    
   109   55  111 1    
   110   56   57 am   BACKBONE|DICT|INTERRES
   111   56   58 2    
   112   57  112 1    
   113   57  113 1    
   114   59   60 1    
   115   59  114 1    
   116   59  115 1    
   117   60   61 1    
   118   61  116 1    
   119   61  117 1    
@<TRIPOS>SUBSTRUCTURE
     1 UNK         1 GROUP             0       ****    0 ROOT    
