@<TRIPOS>MOLECULE
3R8
117   119    1
SMALL
USER_CHARGES


@<TRIPOS>ATOM
      1 CA         18.4094  -27.3410  -41.3264 C.3       0 UNK        -0.2013 
      2 C          17.5861  -26.7060  -42.4320 C.2       0 UNK         0.4866 
      3 O          17.1135  -25.5777  -42.2839 O.2       0 UNK        -0.5176 
      4 N          17.4292  -27.4107  -43.5590 N.am      1 UNK        -0.4884 
      5 CA         16.7164  -26.9484  -44.7583 C.3       1 UNK         0.0853 
      6 C6         16.1112  -28.1190  -45.5849 C.3       10 UNK        -0.0849 
      7 S7         15.2655  -29.3754  -44.5608 S.3       10 UNK        -0.2776 
      8 C8         16.3023  -30.8519  -44.8418 C.3       10 UNK         0.0316 
      9 C9         17.7640  -30.6406  -44.4590 C.ar      10 UNK        -0.0863 
     10 C10        18.1568  -30.6738  -43.1176 C.ar      10 UNK        -0.1009 
     11 C11        19.5055  -30.5244  -42.7608 C.ar      10 UNK        -0.0712 
     12 C12        20.4498  -30.3064  -43.7702 C.ar      10 UNK        -0.0894 
     13 C13        20.0726  -30.2709  -45.1148 C.ar      10 UNK        -0.0745 
     14 C14        18.7289  -30.4456  -45.4520 C.ar      10 UNK        -0.0972 
     15 C15        21.1174  -30.0938  -46.2096 C.3       10 UNK         0.0209 
     16 S16        21.2831  -28.3600  -46.7404 S.3       10 UNK        -0.2568 
     17 C17        22.3374  -27.6871  -45.4143 C.3       10 UNK        -0.0983 
     18 CA         22.7118  -26.1889  -45.6226 C.3       3 UNK         0.0876 
     19 N          21.5287  -25.3230  -45.7949 N.am      3 UNK        -0.4424 
     20 C          20.5672  -25.1099  -44.8839 C.2       2 UNK         0.4918 
     21 O          20.6154  -25.5514  -43.7329 O.2       2 UNK        -0.4875 
     22 CA         19.3626  -24.2358  -45.2852 C.3       2 UNK         0.0481 
     23 CB         19.3941  -23.6851  -46.7302 C.3       2 UNK        -0.1831 
     24 N          18.1306  -24.9661  -44.9796 N.am      2 UNK        -0.4498 
     25 C          17.6713  -26.0669  -45.5935 C.2       1 UNK         0.5027 
     26 O          18.0277  -26.4295  -46.7157 O.2       1 UNK        -0.4969 
     27 C          23.6687  -25.6991  -44.5054 C.2       3 UNK         0.5005 
     28 O          24.4717  -26.4872  -44.0016 O.2       3 UNK        -0.5279 
     29 N          23.5130  -24.4352  -44.0717 N.am      4 UNK        -0.4463 
     30 CA         24.1022  -23.8155  -42.8733 C.3       4 UNK         0.0283 
     31 CB         25.6194  -23.6105  -43.0682 C.3       4 UNK        -0.1875 
     32 C          23.7852  -24.5652  -41.5565 C.2       4 UNK         0.4949 
     33 O          24.4857  -24.3608  -40.5646 O.2       4 UNK        -0.5039 
     34 N          22.7714  -25.4493  -41.5830 N.am      5 UNK        -0.4663 
     35 CA         22.4473  -26.4763  -40.5838 C.3       5 UNK         0.0242 
     36 CB         21.8520  -25.8298  -39.3163 C.3       5 UNK        -0.1982 
     37 C          23.6195  -27.4370  -40.2721 C.2       5 UNK         0.5017 
     38 O          23.6623  -28.0098  -39.1827 O.2       5 UNK        -0.5012 
     39 N          24.5556  -27.6042  -41.2191 N.am      6 UNK        -0.4439 
     40 CA         25.8123  -28.3367  -41.0438 C.3       6 UNK         0.0297 
     41 CB         26.9046  -27.6496  -41.8853 C.3       6 UNK        -0.2006 
     42 C          25.6715  -29.8367  -41.3647 C.2       6 UNK         0.4892 
     43 O          26.4956  -30.3885  -42.0966 O.2       6 UNK        -0.5089 
     44 N          24.6390  -30.4770  -40.8075 N.am      7 UNK        -0.4243 
     45 CA         24.3565  -31.9056  -40.9225 C.3       7 UNK         0.0196 
     46 CB         23.7844  -32.2339  -42.3171 C.3       7 UNK        -0.2007 
     47 C          23.3776  -32.3085  -39.8138 C.2       7 UNK         0.5020 
     48 O          22.7800  -31.4411  -39.1739 O.2       7 UNK        -0.5147 
     49 N          23.2043  -33.6230  -39.6296 N.am      8 UNK        -0.4734 
     50 CA         22.2647  -34.2138  -38.6668 C.3       8 UNK         0.0238 
     51 CB         22.6959  -35.6625  -38.3793 C.3       8 UNK        -0.1912 
     52 C          20.7903  -34.1676  -39.1193 C.2       8 UNK         0.5038 
     53 O          19.9134  -34.4932  -38.3182 O.2       8 UNK        -0.5046 
     54 N          20.5507  -33.7909  -40.3835 N.am      9 UNK        -0.4200 
     55 CA         19.2404  -33.6988  -41.0531 C.3       9 UNK         0.0839 
     56 C          18.5941  -35.0802  -41.3810 C.2       9 UNK         0.5513 
     57 N          19.3259  -36.1868  -41.3209 N.am      9 UNK        -0.7519 
     58 O          17.4176  -35.1526  -41.7269 O.2       9 UNK        -0.4960 
     59 C59        18.2386  -32.7342  -40.3457 C.3       10 UNK        -0.0876 
     60 S60        18.7783  -31.0098  -40.0267 S.3       10 UNK        -0.2414 
     61 C61        20.0109  -30.6031  -41.3166 C.3       10 UNK         0.0169 
     62 H62        18.5717  -26.6389  -40.5090 H         1 UNK         0.0903 
     63 H63        17.9024  -28.2195  -40.9290 H         1 UNK         0.0903 
     64 H64        19.3826  -27.6383  -41.7134 H         1 UNK         0.0903 
     65 H65        17.8450  -28.3303  -43.6378 H         1 UNK         0.3096 
     66 H66        15.8836  -26.3146  -44.4446 H         1 UNK         0.1121 
     67 H67        15.3874  -27.7246  -46.3002 H         1 UNK         0.0849 
     68 H68        16.8701  -28.6124  -46.1911 H         1 UNK         0.0849 
     69 H69        15.8950  -31.6823  -44.2630 H         1 UNK         0.0865 
     70 H70        16.2202  -31.1492  -45.8886 H         1 UNK         0.0865 
     71 H71        17.3986  -30.8244  -42.3638 H         1 UNK         0.1346 
     72 H72        21.4909  -30.1758  -43.5113 H         1 UNK         0.1412 
     73 H73        18.4375  -30.4318  -46.4935 H         1 UNK         0.1426 
     74 H74        20.8386  -30.6953  -47.0762 H         1 UNK         0.0716 
     75 H75        22.0862  -30.4739  -45.8815 H         1 UNK         0.0716 
     76 H76        23.2374  -28.3035  -45.3710 H         1 UNK         0.0695 
     77 H77        21.8255  -27.8261  -44.4609 H         1 UNK         0.0695 
     78 H78        23.2832  -26.1152  -46.5491 H         1 UNK         0.0983 
     79 H79        21.4109  -24.9255  -46.7158 H         1 UNK         0.3095 
     80 H80        19.3744  -23.3776  -44.6122 H         1 UNK         0.0454 
     81 H81        19.4756  -24.4704  -47.4819 H         1 UNK         0.0851 
     82 H82        20.2369  -23.0075  -46.8713 H         1 UNK         0.0851 
     83 H83        18.4911  -23.1154  -46.9490 H         1 UNK         0.0851 
     84 H84        17.7879  -24.8281  -44.0330 H         1 UNK         0.2976 
     85 H85        22.8221  -23.8742  -44.5502 H         1 UNK         0.3116 
     86 H86        23.6416  -22.8312  -42.7787 H         1 UNK         0.0646 
     87 H87        26.1542  -24.5600  -43.1052 H         1 UNK         0.0847 
     88 H88        26.0467  -23.0299  -42.2498 H         1 UNK         0.0847 
     89 H89        25.8321  -23.0700  -43.9902 H         1 UNK         0.0847 
     90 H90        22.2168  -25.4955  -42.4326 H         1 UNK         0.3040 
     91 H91        21.6714  -27.0975  -41.0325 H         1 UNK         0.1015 
     92 H92        21.0118  -25.1800  -39.5610 H         1 UNK         0.0786 
     93 H93        22.5927  -25.2351  -38.7809 H         1 UNK         0.0786 
     94 H94        21.4814  -26.5881  -38.6253 H         1 UNK         0.0786 
     95 H95        24.4347  -27.1403  -42.1162 H         1 UNK         0.3172 
     96 H96        26.1206  -28.2672  -39.9985 H         1 UNK         0.0595 
     97 H97        26.6891  -27.7111  -42.9527 H         1 UNK         0.0839 
     98 H98        27.8779  -28.1138  -41.7209 H         1 UNK         0.0839 
     99 H99        27.0020  -26.5957  -41.6238 H         1 UNK         0.0839 
    100 H100       24.0301  -29.9754  -40.1666 H         1 UNK         0.2998 
    101 H101       25.2861  -32.4579  -40.7690 H         1 UNK         0.0822 
    102 H102       24.4778  -31.9566  -43.1111 H         1 UNK         0.0787 
    103 H103       23.5902  -33.3012  -42.4272 H         1 UNK         0.0787 
    104 H104       22.8477  -31.7108  -42.4990 H         1 UNK         0.0787 
    105 H105       23.7401  -34.2695  -40.1925 H         1 UNK         0.3055 
    106 H106       22.3246  -33.6484  -37.7337 H         1 UNK         0.1106 
    107 H107       22.0446  -36.1255  -37.6365 H         1 UNK         0.0828 
    108 H108       22.6585  -36.2825  -39.2757 H         1 UNK         0.0828 
    109 H109       23.7109  -35.7035  -37.9836 H         1 UNK         0.0828 
    110 H110       21.3489  -33.5746  -40.9598 H         1 UNK         0.2931 
    111 H111       19.4545  -33.2770  -42.0347 H         1 UNK         0.0412 
    112 H112       20.2949  -36.1471  -41.0501 H         1 UNK         0.3472 
    113 H113       18.8998  -37.0724  -41.5457 H         1 UNK         0.3472 
    114 H114       17.9265  -33.1586  -39.3906 H         1 UNK         0.0970 
    115 H115       17.3214  -32.6658  -40.9323 H         1 UNK         0.0970 
    116 H116       20.4492  -29.6400  -41.0546 H         1 UNK         0.0612 
    117 H117       20.8314  -31.3146  -41.2610 H         1 UNK         0.0612 
@<TRIPOS>BOND
     1    1    2 1    
     2    1   62 1    
     3    1   63 1    
     4    1   64 1    
     5    2    3 2    
     6    2    4 am   BACKBONE|DICT|INTERRES
     7    4    5 1    
     8    4   65 1    
     9    5    6 1    
    10    5   25 1    
    11    5   66 1    
    12    6    7 1    
    13    6   67 1    
    14    6   68 1    
    15    7    8 1    
    16    8    9 1    
    17    8   69 1    
    18    8   70 1    
    19    9   10 ar   
    20    9   14 ar   
    21   10   11 ar   
    22   10   71 1    
    23   11   12 ar   
    24   11   61 1    
    25   12   13 ar   
    26   12   72 1    
    27   13   14 ar   
    28   13   15 1    
    29   14   73 1    
    30   15   16 1    
    31   15   74 1    
    32   15   75 1    
    33   16   17 1    
    34   17   18 1    
    35   17   76 1    
    36   17   77 1    
    37   18   19 1    
    38   18   27 1    
    39   18   78 1    
    40   19   20 am   BACKBONE|DICT|INTERRES
    41   19   79 1    
    42   20   21 2    
    43   20   22 1    
    44   22   23 1    
    45   22   24 1    
    46   22   80 1    
    47   23   81 1    
    48   23   82 1    
    49   23   83 1    
    50   24   25 am   BACKBONE|DICT|INTERRES
    51   24   84 1    
    52   25   26 2    
    53   27   28 2    
    54   27   29 am   BACKBONE|DICT|INTERRES
    55   29   30 1    
    56   29   85 1    
    57   30   31 1    
    58   30   32 1    
    59   30   86 1    
    60   31   87 1    
    61   31   88 1    
    62   31   89 1    
    63   32   33 2    
    64   32   34 am   BACKBONE|DICT|INTERRES
    65   34   35 1    
    66   34   90 1    
    67   35   36 1    
    68   35   37 1    
    69   35   91 1    
    70   36   92 1    
    71   36   93 1    
    72   36   94 1    
    73   37   38 2    
    74   37   39 am   BACKBONE|DICT|INTERRES
    75   39   40 1    
    76   39   95 1    
    77   40   41 1    
    78   40   42 1    
    79   40   96 1    
    80   41   97 1    
    81   41   98 1    
    82   41   99 1    
    83   42   43 2    
    84   42   44 am   BACKBONE|DICT|INTERRES
    85   44   45 1    
    86   44  100 1    
    87   45   46 1    
    88   45   47 1    
    89   45  101 1    
    90   46  102 1    
    91   46  103 1    
    92   46  104 1    
    93   47   48 2    
    94   47   49 am   BACKBONE|DICT|INTERRES
    95   49   50 1    
    96   49  105 1    
    97   50   51 1    
    98   50   52 1    
    99   50  106 1    
   100   51  107 1    
   101   51  108 1    
   102   51  109 1    
   103   52   53 2    
   104   52   54 am   BACKBONE|DICT|INTERRES
   105   54   55 1    
   106   54  110 1    
   107   55   56 1    
   108   55   59 1    
   109   55  111 1    
   110   56   57 am   BACKBONE|DICT|INTERRES
   111   56   58 2    
   112   57  112 1    
   113   57  113 1    
   114   59   60 1    
   115   59  114 1    
   116   59  115 1    
   117   60   61 1    
   118   61  116 1    
   119   61  117 1    
@<TRIPOS>SUBSTRUCTURE
     1 UNK         1 GROUP             0       ****    0 ROOT    
