@<TRIPOS>MOLECULE
3R8
117   119    1
SMALL
USER_CHARGES


@<TRIPOS>ATOM
      1 CA         22.1091  -26.2629  -48.2235 C.3       0 UNK        -0.2013 
      2 C          20.8123  -26.7233  -47.5746 C.2       0 UNK         0.4866 
      3 O          20.0107  -27.4005  -48.2185 O.2       0 UNK        -0.5176 
      4 N          20.6005  -26.3627  -46.3050 N.am      1 UNK        -0.4884 
      5 CA         19.4289  -26.7272  -45.5148 C.3       1 UNK         0.0853 
      6 C6         18.3181  -25.6544  -45.6287 C.3       10 UNK        -0.0849 
      7 S7         16.7587  -26.0548  -44.7713 S.3       10 UNK        -0.2776 
      8 C8         16.2585  -27.6337  -45.5382 C.3       10 UNK         0.0316 
      9 C9         16.5810  -28.8177  -44.6350 C.ar      10 UNK        -0.0863 
     10 C10        17.4533  -29.8330  -45.0444 C.ar      10 UNK        -0.1009 
     11 C11        17.7305  -30.9244  -44.2104 C.ar      10 UNK        -0.0712 
     12 C12        17.1003  -30.9935  -42.9579 C.ar      10 UNK        -0.0894 
     13 C13        16.2175  -29.9906  -42.5439 C.ar      10 UNK        -0.0745 
     14 C14        15.9645  -28.9088  -43.3862 C.ar      10 UNK        -0.0972 
     15 C15        15.4938  -30.0928  -41.2092 C.3       10 UNK         0.0209 
     16 S16        16.5615  -29.6808  -39.7960 S.3       10 UNK        -0.2568 
     17 C17        16.8461  -27.8845  -39.9821 C.3       10 UNK        -0.0983 
     18 CA         18.3627  -27.5817  -39.9597 C.3       3 UNK         0.0876 
     19 N          19.0452  -28.0753  -41.1615 N.am      3 UNK        -0.4424 
     20 C          20.3670  -28.2693  -41.2195 C.2       2 UNK         0.4918 
     21 O          21.1118  -28.1165  -40.2538 O.2       2 UNK        -0.4875 
     22 CA         20.9851  -28.6407  -42.5727 C.3       2 UNK         0.0481 
     23 CB         21.2253  -30.1478  -42.6246 C.3       2 UNK        -0.1831 
     24 N          20.2342  -28.2255  -43.7610 N.am      2 UNK        -0.4498 
     25 C          19.9369  -26.9610  -44.0871 C.2       1 UNK         0.5027 
     26 O          20.1291  -25.9999  -43.3408 O.2       1 UNK        -0.4969 
     27 C          18.6914  -26.1007  -39.6431 C.2       3 UNK         0.5005 
     28 O          18.4127  -25.6583  -38.5270 O.2       3 UNK        -0.5279 
     29 N          19.3239  -25.3820  -40.5843 N.am      4 UNK        -0.4463 
     30 CA         19.9772  -24.0913  -40.3633 C.3       4 UNK         0.0283 
     31 CB         19.4143  -23.0607  -41.3563 C.3       4 UNK        -0.1875 
     32 C          21.5063  -24.2051  -40.5171 C.2       4 UNK         0.4949 
     33 O          22.2363  -23.6319  -39.7091 O.2       4 UNK        -0.5039 
     34 N          21.9677  -24.9134  -41.5581 N.am      5 UNK        -0.4663 
     35 CA         23.3683  -24.9477  -41.9971 C.3       5 UNK         0.0242 
     36 CB         23.3942  -25.2134  -43.5130 C.3       5 UNK        -0.1982 
     37 C          24.2704  -25.9626  -41.2685 C.2       5 UNK         0.5017 
     38 O          25.4873  -25.8896  -41.4465 O.2       5 UNK        -0.5012 
     39 N          23.6855  -26.8861  -40.4918 N.am      6 UNK        -0.4439 
     40 CA         24.3260  -28.0391  -39.8411 C.3       6 UNK         0.0297 
     41 CB         25.4371  -27.5963  -38.8606 C.3       6 UNK        -0.2006 
     42 C          24.7808  -29.1117  -40.8569 C.2       6 UNK         0.4892 
     43 O          24.2839  -29.1413  -41.9834 O.2       6 UNK        -0.5089 
     44 N          25.6812  -30.0062  -40.4225 N.am      7 UNK        -0.4243 
     45 CA         26.2590  -31.1366  -41.1702 C.3       7 UNK         0.0196 
     46 CB         26.9694  -30.6665  -42.4586 C.3       7 UNK        -0.2007 
     47 C          25.2928  -32.3144  -41.4248 C.2       7 UNK         0.5020 
     48 O          25.6100  -33.1846  -42.2371 O.2       7 UNK        -0.5147 
     49 N          24.1593  -32.3530  -40.7051 N.am      8 UNK        -0.4734 
     50 CA         23.2058  -33.4726  -40.5905 C.3       8 UNK         0.0238 
     51 CB         23.8189  -34.5836  -39.7112 C.3       8 UNK        -0.1912 
     52 C          22.6615  -34.0231  -41.9282 C.2       8 UNK         0.5038 
     53 O          22.4106  -35.2248  -42.0389 O.2       8 UNK        -0.5046 
     54 N          22.4957  -33.1326  -42.9138 N.am      9 UNK        -0.4200 
     55 CA         22.0564  -33.4195  -44.2922 C.3       9 UNK         0.0839 
     56 C          23.1090  -34.1871  -45.1500 C.2       9 UNK         0.5513 
     57 N          24.3672  -34.2847  -44.7348 N.am      9 UNK        -0.7519 
     58 O          22.7900  -34.6769  -46.2305 O.2       9 UNK        -0.4960 
     59 C59        20.6308  -34.0479  -44.3924 C.3       10 UNK        -0.0876 
     60 S60        19.3498  -33.1449  -43.4534 S.3       10 UNK        -0.2414 
     61 C61        18.6855  -32.0101  -44.7237 C.3       10 UNK         0.0169 
     62 H62        21.8934  -25.6483  -49.0971 H         1 UNK         0.0903 
     63 H63        22.7228  -25.6766  -47.5398 H         1 UNK         0.0903 
     64 H64        22.6921  -27.1242  -48.5485 H         1 UNK         0.0903 
     65 H65        21.2957  -25.8202  -45.8097 H         1 UNK         0.3096 
     66 H66        19.0372  -27.6722  -45.8894 H         1 UNK         0.1121 
     67 H67        18.6758  -24.6944  -45.2514 H         1 UNK         0.0849 
     68 H68        18.0794  -25.4862  -46.6801 H         1 UNK         0.0849 
     69 H69        15.1811  -27.6104  -45.7083 H         1 UNK         0.0865 
     70 H70        16.7142  -27.7428  -46.5236 H         1 UNK         0.0865 
     71 H71        17.9112  -29.7830  -46.0231 H         1 UNK         0.1346 
     72 H72        17.2753  -31.8316  -42.2987 H         1 UNK         0.1412 
     73 H73        15.2747  -28.1353  -43.0758 H         1 UNK         0.1426 
     74 H74        15.1247  -31.1114  -41.0810 H         1 UNK         0.0716 
     75 H75        14.6127  -29.4491  -41.1921 H         1 UNK         0.0716 
     76 H76        16.3369  -27.3901  -39.1527 H         1 UNK         0.0695 
     77 H77        16.3845  -27.5056  -40.8947 H         1 UNK         0.0695 
     78 H78        18.7781  -28.1310  -39.1108 H         1 UNK         0.0983 
     79 H79        18.4784  -28.2431  -41.9805 H         1 UNK         0.3095 
     80 H80        21.9526  -28.1407  -42.6286 H         1 UNK         0.0454 
     81 H81        20.2883  -30.6929  -42.5330 H         1 UNK         0.0851 
     82 H82        21.8667  -30.4659  -41.8020 H         1 UNK         0.0851 
     83 H83        21.7124  -30.4352  -43.5548 H         1 UNK         0.0851 
     84 H84        20.0401  -28.9528  -44.4332 H         1 UNK         0.2976 
     85 H85        19.4892  -25.8117  -41.4888 H         1 UNK         0.3116 
     86 H86        19.7774  -23.7288  -39.3528 H         1 UNK         0.0646 
     87 H87        19.8918  -22.0889  -41.2237 H         1 UNK         0.0847 
     88 H88        18.3435  -22.9181  -41.2111 H         1 UNK         0.0847 
     89 H89        19.5723  -23.3646  -42.3920 H         1 UNK         0.0847 
     90 H90        21.2937  -25.3259  -42.2001 H         1 UNK         0.3040 
     91 H91        23.8051  -23.9612  -41.8245 H         1 UNK         0.1015 
     92 H92        22.8018  -24.4769  -44.0561 H         1 UNK         0.0786 
     93 H93        23.0084  -26.2042  -43.7545 H         1 UNK         0.0786 
     94 H94        24.4118  -25.1591  -43.9026 H         1 UNK         0.0786 
     95 H95        22.6719  -26.8986  -40.4496 H         1 UNK         0.3172 
     96 H96        23.5426  -28.5083  -39.2449 H         1 UNK         0.0595 
     97 H97        25.7150  -28.4024  -38.1812 H         1 UNK         0.0839 
     98 H98        25.1057  -26.7638  -38.2398 H         1 UNK         0.0839 
     99 H99        26.3417  -27.2813  -39.3821 H         1 UNK         0.0839 
    100 H100       26.0167  -29.9050  -39.4743 H         1 UNK         0.2998 
    101 H101       27.0317  -31.5446  -40.5168 H         1 UNK         0.0822 
    102 H102       26.2601  -30.3371  -43.2182 H         1 UNK         0.0787 
    103 H103       27.6540  -29.8426  -42.2575 H         1 UNK         0.0787 
    104 H104       27.5572  -31.4735  -42.8978 H         1 UNK         0.0787 
    105 H105       23.9855  -31.5710  -40.0896 H         1 UNK         0.3055 
    106 H106       22.3344  -33.0811  -40.0627 H         1 UNK         0.1106 
    107 H107       24.6722  -35.0560  -40.1991 H         1 UNK         0.0828 
    108 H108       24.1560  -34.1915  -38.7518 H         1 UNK         0.0828 
    109 H109       23.0903  -35.3669  -39.4977 H         1 UNK         0.0828 
    110 H110       22.7809  -32.1820  -42.7348 H         1 UNK         0.2931 
    111 H111       21.9946  -32.4424  -44.7709 H         1 UNK         0.0412 
    112 H112       25.0359  -34.7743  -45.3077 H         1 UNK         0.3472 
    113 H113       24.6620  -33.8874  -43.8482 H         1 UNK         0.3472 
    114 H114       20.3140  -34.1110  -45.4349 H         1 UNK         0.0970 
    115 H115       20.6476  -35.0768  -44.0297 H         1 UNK         0.0970 
    116 H116       19.5295  -31.5312  -45.2222 H         1 UNK         0.0612 
    117 H117       18.1679  -32.6001  -45.4810 H         1 UNK         0.0612 
@<TRIPOS>BOND
     1    1    2 1    
     2    1   62 1    
     3    1   63 1    
     4    1   64 1    
     5    2    3 2    
     6    2    4 am   BACKBONE|DICT|INTERRES
     7    4    5 1    
     8    4   65 1    
     9    5    6 1    
    10    5   25 1    
    11    5   66 1    
    12    6    7 1    
    13    6   67 1    
    14    6   68 1    
    15    7    8 1    
    16    8    9 1    
    17    8   69 1    
    18    8   70 1    
    19    9   10 ar   
    20    9   14 ar   
    21   10   11 ar   
    22   10   71 1    
    23   11   12 ar   
    24   11   61 1    
    25   12   13 ar   
    26   12   72 1    
    27   13   14 ar   
    28   13   15 1    
    29   14   73 1    
    30   15   16 1    
    31   15   74 1    
    32   15   75 1    
    33   16   17 1    
    34   17   18 1    
    35   17   76 1    
    36   17   77 1    
    37   18   19 1    
    38   18   27 1    
    39   18   78 1    
    40   19   20 am   BACKBONE|DICT|INTERRES
    41   19   79 1    
    42   20   21 2    
    43   20   22 1    
    44   22   23 1    
    45   22   24 1    
    46   22   80 1    
    47   23   81 1    
    48   23   82 1    
    49   23   83 1    
    50   24   25 am   BACKBONE|DICT|INTERRES
    51   24   84 1    
    52   25   26 2    
    53   27   28 2    
    54   27   29 am   BACKBONE|DICT|INTERRES
    55   29   30 1    
    56   29   85 1    
    57   30   31 1    
    58   30   32 1    
    59   30   86 1    
    60   31   87 1    
    61   31   88 1    
    62   31   89 1    
    63   32   33 2    
    64   32   34 am   BACKBONE|DICT|INTERRES
    65   34   35 1    
    66   34   90 1    
    67   35   36 1    
    68   35   37 1    
    69   35   91 1    
    70   36   92 1    
    71   36   93 1    
    72   36   94 1    
    73   37   38 2    
    74   37   39 am   BACKBONE|DICT|INTERRES
    75   39   40 1    
    76   39   95 1    
    77   40   41 1    
    78   40   42 1    
    79   40   96 1    
    80   41   97 1    
    81   41   98 1    
    82   41   99 1    
    83   42   43 2    
    84   42   44 am   BACKBONE|DICT|INTERRES
    85   44   45 1    
    86   44  100 1    
    87   45   46 1    
    88   45   47 1    
    89   45  101 1    
    90   46  102 1    
    91   46  103 1    
    92   46  104 1    
    93   47   48 2    
    94   47   49 am   BACKBONE|DICT|INTERRES
    95   49   50 1    
    96   49  105 1    
    97   50   51 1    
    98   50   52 1    
    99   50  106 1    
   100   51  107 1    
   101   51  108 1    
   102   51  109 1    
   103   52   53 2    
   104   52   54 am   BACKBONE|DICT|INTERRES
   105   54   55 1    
   106   54  110 1    
   107   55   56 1    
   108   55   59 1    
   109   55  111 1    
   110   56   57 am   BACKBONE|DICT|INTERRES
   111   56   58 2    
   112   57  112 1    
   113   57  113 1    
   114   59   60 1    
   115   59  114 1    
   116   59  115 1    
   117   60   61 1    
   118   61  116 1    
   119   61  117 1    
@<TRIPOS>SUBSTRUCTURE
     1 UNK         1 GROUP             0       ****    0 ROOT    
