@<TRIPOS>MOLECULE
3R8
117   119    1
SMALL
USER_CHARGES


@<TRIPOS>ATOM
      1 CA         15.6426  -26.1374  -39.3181 C.3       0 UNK        -0.2013 
      2 C          15.8615  -25.9432  -40.8109 C.2       0 UNK         0.4866 
      3 O          16.2925  -24.8702  -41.2330 O.2       0 UNK        -0.5176 
      4 N          15.5684  -26.9737  -41.6144 N.am      1 UNK        -0.4884 
      5 CA         15.7376  -26.9745  -43.0743 C.3       1 UNK         0.0853 
      6 C6         14.8944  -28.0914  -43.7434 C.3       10 UNK        -0.0849 
      7 S7         15.3076  -29.7826  -43.1727 S.3       10 UNK        -0.2776 
      8 C8         15.5918  -30.6695  -44.7404 C.3       10 UNK         0.0316 
      9 C9         16.9871  -30.4516  -45.3169 C.ar      10 UNK        -0.0863 
     10 C10        18.0678  -31.1926  -44.8285 C.ar      10 UNK        -0.1009 
     11 C11        19.3388  -31.0668  -45.3974 C.ar      10 UNK        -0.0712 
     12 C12        19.5181  -30.2060  -46.4838 C.ar      10 UNK        -0.0894 
     13 C13        18.4505  -29.4519  -46.9812 C.ar      10 UNK        -0.0745 
     14 C14        17.1892  -29.5721  -46.3861 C.ar      10 UNK        -0.0972 
     15 C15        18.6410  -28.5597  -48.2028 C.3       10 UNK         0.0209 
     16 S16        19.1891  -26.8743  -47.7768 S.3       10 UNK        -0.2568 
     17 C17        20.9634  -27.1200  -47.4198 C.3       10 UNK        -0.0983 
     18 CA         21.3471  -26.7957  -45.9532 C.3       3 UNK         0.0876 
     19 N          20.5017  -27.5021  -44.9871 N.am      3 UNK        -0.4424 
     20 C          20.3175  -27.1316  -43.7157 C.2       2 UNK         0.4918 
     21 O          20.8133  -26.1258  -43.2052 O.2       2 UNK        -0.4875 
     22 CA         19.4358  -28.0677  -42.8737 C.3       2 UNK         0.0481 
     23 CB         20.1047  -28.3762  -41.5257 C.3       2 UNK        -0.1831 
     24 N          18.0699  -27.5989  -42.6376 N.am      2 UNK        -0.4498 
     25 C          17.2112  -27.0648  -43.5213 C.2       1 UNK         0.5027 
     26 O          17.5040  -26.6894  -44.6553 O.2       1 UNK        -0.4969 
     27 C          22.8467  -27.0830  -45.7227 C.2       3 UNK         0.5005 
     28 O          23.6861  -26.2922  -46.1572 O.2       3 UNK        -0.5279 
     29 N          23.1592  -28.2144  -45.0714 N.am      4 UNK        -0.4463 
     30 CA         24.5132  -28.6483  -44.7292 C.3       4 UNK         0.0283 
     31 CB         24.4588  -30.0985  -44.2194 C.3       4 UNK        -0.1875 
     32 C          25.1460  -27.7400  -43.6646 C.2       4 UNK         0.4949 
     33 O          24.4651  -27.3525  -42.7137 O.2       4 UNK        -0.5039 
     34 N          26.4512  -27.4712  -43.8051 N.am      5 UNK        -0.4663 
     35 CA         27.2391  -26.6370  -42.8858 C.3       5 UNK         0.0242 
     36 CB         28.6323  -26.3956  -43.4891 C.3       5 UNK        -0.1982 
     37 C          27.3610  -27.2144  -41.4629 C.2       5 UNK         0.5017 
     38 O          27.5316  -26.4512  -40.5122 O.2       5 UNK        -0.5012 
     39 N          27.2455  -28.5440  -41.3432 N.am      6 UNK        -0.4439 
     40 CA         27.1881  -29.2769  -40.0764 C.3       6 UNK         0.0297 
     41 CB         27.5274  -30.7530  -40.3451 C.3       6 UNK        -0.2006 
     42 C          25.8281  -29.1634  -39.3566 C.2       6 UNK         0.4892 
     43 O          25.7443  -29.5638  -38.1945 O.2       6 UNK        -0.5089 
     44 N          24.7993  -28.6437  -40.0471 N.am      7 UNK        -0.4243 
     45 CA         23.3996  -28.5478  -39.6233 C.3       7 UNK         0.0196 
     46 CB         23.2453  -27.5567  -38.4465 C.3       7 UNK        -0.2007 
     47 C          22.7865  -29.9421  -39.3705 C.2       7 UNK         0.5020 
     48 O          23.0850  -30.8756  -40.1170 O.2       7 UNK        -0.5147 
     49 N          21.9322  -30.0553  -38.3439 N.am      8 UNK        -0.4734 
     50 CA         21.3304  -31.2677  -37.7625 C.3       8 UNK         0.0238 
     51 CB         22.4231  -32.2140  -37.2257 C.3       8 UNK        -0.1912 
     52 C          20.3296  -32.0460  -38.6397 C.2       8 UNK         0.5038 
     53 O          19.4199  -32.6584  -38.0788 O.2       8 UNK        -0.5046 
     54 N          20.4968  -32.0339  -39.9671 N.am      9 UNK        -0.4200 
     55 CA         19.6717  -32.7867  -40.9278 C.3       9 UNK         0.0839 
     56 C          18.2066  -32.2942  -41.1193 C.2       9 UNK         0.5513 
     57 N          17.7978  -31.1639  -40.5577 N.am      9 UNK        -0.7519 
     58 O          17.4162  -32.9737  -41.7687 O.2       9 UNK        -0.4960 
     59 C59        20.4113  -33.0224  -42.2721 C.3       10 UNK        -0.0876 
     60 S60        20.9281  -31.5002  -43.1457 S.3       10 UNK        -0.2414 
     61 C61        20.5097  -31.8920  -44.8775 C.3       10 UNK         0.0169 
     62 H62        15.2586  -27.1310  -39.0873 H         1 UNK         0.0903 
     63 H63        16.5810  -26.0033  -38.7807 H         1 UNK         0.0903 
     64 H64        14.9286  -25.4035  -38.9453 H         1 UNK         0.0903 
     65 H65        15.2077  -27.8332  -41.2226 H         1 UNK         0.3096 
     66 H66        15.3664  -26.0171  -43.4481 H         1 UNK         0.1121 
     67 H67        14.9871  -28.0328  -44.8295 H         1 UNK         0.0849 
     68 H68        13.8370  -27.9199  -43.5366 H         1 UNK         0.0849 
     69 H69        15.4505  -31.7359  -44.5573 H         1 UNK         0.0865 
     70 H70        14.8251  -30.3920  -45.4654 H         1 UNK         0.0865 
     71 H71        17.9160  -31.8817  -44.0116 H         1 UNK         0.1346 
     72 H72        20.4880  -30.1405  -46.9564 H         1 UNK         0.1412 
     73 H73        16.3577  -29.0026  -46.7781 H         1 UNK         0.1426 
     74 H74        19.3497  -29.0131  -48.8976 H         1 UNK         0.0716 
     75 H75        17.6995  -28.4843  -48.7490 H         1 UNK         0.0716 
     76 H76        21.5209  -26.4715  -48.0984 H         1 UNK         0.0695 
     77 H77        21.2547  -28.1365  -47.6853 H         1 UNK         0.0695 
     78 H78        21.2017  -25.7238  -45.8009 H         1 UNK         0.0983 
     79 H79        19.9672  -28.2815  -45.3471 H         1 UNK         0.3095 
     80 H80        19.3359  -29.0110  -43.4097 H         1 UNK         0.0454 
     81 H81        20.2252  -27.4807  -40.9146 H         1 UNK         0.0851 
     82 H82        21.0929  -28.8036  -41.6907 H         1 UNK         0.0851 
     83 H83        19.5371  -29.1037  -40.9502 H         1 UNK         0.0851 
     84 H84        17.6790  -27.8357  -41.7386 H         1 UNK         0.2976 
     85 H85        22.4018  -28.7788  -44.7172 H         1 UNK         0.3116 
     86 H86        25.1198  -28.6160  -45.6368 H         1 UNK         0.0646 
     87 H87        24.0185  -30.7660  -44.9603 H         1 UNK         0.0847 
     88 H88        25.4586  -30.4757  -44.0013 H         1 UNK         0.0847 
     89 H89        23.8729  -30.1843  -43.3023 H         1 UNK         0.0847 
     90 H90        26.9383  -27.8362  -44.6121 H         1 UNK         0.3040 
     91 H91        26.7319  -25.6735  -42.7966 H         1 UNK         0.1015 
     92 H92        29.1815  -27.3281  -43.6257 H         1 UNK         0.0786 
     93 H93        29.2331  -25.7560  -42.8406 H         1 UNK         0.0786 
     94 H94        28.5657  -25.8985  -44.4571 H         1 UNK         0.0786 
     95 H95        27.1229  -29.0825  -42.1883 H         1 UNK         0.3172 
     96 H96        27.9475  -28.8687  -39.4061 H         1 UNK         0.0595 
     97 H97        26.7946  -31.2226  -41.0029 H         1 UNK         0.0839 
     98 H98        27.5423  -31.3254  -39.4164 H         1 UNK         0.0839 
     99 H99        28.5109  -30.8595  -40.8033 H         1 UNK         0.0839 
    100 H100       24.9682  -28.3325  -40.9975 H         1 UNK         0.2998 
    101 H101       22.8709  -28.1233  -40.4757 H         1 UNK         0.0822 
    102 H102       22.1972  -27.3228  -38.2567 H         1 UNK         0.0787 
    103 H103       23.6748  -27.9462  -37.5226 H         1 UNK         0.0787 
    104 H104       23.7422  -26.6114  -38.6662 H         1 UNK         0.0787 
    105 H105       21.7314  -29.2058  -37.8338 H         1 UNK         0.3055 
    106 H106       20.7567  -30.9191  -36.9018 H         1 UNK         0.1106 
    107 H107       21.9824  -33.0608  -36.6977 H         1 UNK         0.0828 
    108 H108       23.0404  -32.6195  -38.0280 H         1 UNK         0.0828 
    109 H109       23.0815  -31.7024  -36.5235 H         1 UNK         0.0828 
    110 H110       21.3063  -31.5472  -40.3403 H         1 UNK         0.2931 
    111 H111       19.5548  -33.7800  -40.4893 H         1 UNK         0.0412 
    112 H112       16.8434  -30.8713  -40.6934 H         1 UNK         0.3472 
    113 H113       18.4194  -30.6318  -39.9733 H         1 UNK         0.3472 
    114 H114       21.3119  -33.6095  -42.0864 H         1 UNK         0.0970 
    115 H115       19.7967  -33.6433  -42.9257 H         1 UNK         0.0970 
    116 H116       21.4000  -31.7093  -45.4809 H         1 UNK         0.0612 
    117 H117       20.2849  -32.9518  -44.9985 H         1 UNK         0.0612 
@<TRIPOS>BOND
     1    1    2 1    
     2    1   62 1    
     3    1   63 1    
     4    1   64 1    
     5    2    3 2    
     6    2    4 am   BACKBONE|DICT|INTERRES
     7    4    5 1    
     8    4   65 1    
     9    5    6 1    
    10    5   25 1    
    11    5   66 1    
    12    6    7 1    
    13    6   67 1    
    14    6   68 1    
    15    7    8 1    
    16    8    9 1    
    17    8   69 1    
    18    8   70 1    
    19    9   10 ar   
    20    9   14 ar   
    21   10   11 ar   
    22   10   71 1    
    23   11   12 ar   
    24   11   61 1    
    25   12   13 ar   
    26   12   72 1    
    27   13   14 ar   
    28   13   15 1    
    29   14   73 1    
    30   15   16 1    
    31   15   74 1    
    32   15   75 1    
    33   16   17 1    
    34   17   18 1    
    35   17   76 1    
    36   17   77 1    
    37   18   19 1    
    38   18   27 1    
    39   18   78 1    
    40   19   20 am   BACKBONE|DICT|INTERRES
    41   19   79 1    
    42   20   21 2    
    43   20   22 1    
    44   22   23 1    
    45   22   24 1    
    46   22   80 1    
    47   23   81 1    
    48   23   82 1    
    49   23   83 1    
    50   24   25 am   BACKBONE|DICT|INTERRES
    51   24   84 1    
    52   25   26 2    
    53   27   28 2    
    54   27   29 am   BACKBONE|DICT|INTERRES
    55   29   30 1    
    56   29   85 1    
    57   30   31 1    
    58   30   32 1    
    59   30   86 1    
    60   31   87 1    
    61   31   88 1    
    62   31   89 1    
    63   32   33 2    
    64   32   34 am   BACKBONE|DICT|INTERRES
    65   34   35 1    
    66   34   90 1    
    67   35   36 1    
    68   35   37 1    
    69   35   91 1    
    70   36   92 1    
    71   36   93 1    
    72   36   94 1    
    73   37   38 2    
    74   37   39 am   BACKBONE|DICT|INTERRES
    75   39   40 1    
    76   39   95 1    
    77   40   41 1    
    78   40   42 1    
    79   40   96 1    
    80   41   97 1    
    81   41   98 1    
    82   41   99 1    
    83   42   43 2    
    84   42   44 am   BACKBONE|DICT|INTERRES
    85   44   45 1    
    86   44  100 1    
    87   45   46 1    
    88   45   47 1    
    89   45  101 1    
    90   46  102 1    
    91   46  103 1    
    92   46  104 1    
    93   47   48 2    
    94   47   49 am   BACKBONE|DICT|INTERRES
    95   49   50 1    
    96   49  105 1    
    97   50   51 1    
    98   50   52 1    
    99   50  106 1    
   100   51  107 1    
   101   51  108 1    
   102   51  109 1    
   103   52   53 2    
   104   52   54 am   BACKBONE|DICT|INTERRES
   105   54   55 1    
   106   54  110 1    
   107   55   56 1    
   108   55   59 1    
   109   55  111 1    
   110   56   57 am   BACKBONE|DICT|INTERRES
   111   56   58 2    
   112   57  112 1    
   113   57  113 1    
   114   59   60 1    
   115   59  114 1    
   116   59  115 1    
   117   60   61 1    
   118   61  116 1    
   119   61  117 1    
@<TRIPOS>SUBSTRUCTURE
     1 UNK         1 GROUP             0       ****    0 ROOT    
