@<TRIPOS>MOLECULE
3R8
117   119    1
SMALL
USER_CHARGES


@<TRIPOS>ATOM
      1 CA         18.3486  -25.1541  -39.3186 C.3       0 UNK        -0.2013 
      2 C          18.0699  -24.6908  -40.7403 C.2       0 UNK         0.4866 
      3 O          17.6506  -23.5503  -40.9424 O.2       0 UNK        -0.5176 
      4 N          18.3000  -25.5656  -41.7255 N.am      1 UNK        -0.4884 
      5 CA         18.1927  -25.2548  -43.1542 C.3       1 UNK         0.0853 
      6 C6         17.9591  -26.5377  -43.9877 C.3       10 UNK        -0.0849 
      7 S7         16.2753  -27.2120  -43.7875 S.3       10 UNK        -0.2776 
      8 C8         16.6016  -28.8959  -43.1536 C.3       10 UNK         0.0316 
      9 C9         17.5146  -29.7769  -44.0126 C.ar      10 UNK        -0.0863 
     10 C10        18.0656  -30.9186  -43.4267 C.ar      10 UNK        -0.1009 
     11 C11        18.9673  -31.7292  -44.1255 C.ar      10 UNK        -0.0712 
     12 C12        19.3183  -31.3847  -45.4347 C.ar      10 UNK        -0.0894 
     13 C13        18.7587  -30.2597  -46.0491 C.ar      10 UNK        -0.0745 
     14 C14        17.8359  -29.4816  -45.3440 C.ar      10 UNK        -0.0972 
     15 C15        19.1534  -29.8827  -47.4736 C.3       10 UNK         0.0209 
     16 S16        19.7506  -28.1621  -47.6158 S.3       10 UNK        -0.2568 
     17 C17        21.1732  -28.1796  -46.4762 C.3       10 UNK        -0.0983 
     18 CA         21.9775  -26.8542  -46.4898 C.3       3 UNK         0.0876 
     19 N          21.1307  -25.7068  -46.1480 N.am      3 UNK        -0.4424 
     20 C          21.5006  -24.4179  -46.1527 C.2       2 UNK         0.4918 
     21 O          22.5933  -24.0222  -46.5611 O.2       2 UNK        -0.4875 
     22 CA         20.4791  -23.3859  -45.6274 C.3       2 UNK         0.0481 
     23 CB         19.9162  -22.5509  -46.7893 C.3       2 UNK        -0.1831 
     24 N          19.3625  -23.9839  -44.8852 N.am      2 UNK        -0.4498 
     25 C          19.4523  -24.5170  -43.6571 C.2       1 UNK         0.5027 
     26 O          20.4774  -24.4811  -42.9724 O.2       1 UNK        -0.4969 
     27 C          23.1691  -26.9706  -45.5174 C.2       3 UNK         0.5005 
     28 O          23.0321  -26.6262  -44.3413 O.2       3 UNK        -0.5279 
     29 N          24.2946  -27.5180  -45.9996 N.am      4 UNK        -0.4463 
     30 CA         25.5367  -27.7094  -45.2346 C.3       4 UNK         0.0283 
     31 CB         26.6204  -28.2814  -46.1630 C.3       4 UNK        -0.1875 
     32 C          25.3932  -28.5878  -43.9752 C.2       4 UNK         0.4949 
     33 O          26.1873  -28.4434  -43.0458 O.2       4 UNK        -0.5039 
     34 N          24.3793  -29.4635  -43.9583 N.am      5 UNK        -0.4663 
     35 CA         24.0044  -30.2876  -42.8085 C.3       5 UNK         0.0242 
     36 CB         23.1178  -31.4432  -43.2974 C.3       5 UNK        -0.1982 
     37 C          23.2910  -29.5061  -41.6878 C.2       5 UNK         0.5017 
     38 O          23.2379  -30.0134  -40.5670 O.2       5 UNK        -0.5012 
     39 N          22.7557  -28.3112  -41.9944 N.am      6 UNK        -0.4439 
     40 CA         21.9712  -27.4260  -41.1252 C.3       6 UNK         0.0297 
     41 CB         22.8624  -26.7920  -40.0344 C.3       6 UNK        -0.2006 
     42 C          20.7179  -28.1248  -40.5671 C.2       6 UNK         0.4892 
     43 O          19.6752  -28.1109  -41.2218 O.2       6 UNK        -0.5089 
     44 N          20.8495  -28.7174  -39.3764 N.am      7 UNK        -0.4243 
     45 CA         19.8765  -29.6095  -38.7485 C.3       7 UNK         0.0196 
     46 CB         18.8850  -28.7960  -37.8946 C.3       7 UNK        -0.2007 
     47 C          20.5916  -30.7163  -37.9484 C.2       7 UNK         0.5020 
     48 O          19.9903  -31.2986  -37.0457 O.2       7 UNK        -0.5147 
     49 N          21.8588  -30.9978  -38.2851 N.am      8 UNK        -0.4734 
     50 CA         22.7061  -32.0241  -37.6688 C.3       8 UNK         0.0238 
     51 CB         24.0115  -31.3638  -37.1865 C.3       8 UNK        -0.1912 
     52 C          22.9595  -33.1635  -38.6728 C.2       8 UNK         0.5038 
     53 O          24.0773  -33.6736  -38.7702 O.2       8 UNK        -0.5046 
     54 N          21.9116  -33.5037  -39.4293 N.am      9 UNK        -0.4200 
     55 CA         21.8897  -34.4769  -40.5268 C.3       9 UNK         0.0839 
     56 C          22.2272  -35.9219  -40.0712 C.2       9 UNK         0.5513 
     57 N          22.9205  -36.6877  -40.9024 N.am      9 UNK        -0.7519 
     58 O          21.8262  -36.3667  -38.9973 O.2       9 UNK        -0.4960 
     59 C59        20.5234  -34.4376  -41.2601 C.3       10 UNK        -0.0876 
     60 S60        20.0416  -32.7450  -41.7536 S.3       10 UNK        -0.2414 
     61 C61        19.5420  -32.9913  -43.4877 C.3       10 UNK         0.0169 
     62 H62        19.0937  -25.9477  -39.2964 H         1 UNK         0.0903 
     63 H63        18.7267  -24.3275  -38.7175 H         1 UNK         0.0903 
     64 H64        17.4340  -25.5231  -38.8556 H         1 UNK         0.0903 
     65 H65        18.6797  -26.4846  -41.5099 H         1 UNK         0.3096 
     66 H66        17.3452  -24.5813  -43.3038 H         1 UNK         0.1121 
     67 H67        18.0775  -26.3506  -45.0562 H         1 UNK         0.0849 
     68 H68        18.7074  -27.2912  -43.7330 H         1 UNK         0.0849 
     69 H69        17.0365  -28.7971  -42.1573 H         1 UNK         0.0865 
     70 H70        15.6468  -29.4069  -43.0240 H         1 UNK         0.0865 
     71 H71        17.7994  -31.1696  -42.4091 H         1 UNK         0.1346 
     72 H72        20.0211  -31.9997  -45.9800 H         1 UNK         0.1412 
     73 H73        17.4024  -28.6226  -45.8350 H         1 UNK         0.1426 
     74 H74        18.2873  -30.0095  -48.1243 H         1 UNK         0.0716 
     75 H75        19.9257  -30.5531  -47.8538 H         1 UNK         0.0716 
     76 H76        20.8043  -28.3916  -45.4699 H         1 UNK         0.0695 
     77 H77        21.8123  -29.0203  -46.7537 H         1 UNK         0.0695 
     78 H78        22.3687  -26.6843  -47.4952 H         1 UNK         0.0983 
     79 H79        20.2115  -25.9337  -45.8070 H         1 UNK         0.3095 
     80 H80        21.0144  -22.7129  -44.9545 H         1 UNK         0.0454 
     81 H81        20.7182  -22.0572  -47.3401 H         1 UNK         0.0851 
     82 H82        19.3653  -23.1668  -47.5012 H         1 UNK         0.0851 
     83 H83        19.2465  -21.7694  -46.4301 H         1 UNK         0.0851 
     84 H84        18.4801  -24.0345  -45.3754 H         1 UNK         0.2976 
     85 H85        24.3220  -27.7953  -46.9711 H         1 UNK         0.3116 
     86 H86        25.8634  -26.7231  -44.8984 H         1 UNK         0.0646 
     87 H87        27.5641  -28.4078  -45.6301 H         1 UNK         0.0847 
     88 H88        26.8154  -27.6177  -47.0054 H         1 UNK         0.0847 
     89 H89        26.3387  -29.2576  -46.5599 H         1 UNK         0.0847 
     90 H90        23.7899  -29.5242  -44.7751 H         1 UNK         0.3040 
     91 H91        24.9138  -30.7121  -42.3770 H         1 UNK         0.1015 
     92 H92        23.6184  -32.0375  -44.0619 H         1 UNK         0.0786 
     93 H93        22.1737  -31.0841  -43.7101 H         1 UNK         0.0786 
     94 H94        22.8778  -32.1156  -42.4740 H         1 UNK         0.0786 
     95 H95        22.8846  -27.9556  -42.9384 H         1 UNK         0.3172 
     96 H96        21.6129  -26.6166  -41.7624 H         1 UNK         0.0595 
     97 H97        23.6366  -26.1700  -40.4838 H         1 UNK         0.0839 
     98 H98        23.3630  -27.5352  -39.4133 H         1 UNK         0.0839 
     99 H99        22.2778  -26.1477  -39.3761 H         1 UNK         0.0839 
    100 H100       21.7512  -28.6659  -38.9225 H         1 UNK         0.2998 
    101 H101       19.3149  -30.1244  -39.5315 H         1 UNK         0.0822 
    102 H102       18.3199  -28.0957  -38.5086 H         1 UNK         0.0787 
    103 H103       18.1572  -29.4447  -37.4056 H         1 UNK         0.0787 
    104 H104       19.3964  -28.2289  -37.1163 H         1 UNK         0.0787 
    105 H105       22.2624  -30.5569  -39.1120 H         1 UNK         0.3055 
    106 H106       22.2089  -32.4686  -36.8038 H         1 UNK         0.1106 
    107 H107       24.5782  -30.9418  -38.0177 H         1 UNK         0.0828 
    108 H108       23.8102  -30.5616  -36.4766 H         1 UNK         0.0828 
    109 H109       24.6552  -32.0860  -36.6828 H         1 UNK         0.0828 
    110 H110       21.0432  -33.0154  -39.2719 H         1 UNK         0.2931 
    111 H111       22.6606  -34.1626  -41.2328 H         1 UNK         0.0412 
    112 H112       23.1354  -37.6353  -40.6324 H         1 UNK         0.3472 
    113 H113       23.2448  -36.3350  -41.7898 H         1 UNK         0.3472 
    114 H114       19.7329  -34.8385  -40.6223 H         1 UNK         0.0970 
    115 H115       20.5544  -35.0792  -42.1427 H         1 UNK         0.0970 
    116 H116       18.7885  -33.7784  -43.5348 H         1 UNK         0.0612 
    117 H117       20.4077  -33.3452  -44.0499 H         1 UNK         0.0612 
@<TRIPOS>BOND
     1    1    2 1    
     2    1   62 1    
     3    1   63 1    
     4    1   64 1    
     5    2    3 2    
     6    2    4 am   BACKBONE|DICT|INTERRES
     7    4    5 1    
     8    4   65 1    
     9    5    6 1    
    10    5   25 1    
    11    5   66 1    
    12    6    7 1    
    13    6   67 1    
    14    6   68 1    
    15    7    8 1    
    16    8    9 1    
    17    8   69 1    
    18    8   70 1    
    19    9   10 ar   
    20    9   14 ar   
    21   10   11 ar   
    22   10   71 1    
    23   11   12 ar   
    24   11   61 1    
    25   12   13 ar   
    26   12   72 1    
    27   13   14 ar   
    28   13   15 1    
    29   14   73 1    
    30   15   16 1    
    31   15   74 1    
    32   15   75 1    
    33   16   17 1    
    34   17   18 1    
    35   17   76 1    
    36   17   77 1    
    37   18   19 1    
    38   18   27 1    
    39   18   78 1    
    40   19   20 am   BACKBONE|DICT|INTERRES
    41   19   79 1    
    42   20   21 2    
    43   20   22 1    
    44   22   23 1    
    45   22   24 1    
    46   22   80 1    
    47   23   81 1    
    48   23   82 1    
    49   23   83 1    
    50   24   25 am   BACKBONE|DICT|INTERRES
    51   24   84 1    
    52   25   26 2    
    53   27   28 2    
    54   27   29 am   BACKBONE|DICT|INTERRES
    55   29   30 1    
    56   29   85 1    
    57   30   31 1    
    58   30   32 1    
    59   30   86 1    
    60   31   87 1    
    61   31   88 1    
    62   31   89 1    
    63   32   33 2    
    64   32   34 am   BACKBONE|DICT|INTERRES
    65   34   35 1    
    66   34   90 1    
    67   35   36 1    
    68   35   37 1    
    69   35   91 1    
    70   36   92 1    
    71   36   93 1    
    72   36   94 1    
    73   37   38 2    
    74   37   39 am   BACKBONE|DICT|INTERRES
    75   39   40 1    
    76   39   95 1    
    77   40   41 1    
    78   40   42 1    
    79   40   96 1    
    80   41   97 1    
    81   41   98 1    
    82   41   99 1    
    83   42   43 2    
    84   42   44 am   BACKBONE|DICT|INTERRES
    85   44   45 1    
    86   44  100 1    
    87   45   46 1    
    88   45   47 1    
    89   45  101 1    
    90   46  102 1    
    91   46  103 1    
    92   46  104 1    
    93   47   48 2    
    94   47   49 am   BACKBONE|DICT|INTERRES
    95   49   50 1    
    96   49  105 1    
    97   50   51 1    
    98   50   52 1    
    99   50  106 1    
   100   51  107 1    
   101   51  108 1    
   102   51  109 1    
   103   52   53 2    
   104   52   54 am   BACKBONE|DICT|INTERRES
   105   54   55 1    
   106   54  110 1    
   107   55   56 1    
   108   55   59 1    
   109   55  111 1    
   110   56   57 am   BACKBONE|DICT|INTERRES
   111   56   58 2    
   112   57  112 1    
   113   57  113 1    
   114   59   60 1    
   115   59  114 1    
   116   59  115 1    
   117   60   61 1    
   118   61  116 1    
   119   61  117 1    
@<TRIPOS>SUBSTRUCTURE
     1 UNK         1 GROUP             0       ****    0 ROOT    
