@<TRIPOS>MOLECULE
3R8
117   119    1
SMALL
USER_CHARGES


@<TRIPOS>ATOM
      1 CA         13.9676  -24.5939  -41.8273 C.3       0 UNK        -0.2013 
      2 C          14.8166  -25.1393  -42.9660 C.2       0 UNK         0.4866 
      3 O          14.4547  -24.9771  -44.1321 O.2       0 UNK        -0.5176 
      4 N          15.9375  -25.7934  -42.6382 N.am      1 UNK        -0.4884 
      5 CA         16.8975  -26.3424  -43.6013 C.3       1 UNK         0.0853 
      6 C6         17.8896  -27.3230  -42.9256 C.3       10 UNK        -0.0849 
      7 S7         17.0761  -28.8361  -42.3104 S.3       10 UNK        -0.2776 
      8 C8         16.9853  -29.8695  -43.8120 C.3       10 UNK         0.0316 
      9 C9         18.3582  -30.3111  -44.3009 C.ar      10 UNK        -0.0863 
     10 C10        19.0046  -31.3921  -43.6961 C.ar      10 UNK        -0.1009 
     11 C11        20.2606  -31.8155  -44.1443 C.ar      10 UNK        -0.0712 
     12 C12        20.8772  -31.1271  -45.1939 C.ar      10 UNK        -0.0894 
     13 C13        20.2572  -30.0210  -45.7834 C.ar      10 UNK        -0.0745 
     14 C14        18.9843  -29.6378  -45.3531 C.ar      10 UNK        -0.0972 
     15 C15        20.9722  -29.2113  -46.8579 C.3       10 UNK         0.0209 
     16 S16        22.5985  -28.5738  -46.3188 S.3       10 UNK        -0.2568 
     17 C17        22.2510  -27.7513  -44.7251 C.3       10 UNK        -0.0983 
     18 CA         22.0436  -26.2247  -44.8706 C.3       3 UNK         0.0876 
     19 N          20.7419  -25.9260  -45.4653 N.am      3 UNK        -0.4424 
     20 C          20.3753  -24.7465  -45.9821 C.2       2 UNK         0.4918 
     21 O          21.1405  -23.7938  -46.1342 O.2       2 UNK        -0.4875 
     22 CA         18.8977  -24.6082  -46.3967 C.3       2 UNK         0.0481 
     23 CB         18.7277  -24.9453  -47.8867 C.3       2 UNK        -0.1831 
     24 N          18.0072  -25.4605  -45.6001 N.am      2 UNK        -0.4498 
     25 C          17.6754  -25.2222  -44.3219 C.2       1 UNK         0.5027 
     26 O          17.9956  -24.2016  -43.7071 O.2       1 UNK        -0.4969 
     27 C          22.1714  -25.5384  -43.4950 C.2       3 UNK         0.5005 
     28 O          21.1777  -25.4243  -42.7729 O.2       3 UNK        -0.5279 
     29 N          23.4012  -25.1322  -43.1527 N.am      4 UNK        -0.4463 
     30 CA         23.7734  -24.5819  -41.8486 C.3       4 UNK         0.0283 
     31 CB         24.8465  -23.4913  -42.0492 C.3       4 UNK        -0.1875 
     32 C          24.2091  -25.7306  -40.9200 C.2       4 UNK         0.4949 
     33 O          23.3768  -26.5596  -40.5551 O.2       4 UNK        -0.5039 
     34 N          25.5037  -25.7994  -40.5757 N.am      5 UNK        -0.4663 
     35 CA         26.0940  -26.8289  -39.7066 C.3       5 UNK         0.0242 
     36 CB         27.5644  -26.4727  -39.4338 C.3       5 UNK        -0.1982 
     37 C          25.9811  -28.2672  -40.2509 C.2       5 UNK         0.5017 
     38 O          26.0327  -29.2151  -39.4673 O.2       5 UNK        -0.5012 
     39 N          25.8084  -28.4011  -41.5732 N.am      6 UNK        -0.4439 
     40 CA         25.5774  -29.6641  -42.2754 C.3       6 UNK         0.0297 
     41 CB         25.8975  -29.4769  -43.7687 C.3       6 UNK        -0.2006 
     42 C          24.1638  -30.2504  -42.0809 C.2       6 UNK         0.4892 
     43 O          23.9446  -31.3902  -42.4939 O.2       6 UNK        -0.5089 
     44 N          23.2324  -29.5098  -41.4555 N.am      7 UNK        -0.4243 
     45 CA         21.8607  -29.9459  -41.1586 C.3       7 UNK         0.0196 
     46 CB         20.9726  -28.7141  -40.9091 C.3       7 UNK        -0.2007 
     47 C          21.7838  -30.9747  -40.0049 C.2       7 UNK         0.5020 
     48 O          21.0320  -30.7834  -39.0489 O.2       7 UNK        -0.5147 
     49 N          22.5595  -32.0591  -40.1159 N.am      8 UNK        -0.4734 
     50 CA         22.6841  -33.1476  -39.1390 C.3       8 UNK         0.0238 
     51 CB         24.1727  -33.5257  -39.0280 C.3       8 UNK        -0.1912 
     52 C          21.8146  -34.3733  -39.4911 C.2       8 UNK         0.5038 
     53 O          22.0700  -35.4654  -38.9815 O.2       8 UNK        -0.5046 
     54 N          20.8169  -34.1810  -40.3623 N.am      9 UNK        -0.4200 
     55 CA         19.8849  -35.2074  -40.8579 C.3       9 UNK         0.0839 
     56 C          18.8508  -35.7004  -39.8021 C.2       9 UNK         0.5513 
     57 N          18.6736  -35.0266  -38.6717 N.am      9 UNK        -0.7519 
     58 O          18.1984  -36.7190  -40.0151 O.2       9 UNK        -0.4960 
     59 C59        19.1638  -34.7372  -42.1532 C.3       10 UNK        -0.0876 
     60 S60        20.2594  -34.5875  -43.6125 S.3       10 UNK        -0.2414 
     61 C61        21.0118  -32.9369  -43.4371 C.3       10 UNK         0.0169 
     62 H62        12.9672  -25.0242  -41.8656 H         1 UNK         0.0903 
     63 H63        14.3975  -24.8222  -40.8522 H         1 UNK         0.0903 
     64 H64        13.8767  -23.5114  -41.9127 H         1 UNK         0.0903 
     65 H65        16.1923  -25.8911  -41.6657 H         1 UNK         0.3096 
     66 H66        16.3267  -26.8875  -44.3561 H         1 UNK         0.1121 
     67 H67        18.3838  -26.8369  -42.0816 H         1 UNK         0.0849 
     68 H68        18.6986  -27.6064  -43.5980 H         1 UNK         0.0849 
     69 H69        16.3814  -30.7511  -43.5916 H         1 UNK         0.0865 
     70 H70        16.4505  -29.3329  -44.5967 H         1 UNK         0.0865 
     71 H71        18.5268  -31.8821  -42.8634 H         1 UNK         0.1346 
     72 H72        21.8655  -31.4186  -45.5228 H         1 UNK         0.1412 
     73 H73        18.4894  -28.7980  -45.8195 H         1 UNK         0.1426 
     74 H74        20.3608  -28.3685  -47.1832 H         1 UNK         0.0716 
     75 H75        21.1161  -29.8406  -47.7371 H         1 UNK         0.0716 
     76 H76        21.4016  -28.2155  -44.2227 H         1 UNK         0.0695 
     77 H77        23.1070  -27.9593  -44.0827 H         1 UNK         0.0695 
     78 H78        22.8181  -25.8204  -45.5268 H         1 UNK         0.0983 
     79 H79        20.0374  -26.6354  -45.3547 H         1 UNK         0.3095 
     80 H80        18.6050  -23.5665  -46.2484 H         1 UNK         0.0454 
     81 H81        19.3593  -24.3053  -48.5045 H         1 UNK         0.0851 
     82 H82        19.0012  -25.9784  -48.1048 H         1 UNK         0.0851 
     83 H83        17.6991  -24.7927  -48.2139 H         1 UNK         0.0851 
     84 H84        17.6601  -26.2939  -46.0524 H         1 UNK         0.2976 
     85 H85        24.1578  -25.2802  -43.8056 H         1 UNK         0.3116 
     86 H86        22.9051  -24.1093  -41.3843 H         1 UNK         0.0646 
     87 H87        25.1540  -23.0588  -41.0958 H         1 UNK         0.0847 
     88 H88        24.4565  -22.6719  -42.6534 H         1 UNK         0.0847 
     89 H89        25.7380  -23.8693  -42.5510 H         1 UNK         0.0847 
     90 H90        26.1293  -25.0826  -40.9152 H         1 UNK         0.3040 
     91 H91        25.5538  -26.8072  -38.7574 H         1 UNK         0.1015 
     92 H92        27.6553  -25.4977  -38.9543 H         1 UNK         0.0786 
     93 H93        28.1527  -26.4533  -40.3521 H         1 UNK         0.0786 
     94 H94        28.0262  -27.2023  -38.7667 H         1 UNK         0.0786 
     95 H95        25.7904  -27.5587  -42.1285 H         1 UNK         0.3172 
     96 H96        26.2766  -30.4027  -41.8775 H         1 UNK         0.0595 
     97 H97        26.9410  -29.1982  -43.9167 H         1 UNK         0.0839 
     98 H98        25.2788  -28.7076  -44.2291 H         1 UNK         0.0839 
     99 H99        25.7320  -30.4007  -44.3250 H         1 UNK         0.0839 
    100 H100       23.4839  -28.5861  -41.1200 H         1 UNK         0.2998 
    101 H101       21.4713  -30.4307  -42.0526 H         1 UNK         0.0822 
    102 H102       21.2714  -28.1768  -40.0085 H         1 UNK         0.0787 
    103 H103       21.0150  -28.0156  -41.7443 H         1 UNK         0.0787 
    104 H104       19.9280  -29.0035  -40.7869 H         1 UNK         0.0787 
    105 H105       23.1406  -32.1237  -40.9494 H         1 UNK         0.3055 
    106 H106       22.3517  -32.7989  -38.1587 H         1 UNK         0.1106 
    107 H107       24.5558  -33.9317  -39.9650 H         1 UNK         0.0828 
    108 H108       24.7821  -32.6609  -38.7640 H         1 UNK         0.0828 
    109 H109       24.3335  -34.2783  -38.2548 H         1 UNK         0.0828 
    110 H110       20.6690  -33.2438  -40.7001 H         1 UNK         0.2931 
    111 H111       20.4834  -36.0837  -41.1146 H         1 UNK         0.0412 
    112 H112       18.0029  -35.3613  -37.9975 H         1 UNK         0.3472 
    113 H113       19.2026  -34.1900  -38.4843 H         1 UNK         0.3472 
    114 H114       18.6290  -33.8075  -41.9719 H         1 UNK         0.0970 
    115 H115       18.3944  -35.4588  -42.4359 H         1 UNK         0.0970 
    116 H116       21.1088  -32.6783  -42.3897 H         1 UNK         0.0612 
    117 H117       22.0328  -33.0006  -43.8166 H         1 UNK         0.0612 
@<TRIPOS>BOND
     1    1    2 1    
     2    1   62 1    
     3    1   63 1    
     4    1   64 1    
     5    2    3 2    
     6    2    4 am   BACKBONE|DICT|INTERRES
     7    4    5 1    
     8    4   65 1    
     9    5    6 1    
    10    5   25 1    
    11    5   66 1    
    12    6    7 1    
    13    6   67 1    
    14    6   68 1    
    15    7    8 1    
    16    8    9 1    
    17    8   69 1    
    18    8   70 1    
    19    9   10 ar   
    20    9   14 ar   
    21   10   11 ar   
    22   10   71 1    
    23   11   12 ar   
    24   11   61 1    
    25   12   13 ar   
    26   12   72 1    
    27   13   14 ar   
    28   13   15 1    
    29   14   73 1    
    30   15   16 1    
    31   15   74 1    
    32   15   75 1    
    33   16   17 1    
    34   17   18 1    
    35   17   76 1    
    36   17   77 1    
    37   18   19 1    
    38   18   27 1    
    39   18   78 1    
    40   19   20 am   BACKBONE|DICT|INTERRES
    41   19   79 1    
    42   20   21 2    
    43   20   22 1    
    44   22   23 1    
    45   22   24 1    
    46   22   80 1    
    47   23   81 1    
    48   23   82 1    
    49   23   83 1    
    50   24   25 am   BACKBONE|DICT|INTERRES
    51   24   84 1    
    52   25   26 2    
    53   27   28 2    
    54   27   29 am   BACKBONE|DICT|INTERRES
    55   29   30 1    
    56   29   85 1    
    57   30   31 1    
    58   30   32 1    
    59   30   86 1    
    60   31   87 1    
    61   31   88 1    
    62   31   89 1    
    63   32   33 2    
    64   32   34 am   BACKBONE|DICT|INTERRES
    65   34   35 1    
    66   34   90 1    
    67   35   36 1    
    68   35   37 1    
    69   35   91 1    
    70   36   92 1    
    71   36   93 1    
    72   36   94 1    
    73   37   38 2    
    74   37   39 am   BACKBONE|DICT|INTERRES
    75   39   40 1    
    76   39   95 1    
    77   40   41 1    
    78   40   42 1    
    79   40   96 1    
    80   41   97 1    
    81   41   98 1    
    82   41   99 1    
    83   42   43 2    
    84   42   44 am   BACKBONE|DICT|INTERRES
    85   44   45 1    
    86   44  100 1    
    87   45   46 1    
    88   45   47 1    
    89   45  101 1    
    90   46  102 1    
    91   46  103 1    
    92   46  104 1    
    93   47   48 2    
    94   47   49 am   BACKBONE|DICT|INTERRES
    95   49   50 1    
    96   49  105 1    
    97   50   51 1    
    98   50   52 1    
    99   50  106 1    
   100   51  107 1    
   101   51  108 1    
   102   51  109 1    
   103   52   53 2    
   104   52   54 am   BACKBONE|DICT|INTERRES
   105   54   55 1    
   106   54  110 1    
   107   55   56 1    
   108   55   59 1    
   109   55  111 1    
   110   56   57 am   BACKBONE|DICT|INTERRES
   111   56   58 2    
   112   57  112 1    
   113   57  113 1    
   114   59   60 1    
   115   59  114 1    
   116   59  115 1    
   117   60   61 1    
   118   61  116 1    
   119   61  117 1    
@<TRIPOS>SUBSTRUCTURE
     1 UNK         1 GROUP             0       ****    0 ROOT    
