@<TRIPOS>MOLECULE
3R8
117   119    1
SMALL
USER_CHARGES


@<TRIPOS>ATOM
      1 CA         15.0798  -23.2042  -41.4968 C.3       0 UNK        -0.2013 
      2 C          15.4316  -23.9829  -42.7557 C.2       0 UNK         0.4866 
      3 O          15.0284  -23.5914  -43.8517 O.2       0 UNK        -0.5176 
      4 N          16.1721  -25.0875  -42.6065 N.am      1 UNK        -0.4884 
      5 CA         16.6823  -25.9145  -43.7043 C.3       1 UNK         0.0853 
      6 C6         17.0739  -27.3341  -43.2153 C.3       10 UNK        -0.0849 
      7 S7         18.2206  -27.3449  -41.7933 S.3       10 UNK        -0.2776 
      8 C8         18.1941  -29.1006  -41.3034 C.3       10 UNK         0.0316 
      9 C9         18.6561  -30.0292  -42.4194 C.ar      10 UNK        -0.0863 
     10 C10        17.8572  -31.1060  -42.8146 C.ar      10 UNK        -0.1009 
     11 C11        18.2682  -31.9564  -43.8456 C.ar      10 UNK        -0.0712 
     12 C12        19.4857  -31.7185  -44.4910 C.ar      10 UNK        -0.0894 
     13 C13        20.2927  -30.6447  -44.1029 C.ar      10 UNK        -0.0745 
     14 C14        19.8808  -29.8151  -43.0574 C.ar      10 UNK        -0.0972 
     15 C15        21.5978  -30.3593  -44.8251 C.3       10 UNK         0.0209 
     16 S16        21.3104  -29.1851  -46.1823 S.3       10 UNK        -0.2568 
     17 C17        22.5750  -27.8969  -45.8863 C.3       10 UNK        -0.0983 
     18 CA         22.0803  -26.6347  -45.1174 C.3       3 UNK         0.0876 
     19 N          20.7404  -26.2078  -45.5257 N.am      3 UNK        -0.4424 
     20 C          20.4548  -25.1602  -46.3043 C.2       2 UNK         0.4918 
     21 O          21.3009  -24.3833  -46.7477 O.2       2 UNK        -0.4875 
     22 CA         18.9720  -24.9348  -46.6590 C.3       2 UNK         0.0481 
     23 CB         18.6911  -25.4311  -48.0866 C.3       2 UNK        -0.1831 
     24 N          18.0104  -25.5580  -45.7390 N.am      2 UNK        -0.4498 
     25 C          17.8340  -25.2076  -44.4564 C.2       1 UNK         0.5027 
     26 O          18.5398  -24.3769  -43.8775 O.2       1 UNK        -0.4969 
     27 C          22.1673  -26.7327  -43.5812 C.2       3 UNK         0.5005 
     28 O          22.8473  -27.6127  -43.0543 O.2       3 UNK        -0.5279 
     29 N          21.5093  -25.7991  -42.8746 N.am      4 UNK        -0.4463 
     30 CA         21.4657  -25.6998  -41.4068 C.3       4 UNK         0.0283 
     31 CB         20.5513  -24.5286  -41.0093 C.3       4 UNK        -0.1875 
     32 C          22.8331  -25.5571  -40.7079 C.2       4 UNK         0.4949 
     33 O          22.9270  -25.8368  -39.5129 O.2       4 UNK        -0.5039 
     34 N          23.8628  -25.1272  -41.4497 N.am      5 UNK        -0.4663 
     35 CA         25.2513  -25.0536  -40.9889 C.3       5 UNK         0.0242 
     36 CB         26.0346  -24.1176  -41.9244 C.3       5 UNK        -0.1982 
     37 C          25.9461  -26.4275  -40.8977 C.2       5 UNK         0.5017 
     38 O          26.9747  -26.5258  -40.2264 O.2       5 UNK        -0.5012 
     39 N          25.4041  -27.4491  -41.5766 N.am      6 UNK        -0.4439 
     40 CA         25.9064  -28.8240  -41.5591 C.3       6 UNK         0.0297 
     41 CB         25.5564  -29.4921  -42.9029 C.3       6 UNK        -0.2006 
     42 C          25.3255  -29.6179  -40.3739 C.2       6 UNK         0.4892 
     43 O          24.5122  -29.0996  -39.6061 O.2       6 UNK        -0.5089 
     44 N          25.7362  -30.8892  -40.2665 N.am      7 UNK        -0.4243 
     45 CA         25.2562  -31.8525  -39.2660 C.3       7 UNK         0.0196 
     46 CB         26.2035  -33.0647  -39.2544 C.3       7 UNK        -0.2007 
     47 C          23.7944  -32.3104  -39.4668 C.2       7 UNK         0.5020 
     48 O          23.2486  -32.9523  -38.5685 O.2       7 UNK        -0.5147 
     49 N          23.2038  -31.9729  -40.6235 N.am      8 UNK        -0.4734 
     50 CA         21.8539  -32.2967  -41.1040 C.3       8 UNK         0.0238 
     51 CB         20.7675  -31.8611  -40.0963 C.3       8 UNK        -0.1912 
     52 C          21.6921  -33.7659  -41.5330 C.2       8 UNK         0.5038 
     53 O          22.5828  -34.5901  -41.3098 O.2       8 UNK        -0.5046 
     54 N          20.5617  -34.0539  -42.1888 N.am      9 UNK        -0.4200 
     55 CA         20.1783  -35.3942  -42.6491 C.3       9 UNK         0.0839 
     56 C          19.8370  -36.3731  -41.4890 C.2       9 UNK         0.5513 
     57 N          19.9332  -37.6734  -41.7326 N.am      9 UNK        -0.7519 
     58 O          19.4639  -35.9737  -40.3874 O.2       9 UNK        -0.4960 
     59 C59        19.0591  -35.3284  -43.7227 C.3       10 UNK        -0.0876 
     60 S60        17.5089  -34.5368  -43.1599 S.3       10 UNK        -0.2414 
     61 C61        17.3728  -33.1073  -44.2789 C.3       10 UNK         0.0169 
     62 H62        15.4907  -23.6701  -40.6012 H         1 UNK         0.0903 
     63 H63        15.4729  -22.1900  -41.5618 H         1 UNK         0.0903 
     64 H64        13.9978  -23.1443  -41.3821 H         1 UNK         0.0903 
     65 H65        16.5092  -25.3483  -41.6902 H         1 UNK         0.3096 
     66 H66        15.8665  -26.0330  -44.4216 H         1 UNK         0.1121 
     67 H67        16.1707  -27.8706  -42.9200 H         1 UNK         0.0849 
     68 H68        17.5088  -27.9203  -44.0273 H         1 UNK         0.0849 
     69 H69        18.8467  -29.2348  -40.4399 H         1 UNK         0.0865 
     70 H70        17.1871  -29.3584  -40.9717 H         1 UNK         0.0865 
     71 H71        16.9095  -31.2840  -42.3245 H         1 UNK         0.1346 
     72 H72        19.7992  -32.3578  -45.3049 H         1 UNK         0.1412 
     73 H73        20.5035  -28.9857  -42.7525 H         1 UNK         0.1426 
     74 H74        22.0216  -31.2796  -45.2296 H         1 UNK         0.0716 
     75 H75        22.3320  -29.9682  -44.1213 H         1 UNK         0.0716 
     76 H76        23.4623  -28.3368  -45.4274 H         1 UNK         0.0695 
     77 H77        22.9080  -27.5779  -46.8750 H         1 UNK         0.0695 
     78 H78        22.7908  -25.8398  -45.3547 H         1 UNK         0.0983 
     79 H79        19.9817  -26.7970  -45.2147 H         1 UNK         0.3095 
     80 H80        18.7970  -23.8572  -46.6357 H         1 UNK         0.0454 
     81 H81        19.3645  -24.9601  -48.8042 H         1 UNK         0.0851 
     82 H82        18.8280  -26.5099  -48.1733 H         1 UNK         0.0851 
     83 H83        17.6741  -25.1934  -48.3989 H         1 UNK         0.0851 
     84 H84        17.4008  -26.2567  -46.1405 H         1 UNK         0.2976 
     85 H85        20.9540  -25.1225  -43.3822 H         1 UNK         0.3116 
     86 H86        21.0216  -26.6250  -41.0349 H         1 UNK         0.0646 
     87 H87        20.4758  -24.4406  -39.9246 H         1 UNK         0.0847 
     88 H88        19.5388  -24.6644  -41.3878 H         1 UNK         0.0847 
     89 H89        20.9260  -23.5774  -41.3890 H         1 UNK         0.0847 
     90 H90        23.6894  -24.9016  -42.4179 H         1 UNK         0.3040 
     91 H91        25.2598  -24.6211  -39.9857 H         1 UNK         0.1015 
     92 H92        25.5972  -23.1191  -41.9451 H         1 UNK         0.0786 
     93 H93        26.0598  -24.4965  -42.9469 H         1 UNK         0.0786 
     94 H94        27.0681  -24.0089  -41.5921 H         1 UNK         0.0786 
     95 H95        24.5104  -27.3120  -42.0412 H         1 UNK         0.3172 
     96 H96        26.9936  -28.8083  -41.4568 H         1 UNK         0.0595 
     97 H97        26.0521  -30.4571  -43.0115 H         1 UNK         0.0839 
     98 H98        25.8725  -28.8775  -43.7461 H         1 UNK         0.0839 
     99 H99        24.4848  -29.6639  -43.0020 H         1 UNK         0.0839 
    100 H100       26.4127  -31.2364  -40.9316 H         1 UNK         0.2998 
    101 H101       25.3064  -31.3713  -38.2868 H         1 UNK         0.0822 
    102 H102       26.1987  -33.5885  -40.2112 H         1 UNK         0.0787 
    103 H103       27.2294  -32.7671  -39.0366 H         1 UNK         0.0787 
    104 H104       25.9086  -33.7843  -38.4892 H         1 UNK         0.0787 
    105 H105       23.7780  -31.4671  -41.2814 H         1 UNK         0.3055 
    106 H106       21.7278  -31.7009  -42.0066 H         1 UNK         0.1106 
    107 H107       20.7730  -32.4766  -39.1967 H         1 UNK         0.0828 
    108 H108       20.9015  -30.8221  -39.7953 H         1 UNK         0.0828 
    109 H109       19.7703  -31.9438  -40.5286 H         1 UNK         0.0828 
    110 H110       19.8648  -33.3346  -42.3197 H         1 UNK         0.2931 
    111 H111       21.0593  -35.8072  -43.1454 H         1 UNK         0.0412 
    112 H112       19.7066  -38.3270  -40.9987 H         1 UNK         0.3472 
    113 H113       20.2355  -38.0165  -42.6314 H         1 UNK         0.3472 
    114 H114       18.8161  -36.3314  -44.0778 H         1 UNK         0.0970 
    115 H115       19.4369  -34.8032  -44.6006 H         1 UNK         0.0970 
    116 H116       17.5950  -33.4133  -45.3024 H         1 UNK         0.0612 
    117 H117       16.3350  -32.7706  -44.2851 H         1 UNK         0.0612 
@<TRIPOS>BOND
     1    1    2 1    
     2    1   62 1    
     3    1   63 1    
     4    1   64 1    
     5    2    3 2    
     6    2    4 am   BACKBONE|DICT|INTERRES
     7    4    5 1    
     8    4   65 1    
     9    5    6 1    
    10    5   25 1    
    11    5   66 1    
    12    6    7 1    
    13    6   67 1    
    14    6   68 1    
    15    7    8 1    
    16    8    9 1    
    17    8   69 1    
    18    8   70 1    
    19    9   10 ar   
    20    9   14 ar   
    21   10   11 ar   
    22   10   71 1    
    23   11   12 ar   
    24   11   61 1    
    25   12   13 ar   
    26   12   72 1    
    27   13   14 ar   
    28   13   15 1    
    29   14   73 1    
    30   15   16 1    
    31   15   74 1    
    32   15   75 1    
    33   16   17 1    
    34   17   18 1    
    35   17   76 1    
    36   17   77 1    
    37   18   19 1    
    38   18   27 1    
    39   18   78 1    
    40   19   20 am   BACKBONE|DICT|INTERRES
    41   19   79 1    
    42   20   21 2    
    43   20   22 1    
    44   22   23 1    
    45   22   24 1    
    46   22   80 1    
    47   23   81 1    
    48   23   82 1    
    49   23   83 1    
    50   24   25 am   BACKBONE|DICT|INTERRES
    51   24   84 1    
    52   25   26 2    
    53   27   28 2    
    54   27   29 am   BACKBONE|DICT|INTERRES
    55   29   30 1    
    56   29   85 1    
    57   30   31 1    
    58   30   32 1    
    59   30   86 1    
    60   31   87 1    
    61   31   88 1    
    62   31   89 1    
    63   32   33 2    
    64   32   34 am   BACKBONE|DICT|INTERRES
    65   34   35 1    
    66   34   90 1    
    67   35   36 1    
    68   35   37 1    
    69   35   91 1    
    70   36   92 1    
    71   36   93 1    
    72   36   94 1    
    73   37   38 2    
    74   37   39 am   BACKBONE|DICT|INTERRES
    75   39   40 1    
    76   39   95 1    
    77   40   41 1    
    78   40   42 1    
    79   40   96 1    
    80   41   97 1    
    81   41   98 1    
    82   41   99 1    
    83   42   43 2    
    84   42   44 am   BACKBONE|DICT|INTERRES
    85   44   45 1    
    86   44  100 1    
    87   45   46 1    
    88   45   47 1    
    89   45  101 1    
    90   46  102 1    
    91   46  103 1    
    92   46  104 1    
    93   47   48 2    
    94   47   49 am   BACKBONE|DICT|INTERRES
    95   49   50 1    
    96   49  105 1    
    97   50   51 1    
    98   50   52 1    
    99   50  106 1    
   100   51  107 1    
   101   51  108 1    
   102   51  109 1    
   103   52   53 2    
   104   52   54 am   BACKBONE|DICT|INTERRES
   105   54   55 1    
   106   54  110 1    
   107   55   56 1    
   108   55   59 1    
   109   55  111 1    
   110   56   57 am   BACKBONE|DICT|INTERRES
   111   56   58 2    
   112   57  112 1    
   113   57  113 1    
   114   59   60 1    
   115   59  114 1    
   116   59  115 1    
   117   60   61 1    
   118   61  116 1    
   119   61  117 1    
@<TRIPOS>SUBSTRUCTURE
     1 UNK         1 GROUP             0       ****    0 ROOT    
