@<TRIPOS>MOLECULE
3R8
117   119    1
SMALL
USER_CHARGES


@<TRIPOS>ATOM
      1 CA         17.6054  -21.7170  -48.3990 C.3       0 UNK        -0.2013 
      2 C          18.5352  -22.5788  -47.5578 C.2       0 UNK         0.4866 
      3 O          19.6779  -22.1892  -47.3138 O.2       0 UNK        -0.5176 
      4 N          18.0594  -23.7511  -47.1208 N.am      1 UNK        -0.4884 
      5 CA         18.7964  -24.6835  -46.2630 C.3       1 UNK         0.0853 
      6 C6         18.0795  -26.0512  -46.1508 C.3       10 UNK        -0.0849 
      7 S7         18.0417  -26.9966  -47.7077 S.3       10 UNK        -0.2776 
      8 C8         19.0759  -28.4466  -47.2767 C.3       10 UNK         0.0316 
      9 C9         18.5683  -29.3413  -46.1372 C.ar      10 UNK        -0.0863 
     10 C10        19.4130  -30.3536  -45.6687 C.ar      10 UNK        -0.1009 
     11 C11        19.0125  -31.2073  -44.6361 C.ar      10 UNK        -0.0712 
     12 C12        17.7561  -31.0356  -44.0506 C.ar      10 UNK        -0.0894 
     13 C13        16.9010  -30.0241  -44.4973 C.ar      10 UNK        -0.0745 
     14 C14        17.3028  -29.1967  -45.5500 C.ar      10 UNK        -0.0972 
     15 C15        15.5403  -29.8241  -43.8446 C.3       10 UNK         0.0209 
     16 S16        15.6847  -29.2860  -42.1100 S.3       10 UNK        -0.2568 
     17 C17        16.4709  -27.6407  -42.2606 C.3       10 UNK        -0.0983 
     18 CA         18.0179  -27.6501  -42.1393 C.3       3 UNK         0.0876 
     19 N          18.5744  -26.3048  -42.3288 N.am      3 UNK        -0.4424 
     20 C          19.8791  -25.9936  -42.3280 C.2       2 UNK         0.4918 
     21 O          20.7793  -26.8062  -42.1146 O.2       2 UNK        -0.4875 
     22 CA         20.2341  -24.5591  -42.7513 C.3       2 UNK         0.0481 
     23 CB         21.6742  -24.1657  -42.3728 C.3       2 UNK        -0.1831 
     24 N          20.0866  -24.5116  -44.2037 N.am      2 UNK        -0.4498 
     25 C          18.9711  -24.1299  -44.8364 C.2       1 UNK         0.5027 
     26 O          18.0545  -23.5009  -44.3010 O.2       1 UNK        -0.4969 
     27 C          18.5173  -28.2960  -40.8291 C.2       3 UNK         0.5005 
     28 O          18.4921  -27.6487  -39.7797 O.2       3 UNK        -0.5279 
     29 N          19.0108  -29.5370  -40.9431 N.am      4 UNK        -0.4463 
     30 CA         19.6436  -30.3794  -39.9200 C.3       4 UNK         0.0283 
     31 CB         18.7143  -30.6162  -38.7143 C.3       4 UNK        -0.1875 
     32 C          21.0398  -29.9110  -39.4652 C.2       4 UNK         0.4949 
     33 O          21.8466  -30.7542  -39.0731 O.2       4 UNK        -0.5039 
     34 N          21.3129  -28.6023  -39.5205 N.am      5 UNK        -0.4663 
     35 CA         22.5938  -27.9983  -39.1561 C.3       5 UNK         0.0242 
     36 CB         22.3792  -26.5128  -38.8280 C.3       5 UNK        -0.1982 
     37 C          23.6610  -28.1630  -40.2486 C.2       5 UNK         0.5017 
     38 O          24.8260  -28.3741  -39.9099 O.2       5 UNK        -0.5012 
     39 N          23.2525  -28.0624  -41.5234 N.am      6 UNK        -0.4439 
     40 CA         24.0869  -28.1697  -42.7260 C.3       6 UNK         0.0297 
     41 CB         23.1942  -28.0313  -43.9725 C.3       6 UNK        -0.2006 
     42 C          24.8897  -29.4806  -42.7685 C.2       6 UNK         0.4892 
     43 O          24.3202  -30.5326  -43.0556 O.2       6 UNK        -0.5089 
     44 N          26.1821  -29.3954  -42.4183 N.am      7 UNK        -0.4243 
     45 CA         27.1232  -30.5122  -42.2415 C.3       7 UNK         0.0196 
     46 CB         27.4541  -31.1618  -43.6025 C.3       7 UNK        -0.2007 
     47 C          26.6662  -31.5475  -41.1881 C.2       7 UNK         0.5020 
     48 O          27.0670  -32.7098  -41.2660 O.2       7 UNK        -0.5147 
     49 N          25.8328  -31.1073  -40.2310 N.am      8 UNK        -0.4734 
     50 CA         25.1608  -31.8996  -39.1947 C.3       8 UNK         0.0238 
     51 CB         26.1792  -32.3890  -38.1428 C.3       8 UNK        -0.1912 
     52 C          24.2890  -33.0376  -39.7687 C.2       8 UNK         0.5038 
     53 O          24.3116  -34.1491  -39.2350 O.2       8 UNK        -0.5046 
     54 N          23.5509  -32.7512  -40.8525 N.am      9 UNK        -0.4200 
     55 CA         22.6624  -33.7062  -41.5347 C.3       9 UNK         0.0839 
     56 C          21.4309  -34.2027  -40.7196 C.2       9 UNK         0.5513 
     57 N          21.0729  -33.5811  -39.6031 N.am      9 UNK        -0.7519 
     58 O          20.8009  -35.1851  -41.1031 O.2       9 UNK        -0.4960 
     59 C59        22.2806  -33.2257  -42.9593 C.3       10 UNK        -0.0876 
     60 S60        21.1949  -31.7530  -43.0173 S.3       10 UNK        -0.2414 
     61 C61        19.9271  -32.3345  -44.1828 C.3       10 UNK         0.0169 
     62 H62        16.6341  -22.1888  -48.5469 H         1 UNK         0.0903 
     63 H63        17.4444  -20.7549  -47.9133 H         1 UNK         0.0903 
     64 H64        18.0462  -21.5349  -49.3787 H         1 UNK         0.0903 
     65 H65        17.1123  -24.0206  -47.3458 H         1 UNK         0.3096 
     66 H66        19.7858  -24.8346  -46.7014 H         1 UNK         0.1121 
     67 H67        17.0503  -25.9166  -45.8112 H         1 UNK         0.0849 
     68 H68        18.5601  -26.6688  -45.3893 H         1 UNK         0.0849 
     69 H69        19.1836  -29.0611  -48.1716 H         1 UNK         0.0865 
     70 H70        20.0773  -28.0897  -47.0300 H         1 UNK         0.0865 
     71 H71        20.3892  -30.4869  -46.1156 H         1 UNK         0.1346 
     72 H72        17.4399  -31.6887  -43.2482 H         1 UNK         0.1412 
     73 H73        16.6207  -28.4354  -45.8985 H         1 UNK         0.1426 
     74 H74        14.9892  -30.7649  -43.8765 H         1 UNK         0.0716 
     75 H75        14.9397  -29.0990  -44.3962 H         1 UNK         0.0716 
     76 H76        16.0421  -26.9986  -41.4890 H         1 UNK         0.0695 
     77 H77        16.1746  -27.2002  -43.2140 H         1 UNK         0.0695 
     78 H78        18.4113  -28.2418  -42.9679 H         1 UNK         0.0983 
     79 H79        17.9080  -25.5671  -42.5061 H         1 UNK         0.3095 
     80 H80        19.5485  -23.8658  -42.2597 H         1 UNK         0.0454 
     81 H81        22.4148  -24.8375  -42.8082 H         1 UNK         0.0851 
     82 H82        21.8105  -24.1860  -41.2916 H         1 UNK         0.0851 
     83 H83        21.9063  -23.1546  -42.7072 H         1 UNK         0.0851 
     84 H84        20.7754  -25.0378  -44.7232 H         1 UNK         0.2976 
     85 H85        19.0141  -29.9468  -41.8678 H         1 UNK         0.3116 
     86 H86        19.7865  -31.3431  -40.4073 H         1 UNK         0.0646 
     87 H87        18.5510  -29.7057  -38.1375 H         1 UNK         0.0847 
     88 H88        19.1437  -31.3535  -38.0349 H         1 UNK         0.0847 
     89 H89        17.7420  -30.9939  -39.0305 H         1 UNK         0.0847 
     90 H90        20.5758  -27.9787  -39.8293 H         1 UNK         0.3040 
     91 H91        22.9666  -28.4935  -38.2564 H         1 UNK         0.1015 
     92 H92        21.9715  -25.9672  -39.6788 H         1 UNK         0.0786 
     93 H93        23.3190  -26.0332  -38.5504 H         1 UNK         0.0786 
     94 H94        21.6921  -26.3881  -37.9908 H         1 UNK         0.0786 
     95 H95        22.2740  -27.8342  -41.6850 H         1 UNK         0.3172 
     96 H96        24.7864  -27.3317  -42.7189 H         1 UNK         0.0595 
     97 H97        23.7752  -28.1570  -44.8870 H         1 UNK         0.0839 
     98 H98        22.7263  -27.0487  -44.0204 H         1 UNK         0.0839 
     99 H99        22.4009  -28.7807  -43.9845 H         1 UNK         0.0839 
    100 H100       26.5350  -28.4866  -42.1497 H         1 UNK         0.2998 
    101 H101       28.0438  -30.0761  -41.8508 H         1 UNK         0.0822 
    102 H102       28.2577  -31.8926  -43.5042 H         1 UNK         0.0787 
    103 H103       26.5920  -31.6818  -44.0217 H         1 UNK         0.0787 
    104 H104       27.7828  -30.4179  -44.3282 H         1 UNK         0.0787 
    105 H105       25.5727  -30.1237  -40.2526 H         1 UNK         0.3055 
    106 H106       24.4711  -31.2207  -38.6908 H         1 UNK         0.1106 
    107 H107       25.6745  -32.8734  -37.3059 H         1 UNK         0.0828 
    108 H108       26.8794  -33.1119  -38.5624 H         1 UNK         0.0828 
    109 H109       26.7568  -31.5600  -37.7341 H         1 UNK         0.0828 
    110 H110       23.5994  -31.8254  -41.2582 H         1 UNK         0.2931 
    111 H111       23.2699  -34.6015  -41.6816 H         1 UNK         0.0412 
    112 H112       20.2871  -33.9253  -39.0758 H         1 UNK         0.3472 
    113 H113       21.5552  -32.7383  -39.3122 H         1 UNK         0.3472 
    114 H114       21.8120  -34.0476  -43.5035 H         1 UNK         0.0970 
    115 H115       23.1866  -32.9931  -43.5212 H         1 UNK         0.0970 
    116 H116       20.4127  -32.7740  -45.0555 H         1 UNK         0.0612 
    117 H117       19.3500  -33.1334  -43.7143 H         1 UNK         0.0612 
@<TRIPOS>BOND
     1    1    2 1    
     2    1   62 1    
     3    1   63 1    
     4    1   64 1    
     5    2    3 2    
     6    2    4 am   BACKBONE|DICT|INTERRES
     7    4    5 1    
     8    4   65 1    
     9    5    6 1    
    10    5   25 1    
    11    5   66 1    
    12    6    7 1    
    13    6   67 1    
    14    6   68 1    
    15    7    8 1    
    16    8    9 1    
    17    8   69 1    
    18    8   70 1    
    19    9   10 ar   
    20    9   14 ar   
    21   10   11 ar   
    22   10   71 1    
    23   11   12 ar   
    24   11   61 1    
    25   12   13 ar   
    26   12   72 1    
    27   13   14 ar   
    28   13   15 1    
    29   14   73 1    
    30   15   16 1    
    31   15   74 1    
    32   15   75 1    
    33   16   17 1    
    34   17   18 1    
    35   17   76 1    
    36   17   77 1    
    37   18   19 1    
    38   18   27 1    
    39   18   78 1    
    40   19   20 am   BACKBONE|DICT|INTERRES
    41   19   79 1    
    42   20   21 2    
    43   20   22 1    
    44   22   23 1    
    45   22   24 1    
    46   22   80 1    
    47   23   81 1    
    48   23   82 1    
    49   23   83 1    
    50   24   25 am   BACKBONE|DICT|INTERRES
    51   24   84 1    
    52   25   26 2    
    53   27   28 2    
    54   27   29 am   BACKBONE|DICT|INTERRES
    55   29   30 1    
    56   29   85 1    
    57   30   31 1    
    58   30   32 1    
    59   30   86 1    
    60   31   87 1    
    61   31   88 1    
    62   31   89 1    
    63   32   33 2    
    64   32   34 am   BACKBONE|DICT|INTERRES
    65   34   35 1    
    66   34   90 1    
    67   35   36 1    
    68   35   37 1    
    69   35   91 1    
    70   36   92 1    
    71   36   93 1    
    72   36   94 1    
    73   37   38 2    
    74   37   39 am   BACKBONE|DICT|INTERRES
    75   39   40 1    
    76   39   95 1    
    77   40   41 1    
    78   40   42 1    
    79   40   96 1    
    80   41   97 1    
    81   41   98 1    
    82   41   99 1    
    83   42   43 2    
    84   42   44 am   BACKBONE|DICT|INTERRES
    85   44   45 1    
    86   44  100 1    
    87   45   46 1    
    88   45   47 1    
    89   45  101 1    
    90   46  102 1    
    91   46  103 1    
    92   46  104 1    
    93   47   48 2    
    94   47   49 am   BACKBONE|DICT|INTERRES
    95   49   50 1    
    96   49  105 1    
    97   50   51 1    
    98   50   52 1    
    99   50  106 1    
   100   51  107 1    
   101   51  108 1    
   102   51  109 1    
   103   52   53 2    
   104   52   54 am   BACKBONE|DICT|INTERRES
   105   54   55 1    
   106   54  110 1    
   107   55   56 1    
   108   55   59 1    
   109   55  111 1    
   110   56   57 am   BACKBONE|DICT|INTERRES
   111   56   58 2    
   112   57  112 1    
   113   57  113 1    
   114   59   60 1    
   115   59  114 1    
   116   59  115 1    
   117   60   61 1    
   118   61  116 1    
   119   61  117 1    
@<TRIPOS>SUBSTRUCTURE
     1 UNK         1 GROUP             0       ****    0 ROOT    
