@<TRIPOS>MOLECULE
3R8
117   119    1
SMALL
USER_CHARGES


@<TRIPOS>ATOM
      1 CA         21.2367  -25.3784  -39.9150 C.3       0 UNK        -0.2013 
      2 C          20.3620  -25.9638  -41.0126 C.2       0 UNK         0.4866 
      3 O          20.8874  -26.5315  -41.9698 O.2       0 UNK        -0.5176 
      4 N          19.0343  -25.8210  -40.8880 N.am      1 UNK        -0.4884 
      5 CA         18.0305  -26.2595  -41.8699 C.3       1 UNK         0.0853 
      6 C6         18.0330  -27.8067  -42.0361 C.3       10 UNK        -0.0849 
      7 S7         16.4893  -28.5001  -42.7248 S.3       10 UNK        -0.2776 
      8 C8         16.9546  -30.2474  -42.9773 C.3       10 UNK         0.0316 
      9 C9         18.2444  -30.4096  -43.7745 C.ar      10 UNK        -0.0863 
     10 C10        19.3318  -31.0819  -43.2110 C.ar      10 UNK        -0.1009 
     11 C11        20.5281  -31.2170  -43.9180 C.ar      10 UNK        -0.0712 
     12 C12        20.6317  -30.6822  -45.2038 C.ar      10 UNK        -0.0894 
     13 C13        19.5608  -29.9831  -45.7746 C.ar      10 UNK        -0.0745 
     14 C14        18.3636  -29.8705  -45.0594 C.ar      10 UNK        -0.0972 
     15 C15        19.6575  -29.3486  -47.1608 C.3       10 UNK         0.0209 
     16 S16        21.3181  -28.7528  -47.6433 S.3       10 UNK        -0.2568 
     17 C17        21.8304  -27.6667  -46.2662 C.3       10 UNK        -0.0983 
     18 CA         21.2402  -26.2393  -46.3728 C.3       3 UNK         0.0876 
     19 N          19.8466  -26.2116  -45.9204 N.am      3 UNK        -0.4424 
     20 C          18.9440  -25.2902  -46.2789 C.2       2 UNK         0.4918 
     21 O          19.1698  -24.3838  -47.0806 O.2       2 UNK        -0.4875 
     22 CA         17.5549  -25.3876  -45.6215 C.3       2 UNK         0.0481 
     23 CB         16.5870  -26.1698  -46.5232 C.3       2 UNK        -0.1831 
     24 N          17.5708  -25.9948  -44.2855 N.am      2 UNK        -0.4498 
     25 C          18.1546  -25.4683  -43.2005 C.2       1 UNK         0.5027 
     26 O          18.7595  -24.3928  -43.2258 O.2       1 UNK        -0.4969 
     27 C          22.1232  -25.2286  -45.6076 C.2       3 UNK         0.5005 
     28 O          23.2047  -24.9025  -46.0999 O.2       3 UNK        -0.5279 
     29 N          21.6695  -24.7633  -44.4312 N.am      4 UNK        -0.4463 
     30 CA         22.3808  -23.8901  -43.4888 C.3       4 UNK         0.0283 
     31 CB         22.5948  -22.4841  -44.0885 C.3       4 UNK        -0.1875 
     32 C          23.6811  -24.5251  -42.9511 C.2       4 UNK         0.4949 
     33 O          24.6717  -23.8208  -42.7478 O.2       4 UNK        -0.5039 
     34 N          23.6559  -25.8452  -42.7301 N.am      5 UNK        -0.4663 
     35 CA         24.7771  -26.6551  -42.2638 C.3       5 UNK         0.0242 
     36 CB         25.7995  -26.8600  -43.3983 C.3       5 UNK        -0.1982 
     37 C          24.2485  -28.0074  -41.7747 C.2       5 UNK         0.5017 
     38 O          23.3019  -28.5383  -42.3595 O.2       5 UNK        -0.5012 
     39 N          24.8876  -28.5487  -40.7284 N.am      6 UNK        -0.4439 
     40 CA         24.6613  -29.8481  -40.0741 C.3       6 UNK         0.0297 
     41 CB         24.9100  -31.0190  -41.0435 C.3       6 UNK        -0.2006 
     42 C          23.3091  -30.0102  -39.3535 C.2       6 UNK         0.4892 
     43 O          23.2932  -30.5641  -38.2541 O.2       6 UNK        -0.5089 
     44 N          22.2130  -29.5476  -39.9704 N.am      7 UNK        -0.4243 
     45 CA         20.8131  -29.5331  -39.5149 C.3       7 UNK         0.0196 
     46 CB         20.6538  -28.7076  -38.2236 C.3       7 UNK        -0.2007 
     47 C          20.1506  -30.9135  -39.3454 C.2       7 UNK         0.5020 
     48 O          18.9828  -31.0634  -39.7021 O.2       7 UNK        -0.5147 
     49 N          20.8866  -31.8881  -38.8060 N.am      8 UNK        -0.4734 
     50 CA         20.4452  -33.2541  -38.5329 C.3       8 UNK         0.0238 
     51 CB         20.2452  -33.4263  -37.0151 C.3       8 UNK        -0.1912 
     52 C          21.4651  -34.2389  -39.1217 C.2       8 UNK         0.5038 
     53 O          22.0371  -35.0536  -38.3952 O.2       8 UNK        -0.5046 
     54 N          21.6905  -34.1222  -40.4352 N.am      9 UNK        -0.4200 
     55 CA         22.5869  -34.9818  -41.2252 C.3       9 UNK         0.0839 
     56 C          22.0640  -36.4268  -41.4835 C.2       9 UNK         0.5513 
     57 N          20.8091  -36.7473  -41.1905 N.am      9 UNK        -0.7519 
     58 O          22.8198  -37.2771  -41.9471 O.2       9 UNK        -0.4960 
     59 C59        23.0390  -34.2816  -42.5353 C.3       10 UNK        -0.0876 
     60 S60        21.6513  -33.7114  -43.5792 S.3       10 UNK        -0.2414 
     61 C61        21.7149  -31.9196  -43.2828 C.3       10 UNK         0.0169 
     62 H62        20.6905  -25.2723  -38.9780 H         1 UNK         0.0903 
     63 H63        21.6053  -24.3970  -40.2105 H         1 UNK         0.0903 
     64 H64        22.0975  -26.0224  -39.7359 H         1 UNK         0.0903 
     65 H65        18.6670  -25.3079  -40.0983 H         1 UNK         0.3096 
     66 H66        17.0662  -25.9709  -41.4484 H         1 UNK         0.1121 
     67 H67        18.8887  -28.1170  -42.6373 H         1 UNK         0.0849 
     68 H68        18.1691  -28.2779  -41.0618 H         1 UNK         0.0849 
     69 H69        16.1454  -30.7602  -43.4988 H         1 UNK         0.0865 
     70 H70        17.0420  -30.7265  -42.0004 H         1 UNK         0.0865 
     71 H71        19.2504  -31.5001  -42.2184 H         1 UNK         0.1346 
     72 H72        21.5587  -30.7941  -45.7485 H         1 UNK         0.1412 
     73 H73        17.5224  -29.3485  -45.4943 H         1 UNK         0.1426 
     74 H74        19.3324  -30.0852  -47.8964 H         1 UNK         0.0716 
     75 H75        18.9619  -28.5131  -47.2428 H         1 UNK         0.0716 
     76 H76        22.9213  -27.6389  -46.3101 H         1 UNK         0.0695 
     77 H77        21.5945  -28.1173  -45.3010 H         1 UNK         0.0695 
     78 H78        21.2707  -25.9316  -47.4207 H         1 UNK         0.0983 
     79 H79        19.5743  -26.9253  -45.2609 H         1 UNK         0.3095 
     80 H80        17.1721  -24.3703  -45.5172 H         1 UNK         0.0454 
     81 H81        15.5755  -26.1666  -46.1167 H         1 UNK         0.0851 
     82 H82        16.8951  -27.2079  -46.6475 H         1 UNK         0.0851 
     83 H83        16.5347  -25.7249  -47.5179 H         1 UNK         0.0851 
     84 H84        17.0781  -26.8726  -44.1697 H         1 UNK         0.2976 
     85 H85        20.7669  -25.0877  -44.1060 H         1 UNK         0.3116 
     86 H86        21.7196  -23.7754  -42.6299 H         1 UNK         0.0646 
     87 H87        21.6582  -22.0617  -44.4522 H         1 UNK         0.0847 
     88 H88        22.9898  -21.7967  -43.3397 H         1 UNK         0.0847 
     89 H89        23.3019  -22.4990  -44.9183 H         1 UNK         0.0847 
     90 H90        22.7758  -26.3476  -42.8271 H         1 UNK         0.3040 
     91 H91        25.2556  -26.1373  -41.4296 H         1 UNK         0.1015 
     92 H92        25.3409  -27.3332  -44.2678 H         1 UNK         0.0786 
     93 H93        26.6235  -27.4973  -43.0747 H         1 UNK         0.0786 
     94 H94        26.2333  -25.9146  -43.7240 H         1 UNK         0.0786 
     95 H95        25.6370  -28.0070  -40.3190 H         1 UNK         0.3172 
     96 H96        25.4250  -29.9114  -39.2970 H         1 UNK         0.0595 
     97 H97        24.2137  -31.0094  -41.8809 H         1 UNK         0.0839 
     98 H98        24.7962  -31.9773  -40.5347 H         1 UNK         0.0839 
     99 H99        25.9205  -30.9874  -41.4507 H         1 UNK         0.0839 
    100 H100       22.3676  -29.1506  -40.8964 H         1 UNK         0.2998 
    101 H101       20.2672  -29.0205  -40.3073 H         1 UNK         0.0822 
    102 H102       21.1122  -29.2022  -37.3665 H         1 UNK         0.0787 
    103 H103       21.1075  -27.7231  -38.3167 H         1 UNK         0.0787 
    104 H104       19.5995  -28.5597  -37.9860 H         1 UNK         0.0787 
    105 H105       21.8394  -31.6518  -38.5332 H         1 UNK         0.3055 
    106 H106       19.4915  -33.4547  -39.0265 H         1 UNK         0.1106 
    107 H107       19.4907  -32.7369  -36.6358 H         1 UNK         0.0828 
    108 H108       19.9099  -34.4363  -36.7758 H         1 UNK         0.0828 
    109 H109       21.1690  -33.2473  -36.4634 H         1 UNK         0.0828 
    110 H110       21.1663  -33.4385  -40.9598 H         1 UNK         0.2931 
    111 H111       23.4901  -35.1164  -40.6266 H         1 UNK         0.0412 
    112 H112       20.1774  -36.0581  -40.8170 H         1 UNK         0.3472 
    113 H113       20.4882  -37.6881  -41.3584 H         1 UNK         0.3472 
    114 H114       23.6695  -34.9446  -43.1309 H         1 UNK         0.0970 
    115 H115       23.6777  -33.4328  -42.2913 H         1 UNK         0.0970 
    116 H116       21.7308  -31.7196  -42.2105 H         1 UNK         0.0612 
    117 H117       22.6468  -31.5197  -43.6857 H         1 UNK         0.0612 
@<TRIPOS>BOND
     1    1    2 1    
     2    1   62 1    
     3    1   63 1    
     4    1   64 1    
     5    2    3 2    
     6    2    4 am   BACKBONE|DICT|INTERRES
     7    4    5 1    
     8    4   65 1    
     9    5    6 1    
    10    5   25 1    
    11    5   66 1    
    12    6    7 1    
    13    6   67 1    
    14    6   68 1    
    15    7    8 1    
    16    8    9 1    
    17    8   69 1    
    18    8   70 1    
    19    9   10 ar   
    20    9   14 ar   
    21   10   11 ar   
    22   10   71 1    
    23   11   12 ar   
    24   11   61 1    
    25   12   13 ar   
    26   12   72 1    
    27   13   14 ar   
    28   13   15 1    
    29   14   73 1    
    30   15   16 1    
    31   15   74 1    
    32   15   75 1    
    33   16   17 1    
    34   17   18 1    
    35   17   76 1    
    36   17   77 1    
    37   18   19 1    
    38   18   27 1    
    39   18   78 1    
    40   19   20 am   BACKBONE|DICT|INTERRES
    41   19   79 1    
    42   20   21 2    
    43   20   22 1    
    44   22   23 1    
    45   22   24 1    
    46   22   80 1    
    47   23   81 1    
    48   23   82 1    
    49   23   83 1    
    50   24   25 am   BACKBONE|DICT|INTERRES
    51   24   84 1    
    52   25   26 2    
    53   27   28 2    
    54   27   29 am   BACKBONE|DICT|INTERRES
    55   29   30 1    
    56   29   85 1    
    57   30   31 1    
    58   30   32 1    
    59   30   86 1    
    60   31   87 1    
    61   31   88 1    
    62   31   89 1    
    63   32   33 2    
    64   32   34 am   BACKBONE|DICT|INTERRES
    65   34   35 1    
    66   34   90 1    
    67   35   36 1    
    68   35   37 1    
    69   35   91 1    
    70   36   92 1    
    71   36   93 1    
    72   36   94 1    
    73   37   38 2    
    74   37   39 am   BACKBONE|DICT|INTERRES
    75   39   40 1    
    76   39   95 1    
    77   40   41 1    
    78   40   42 1    
    79   40   96 1    
    80   41   97 1    
    81   41   98 1    
    82   41   99 1    
    83   42   43 2    
    84   42   44 am   BACKBONE|DICT|INTERRES
    85   44   45 1    
    86   44  100 1    
    87   45   46 1    
    88   45   47 1    
    89   45  101 1    
    90   46  102 1    
    91   46  103 1    
    92   46  104 1    
    93   47   48 2    
    94   47   49 am   BACKBONE|DICT|INTERRES
    95   49   50 1    
    96   49  105 1    
    97   50   51 1    
    98   50   52 1    
    99   50  106 1    
   100   51  107 1    
   101   51  108 1    
   102   51  109 1    
   103   52   53 2    
   104   52   54 am   BACKBONE|DICT|INTERRES
   105   54   55 1    
   106   54  110 1    
   107   55   56 1    
   108   55   59 1    
   109   55  111 1    
   110   56   57 am   BACKBONE|DICT|INTERRES
   111   56   58 2    
   112   57  112 1    
   113   57  113 1    
   114   59   60 1    
   115   59  114 1    
   116   59  115 1    
   117   60   61 1    
   118   61  116 1    
   119   61  117 1    
@<TRIPOS>SUBSTRUCTURE
     1 UNK         1 GROUP             0       ****    0 ROOT    
