@<TRIPOS>MOLECULE
3R8
117   119    1
SMALL
USER_CHARGES


@<TRIPOS>ATOM
      1 CA         15.0479  -25.0665  -48.2741 C.3       0 UNK        -0.2013 
      2 C          15.7806  -24.1860  -47.2633 C.2       0 UNK         0.4866 
      3 O          15.5517  -22.9780  -47.2484 O.2       0 UNK        -0.5176 
      4 N          16.6598  -24.7183  -46.4058 N.am      1 UNK        -0.4884 
      5 CA         17.0930  -26.1103  -46.2846 C.3       1 UNK         0.0853 
      6 C6         15.9908  -27.0364  -45.7025 C.3       10 UNK        -0.0849 
      7 S7         16.1601  -28.7573  -46.2916 S.3       10 UNK        -0.2776 
      8 C8         15.4971  -29.7139  -44.8897 C.3       10 UNK         0.0316 
      9 C9         16.4304  -29.6748  -43.6893 C.ar      10 UNK        -0.0863 
     10 C10        17.5423  -30.5183  -43.6309 C.ar      10 UNK        -0.1009 
     11 C11        18.4191  -30.4742  -42.5367 C.ar      10 UNK        -0.0712 
     12 C12        18.1730  -29.5555  -41.5095 C.ar      10 UNK        -0.0894 
     13 C13        17.0719  -28.6956  -41.5656 C.ar      10 UNK        -0.0745 
     14 C14        16.1886  -28.7851  -42.6426 C.ar      10 UNK        -0.0972 
     15 C15        16.8270  -27.6521  -40.4850 C.3       10 UNK         0.0209 
     16 S16        16.9124  -25.9641  -41.1750 S.3       10 UNK        -0.2568 
     17 C17        18.5787  -25.3929  -40.7032 C.3       10 UNK        -0.0983 
     18 CA         19.7545  -26.2759  -41.1893 C.3       3 UNK         0.0876 
     19 N          19.7256  -26.5330  -42.6368 N.am      3 UNK        -0.4424 
     20 C          20.5210  -27.4002  -43.2787 C.2       2 UNK         0.4918 
     21 O          21.3955  -28.0474  -42.7020 O.2       2 UNK        -0.4875 
     22 CA         20.3621  -27.5507  -44.8087 C.3       2 UNK         0.0481 
     23 CB         20.8504  -28.9259  -45.3037 C.3       2 UNK        -0.1831 
     24 N          19.0153  -27.3132  -45.3440 N.am      2 UNK        -0.4498 
     25 C          18.4011  -26.1304  -45.4671 C.2       1 UNK         0.5027 
     26 O          18.8391  -25.0837  -44.9792 O.2       1 UNK        -0.4969 
     27 C          21.0917  -25.6749  -40.7056 C.2       3 UNK         0.5005 
     28 O          21.4667  -25.8855  -39.5515 O.2       3 UNK        -0.5279 
     29 N          21.8024  -24.9681  -41.5975 N.am      4 UNK        -0.4463 
     30 CA         23.1304  -24.3930  -41.3603 C.3       4 UNK         0.0283 
     31 CB         23.4999  -23.4836  -42.5435 C.3       4 UNK        -0.1875 
     32 C          24.2385  -25.4389  -41.1236 C.2       4 UNK         0.4949 
     33 O          25.2787  -25.0882  -40.5662 O.2       4 UNK        -0.5039 
     34 N          24.0059  -26.6904  -41.5388 N.am      5 UNK        -0.4663 
     35 CA         24.9081  -27.8232  -41.3481 C.3       5 UNK         0.0242 
     36 CB         25.7603  -28.0220  -42.6167 C.3       5 UNK        -0.1982 
     37 C          24.0873  -29.0656  -40.9768 C.2       5 UNK         0.5017 
     38 O          24.3198  -30.1373  -41.5372 O.2       5 UNK        -0.5012 
     39 N          23.1294  -28.8980  -40.0503 N.am      6 UNK        -0.4439 
     40 CA         22.1134  -29.8894  -39.6676 C.3       6 UNK         0.0297 
     41 CB         21.2211  -29.3102  -38.5580 C.3       6 UNK        -0.2006 
     42 C          22.6500  -31.2683  -39.2425 C.2       6 UNK         0.4892 
     43 O          21.9740  -32.2712  -39.4722 O.2       6 UNK        -0.5089 
     44 N          23.8484  -31.2946  -38.6434 N.am      7 UNK        -0.4243 
     45 CA         24.5480  -32.5149  -38.2340 C.3       7 UNK         0.0196 
     46 CB         25.7035  -32.1400  -37.2918 C.3       7 UNK        -0.2007 
     47 C          25.0710  -33.3515  -39.4169 C.2       7 UNK         0.5020 
     48 O          25.2174  -34.5652  -39.2694 O.2       7 UNK        -0.5147 
     49 N          25.3514  -32.7010  -40.5538 N.am      8 UNK        -0.4734 
     50 CA         25.8016  -33.3432  -41.7893 C.3       8 UNK         0.0238 
     51 CB         26.9023  -32.4877  -42.4401 C.3       8 UNK        -0.1912 
     52 C          24.6265  -33.5446  -42.7547 C.2       8 UNK         0.5038 
     53 O          24.4643  -34.6427  -43.2876 O.2       8 UNK        -0.5046 
     54 N          23.8284  -32.4850  -42.9482 N.am      9 UNK        -0.4200 
     55 CA         22.6542  -32.4302  -43.8304 C.3       9 UNK         0.0839 
     56 C          22.9730  -32.6304  -45.3453 C.2       9 UNK         0.5513 
     57 N          24.1733  -32.2920  -45.8023 N.am      9 UNK        -0.7519 
     58 O          22.1334  -33.0770  -46.1222 O.2       9 UNK        -0.4960 
     59 C59        21.4898  -33.3098  -43.2881 C.3       10 UNK        -0.0876 
     60 S60        19.8428  -32.6487  -43.7059 S.3       10 UNK        -0.2414 
     61 C61        19.6638  -31.3573  -42.4280 C.3       10 UNK         0.0169 
     62 H62        15.5956  -25.9686  -48.5387 H         1 UNK         0.0903 
     63 H63        14.0754  -25.3587  -47.8792 H         1 UNK         0.0903 
     64 H64        14.8785  -24.5115  -49.1965 H         1 UNK         0.0903 
     65 H65        17.1701  -24.1068  -45.7779 H         1 UNK         0.3096 
     66 H66        17.3718  -26.4500  -47.2840 H         1 UNK         0.1121 
     67 H67        14.9979  -26.7045  -46.0058 H         1 UNK         0.0849 
     68 H68        15.9837  -26.9846  -44.6146 H         1 UNK         0.0849 
     69 H69        14.5075  -29.3373  -44.6256 H         1 UNK         0.0865 
     70 H70        15.3526  -30.7486  -45.2045 H         1 UNK         0.0865 
     71 H71        17.7165  -31.1963  -44.4536 H         1 UNK         0.1346 
     72 H72        18.8546  -29.5005  -40.6723 H         1 UNK         0.1412 
     73 H73        15.3295  -28.1290  -42.6796 H         1 UNK         0.1426 
     74 H74        17.5271  -27.7598  -39.6554 H         1 UNK         0.0716 
     75 H75        15.8318  -27.8083  -40.0664 H         1 UNK         0.0716 
     76 H76        18.5974  -25.3056  -39.6149 H         1 UNK         0.0695 
     77 H77        18.6889  -24.3769  -41.0874 H         1 UNK         0.0695 
     78 H78        19.6729  -27.2456  -40.6995 H         1 UNK         0.0983 
     79 H79        19.0647  -25.9955  -43.1855 H         1 UNK         0.3095 
     80 H80        21.0206  -26.7994  -45.2486 H         1 UNK         0.0454 
     81 H81        20.8161  -28.9935  -46.3910 H         1 UNK         0.0851 
     82 H82        20.2437  -29.7360  -44.8993 H         1 UNK         0.0851 
     83 H83        21.8836  -29.1132  -45.0081 H         1 UNK         0.0851 
     84 H84        18.5328  -28.1272  -45.7025 H         1 UNK         0.2976 
     85 H85        21.4110  -24.8435  -42.5203 H         1 UNK         0.3116 
     86 H86        23.0696  -23.7771  -40.4606 H         1 UNK         0.0646 
     87 H87        23.5613  -24.0418  -43.4786 H         1 UNK         0.0847 
     88 H88        24.4698  -23.0101  -42.3839 H         1 UNK         0.0847 
     89 H89        22.7708  -22.6838  -42.6748 H         1 UNK         0.0847 
     90 H90        23.1117  -26.9130  -41.9641 H         1 UNK         0.3040 
     91 H91        25.5784  -27.6339  -40.5067 H         1 UNK         0.1015 
     92 H92        25.1405  -28.2571  -43.4830 H         1 UNK         0.0786 
     93 H93        26.4704  -28.8399  -42.4886 H         1 UNK         0.0786 
     94 H94        26.3378  -27.1275  -42.8501 H         1 UNK         0.0786 
     95 H95        23.0145  -27.9717  -39.6605 H         1 UNK         0.3172 
     96 H96        21.4916  -30.0469  -40.5478 H         1 UNK         0.0595 
     97 H97        20.4443  -30.0202  -38.2696 H         1 UNK         0.0839 
     98 H98        20.7169  -28.4007  -38.8800 H         1 UNK         0.0839 
     99 H99        21.7954  -29.0741  -37.6613 H         1 UNK         0.0839 
    100 H100       24.3253  -30.4180  -38.4905 H         1 UNK         0.2998 
    101 H101       23.8432  -33.1387  -37.6797 H         1 UNK         0.0822 
    102 H102       26.2281  -33.0314  -36.9444 H         1 UNK         0.0787 
    103 H103       26.4376  -31.5023  -37.7861 H         1 UNK         0.0787 
    104 H104       25.3412  -31.6149  -36.4077 H         1 UNK         0.0787 
    105 H105       25.1355  -31.7115  -40.6132 H         1 UNK         0.3055 
    106 H106       26.2256  -34.3264  -41.5713 H         1 UNK         0.1106 
    107 H107       27.2498  -32.9405  -43.3698 H         1 UNK         0.0828 
    108 H108       26.5540  -31.4815  -42.6763 H         1 UNK         0.0828 
    109 H109       27.7674  -32.3942  -41.7836 H         1 UNK         0.0828 
    110 H110       24.0461  -31.6166  -42.4623 H         1 UNK         0.2931 
    111 H111       22.3394  -31.3890  -43.7627 H         1 UNK         0.0412 
    112 H112       24.8705  -31.9156  -45.1804 H         1 UNK         0.3472 
    113 H113       24.3818  -32.4160  -46.7807 H         1 UNK         0.3472 
    114 H114       21.5452  -33.3875  -42.2005 H         1 UNK         0.0970 
    115 H115       21.5720  -34.3330  -43.6590 H         1 UNK         0.0970 
    116 H116       19.6829  -31.8338  -41.4465 H         1 UNK         0.0612 
    117 H117       20.5353  -30.7061  -42.4814 H         1 UNK         0.0612 
@<TRIPOS>BOND
     1    1    2 1    
     2    1   62 1    
     3    1   63 1    
     4    1   64 1    
     5    2    3 2    
     6    2    4 am   BACKBONE|DICT|INTERRES
     7    4    5 1    
     8    4   65 1    
     9    5    6 1    
    10    5   25 1    
    11    5   66 1    
    12    6    7 1    
    13    6   67 1    
    14    6   68 1    
    15    7    8 1    
    16    8    9 1    
    17    8   69 1    
    18    8   70 1    
    19    9   10 ar   
    20    9   14 ar   
    21   10   11 ar   
    22   10   71 1    
    23   11   12 ar   
    24   11   61 1    
    25   12   13 ar   
    26   12   72 1    
    27   13   14 ar   
    28   13   15 1    
    29   14   73 1    
    30   15   16 1    
    31   15   74 1    
    32   15   75 1    
    33   16   17 1    
    34   17   18 1    
    35   17   76 1    
    36   17   77 1    
    37   18   19 1    
    38   18   27 1    
    39   18   78 1    
    40   19   20 am   BACKBONE|DICT|INTERRES
    41   19   79 1    
    42   20   21 2    
    43   20   22 1    
    44   22   23 1    
    45   22   24 1    
    46   22   80 1    
    47   23   81 1    
    48   23   82 1    
    49   23   83 1    
    50   24   25 am   BACKBONE|DICT|INTERRES
    51   24   84 1    
    52   25   26 2    
    53   27   28 2    
    54   27   29 am   BACKBONE|DICT|INTERRES
    55   29   30 1    
    56   29   85 1    
    57   30   31 1    
    58   30   32 1    
    59   30   86 1    
    60   31   87 1    
    61   31   88 1    
    62   31   89 1    
    63   32   33 2    
    64   32   34 am   BACKBONE|DICT|INTERRES
    65   34   35 1    
    66   34   90 1    
    67   35   36 1    
    68   35   37 1    
    69   35   91 1    
    70   36   92 1    
    71   36   93 1    
    72   36   94 1    
    73   37   38 2    
    74   37   39 am   BACKBONE|DICT|INTERRES
    75   39   40 1    
    76   39   95 1    
    77   40   41 1    
    78   40   42 1    
    79   40   96 1    
    80   41   97 1    
    81   41   98 1    
    82   41   99 1    
    83   42   43 2    
    84   42   44 am   BACKBONE|DICT|INTERRES
    85   44   45 1    
    86   44  100 1    
    87   45   46 1    
    88   45   47 1    
    89   45  101 1    
    90   46  102 1    
    91   46  103 1    
    92   46  104 1    
    93   47   48 2    
    94   47   49 am   BACKBONE|DICT|INTERRES
    95   49   50 1    
    96   49  105 1    
    97   50   51 1    
    98   50   52 1    
    99   50  106 1    
   100   51  107 1    
   101   51  108 1    
   102   51  109 1    
   103   52   53 2    
   104   52   54 am   BACKBONE|DICT|INTERRES
   105   54   55 1    
   106   54  110 1    
   107   55   56 1    
   108   55   59 1    
   109   55  111 1    
   110   56   57 am   BACKBONE|DICT|INTERRES
   111   56   58 2    
   112   57  112 1    
   113   57  113 1    
   114   59   60 1    
   115   59  114 1    
   116   59  115 1    
   117   60   61 1    
   118   61  116 1    
   119   61  117 1    
@<TRIPOS>SUBSTRUCTURE
     1 UNK         1 GROUP             0       ****    0 ROOT    
