@<TRIPOS>MOLECULE
3R8
117   119    1
SMALL
USER_CHARGES


@<TRIPOS>ATOM
      1 CA         16.6250  -23.0900  -45.3528 C.3       0 UNK        -0.2013 
      2 C          17.0233  -24.4147  -44.7193 C.2       0 UNK         0.4866 
      3 O          18.0097  -24.4692  -43.9859 O.2       0 UNK        -0.5176 
      4 N          16.2688  -25.4822  -45.0042 N.am      1 UNK        -0.4884 
      5 CA         16.4778  -26.8266  -44.4555 C.3       1 UNK         0.0853 
      6 C6         15.7368  -27.9015  -45.2912 C.3       10 UNK        -0.0849 
      7 S7         16.2461  -27.9051  -47.0449 S.3       10 UNK        -0.2776 
      8 C8         17.0437  -29.5338  -47.2132 C.3       10 UNK         0.0316 
      9 C9         18.3074  -29.6493  -46.3728 C.ar      10 UNK        -0.0863 
     10 C10        18.3664  -30.5482  -45.3052 C.ar      10 UNK        -0.1009 
     11 C11        19.5333  -30.6723  -44.5457 C.ar      10 UNK        -0.0712 
     12 C12        20.6513  -29.8926  -44.8598 C.ar      10 UNK        -0.0894 
     13 C13        20.5979  -28.9834  -45.9210 C.ar      10 UNK        -0.0745 
     14 C14        19.4268  -28.8703  -46.6754 C.ar      10 UNK        -0.0972 
     15 C15        21.8007  -28.1241  -46.2722 C.3       10 UNK         0.0209 
     16 S16        21.6532  -26.4539  -45.5643 S.3       10 UNK        -0.2568 
     17 C17        22.3251  -26.6873  -43.8873 C.3       10 UNK        -0.0983 
     18 CA         21.3022  -26.3630  -42.7745 C.3       3 UNK         0.0876 
     19 N          20.1727  -27.2991  -42.7652 N.am      3 UNK        -0.4424 
     20 C          19.0727  -27.1458  -42.0179 C.2       2 UNK         0.4918 
     21 O          18.9074  -26.2324  -41.2067 O.2       2 UNK        -0.4875 
     22 CA         17.9765  -28.2096  -42.1824 C.3       2 UNK         0.0481 
     23 CB         18.1246  -29.2821  -41.0919 C.3       2 UNK        -0.1831 
     24 N          16.6515  -27.5988  -42.0666 N.am      2 UNK        -0.4498 
     25 C          15.9893  -26.8803  -42.9859 C.2       1 UNK         0.5027 
     26 O          14.9430  -26.2975  -42.6947 O.2       1 UNK        -0.4969 
     27 C          22.0299  -26.2758  -41.4180 C.2       3 UNK         0.5005 
     28 O          22.4585  -25.1847  -41.0382 O.2       3 UNK        -0.5279 
     29 N          22.1996  -27.4218  -40.7394 N.am      4 UNK        -0.4463 
     30 CA         22.9240  -27.6428  -39.4779 C.3       4 UNK         0.0283 
     31 CB         22.3673  -26.7887  -38.3226 C.3       4 UNK        -0.1875 
     32 C          24.4475  -27.4899  -39.6256 C.2       4 UNK         0.4949 
     33 O          25.1837  -28.4169  -39.2897 O.2       4 UNK        -0.5039 
     34 N          24.8914  -26.3516  -40.1741 N.am      5 UNK        -0.4663 
     35 CA         26.2863  -26.0630  -40.5247 C.3       5 UNK         0.0242 
     36 CB         26.4259  -24.5645  -40.8361 C.3       5 UNK        -0.1982 
     37 C          26.7983  -26.9088  -41.7056 C.2       5 UNK         0.5017 
     38 O          28.0003  -27.1592  -41.7922 O.2       5 UNK        -0.5012 
     39 N          25.8749  -27.3501  -42.5689 N.am      6 UNK        -0.4439 
     40 CA         26.1012  -28.2932  -43.6631 C.3       6 UNK         0.0297 
     41 CB         25.8595  -27.5932  -45.0141 C.3       6 UNK        -0.2006 
     42 C          25.2053  -29.5231  -43.4431 C.2       6 UNK         0.4892 
     43 O          24.4332  -29.8906  -44.3285 O.2       6 UNK        -0.5089 
     44 N          25.3384  -30.1106  -42.2448 N.am      7 UNK        -0.4243 
     45 CA         24.6124  -31.2534  -41.6797 C.3       7 UNK         0.0196 
     46 CB         24.5947  -32.4674  -42.6311 C.3       7 UNK        -0.2007 
     47 C          23.1933  -30.8997  -41.2077 C.2       7 UNK         0.5020 
     48 O          22.5027  -30.0764  -41.8127 O.2       7 UNK        -0.5147 
     49 N          22.7800  -31.5571  -40.1178 N.am      8 UNK        -0.4734 
     50 CA         21.4318  -31.4692  -39.5467 C.3       8 UNK         0.0238 
     51 CB         21.5345  -31.5426  -38.0141 C.3       8 UNK        -0.1912 
     52 C          20.4922  -32.5671  -40.0806 C.2       8 UNK         0.5038 
     53 O          19.2915  -32.4990  -39.8194 O.2       8 UNK        -0.5046 
     54 N          21.0469  -33.5445  -40.8141 N.am      9 UNK        -0.4200 
     55 CA         20.3554  -34.6978  -41.4195 C.3       9 UNK         0.0839 
     56 C          19.7884  -35.7264  -40.3922 C.2       9 UNK         0.5513 
     57 N          20.2284  -35.7210  -39.1394 N.am      9 UNK        -0.7519 
     58 O          18.9615  -36.5664  -40.7388 O.2       9 UNK        -0.4960 
     59 C59        19.3096  -34.2914  -42.4984 C.3       10 UNK        -0.0876 
     60 S60        20.0157  -33.3138  -43.8720 S.3       10 UNK        -0.2414 
     61 C61        19.5620  -31.6285  -43.3676 C.3       10 UNK         0.0169 
     62 H62        16.4023  -22.3563  -44.5786 H         1 UNK         0.0903 
     63 H63        17.4424  -22.7054  -45.9622 H         1 UNK         0.0903 
     64 H64        15.7457  -23.1896  -45.9890 H         1 UNK         0.0903 
     65 H65        15.4633  -25.3800  -45.6049 H         1 UNK         0.3096 
     66 H66        17.5481  -27.0264  -44.5125 H         1 UNK         0.1121 
     67 H67        14.6577  -27.7371  -45.2585 H         1 UNK         0.0849 
     68 H68        15.8995  -28.8932  -44.8650 H         1 UNK         0.0849 
     69 H69        16.3264  -30.3144  -46.9545 H         1 UNK         0.0865 
     70 H70        17.2997  -29.6936  -48.2616 H         1 UNK         0.0865 
     71 H71        17.5050  -31.1558  -45.0625 H         1 UNK         0.1346 
     72 H72        21.5603  -29.9930  -44.2802 H         1 UNK         0.1412 
     73 H73        19.3836  -28.1695  -47.4986 H         1 UNK         0.1426 
     74 H74        21.8762  -28.0353  -47.3570 H         1 UNK         0.0716 
     75 H75        22.7285  -28.5961  -45.9472 H         1 UNK         0.0716 
     76 H76        23.1925  -26.0283  -43.8109 H         1 UNK         0.0695 
     77 H77        22.7028  -27.7047  -43.7719 H         1 UNK         0.0695 
     78 H78        20.8908  -25.3697  -42.9710 H         1 UNK         0.0983 
     79 H79        20.2297  -28.0674  -43.4193 H         1 UNK         0.3095 
     80 H80        18.0723  -28.6968  -43.1520 H         1 UNK         0.0454 
     81 H81        19.1083  -29.7481  -41.1343 H         1 UNK         0.0851 
     82 H82        17.3857  -30.0752  -41.2079 H         1 UNK         0.0851 
     83 H83        18.0118  -28.8629  -40.0912 H         1 UNK         0.0851 
     84 H84        16.2737  -27.5931  -41.1307 H         1 UNK         0.2976 
     85 H85        21.9155  -28.2804  -41.2046 H         1 UNK         0.3116 
     86 H86        22.7401  -28.6846  -39.2144 H         1 UNK         0.0646 
     87 H87        22.5409  -25.7231  -38.4725 H         1 UNK         0.0847 
     88 H88        21.2944  -26.9388  -38.2024 H         1 UNK         0.0847 
     89 H89        22.8407  -27.0611  -37.3786 H         1 UNK         0.0847 
     90 H90        24.1903  -25.6587  -40.4287 H         1 UNK         0.3040 
     91 H91        26.9104  -26.2976  -39.6594 H         1 UNK         0.1015 
     92 H92        27.4581  -24.3108  -41.0823 H         1 UNK         0.0786 
     93 H93        26.1390  -23.9535  -39.9800 H         1 UNK         0.0786 
     94 H94        25.8054  -24.2681  -41.6830 H         1 UNK         0.0786 
     95 H95        24.9129  -27.1131  -42.3774 H         1 UNK         0.3172 
     96 H96        27.1327  -28.6515  -43.6523 H         1 UNK         0.0595 
     97 H97        24.8321  -27.2484  -45.1211 H         1 UNK         0.0839 
     98 H98        26.0603  -28.2719  -45.8440 H         1 UNK         0.0839 
     99 H99        26.5157  -26.7315  -45.1356 H         1 UNK         0.0839 
    100 H100       25.9802  -29.6703  -41.5992 H         1 UNK         0.2998 
    101 H101       25.1899  -31.5363  -40.7978 H         1 UNK         0.0822 
    102 H102       24.2349  -33.3602  -42.1189 H         1 UNK         0.0787 
    103 H103       25.5919  -32.6924  -43.0093 H         1 UNK         0.0787 
    104 H104       23.9385  -32.3051  -43.4872 H         1 UNK         0.0787 
    105 H105       23.4209  -32.1905  -39.6594 H         1 UNK         0.3055 
    106 H106       20.9835  -30.5085  -39.8075 H         1 UNK         0.1106 
    107 H107       22.1544  -30.7373  -37.6195 H         1 UNK         0.0828 
    108 H108       20.5512  -31.4467  -37.5510 H         1 UNK         0.0828 
    109 H109       21.9607  -32.4891  -37.6797 H         1 UNK         0.0828 
    110 H110       22.0413  -33.5057  -40.9739 H         1 UNK         0.2931 
    111 H111       21.1400  -35.2494  -41.9389 H         1 UNK         0.0412 
    112 H112       19.8642  -36.3969  -38.4859 H         1 UNK         0.3472 
    113 H113       20.9164  -35.0493  -38.8403 H         1 UNK         0.3472 
    114 H114       18.8748  -35.1840  -42.9516 H         1 UNK         0.0970 
    115 H115       18.4714  -33.7617  -42.0439 H         1 UNK         0.0970 
    116 H116       18.5836  -31.6342  -42.8860 H         1 UNK         0.0612 
    117 H117       20.2741  -31.2770  -42.6230 H         1 UNK         0.0612 
@<TRIPOS>BOND
     1    1    2 1    
     2    1   62 1    
     3    1   63 1    
     4    1   64 1    
     5    2    3 2    
     6    2    4 am   BACKBONE|DICT|INTERRES
     7    4    5 1    
     8    4   65 1    
     9    5    6 1    
    10    5   25 1    
    11    5   66 1    
    12    6    7 1    
    13    6   67 1    
    14    6   68 1    
    15    7    8 1    
    16    8    9 1    
    17    8   69 1    
    18    8   70 1    
    19    9   10 ar   
    20    9   14 ar   
    21   10   11 ar   
    22   10   71 1    
    23   11   12 ar   
    24   11   61 1    
    25   12   13 ar   
    26   12   72 1    
    27   13   14 ar   
    28   13   15 1    
    29   14   73 1    
    30   15   16 1    
    31   15   74 1    
    32   15   75 1    
    33   16   17 1    
    34   17   18 1    
    35   17   76 1    
    36   17   77 1    
    37   18   19 1    
    38   18   27 1    
    39   18   78 1    
    40   19   20 am   BACKBONE|DICT|INTERRES
    41   19   79 1    
    42   20   21 2    
    43   20   22 1    
    44   22   23 1    
    45   22   24 1    
    46   22   80 1    
    47   23   81 1    
    48   23   82 1    
    49   23   83 1    
    50   24   25 am   BACKBONE|DICT|INTERRES
    51   24   84 1    
    52   25   26 2    
    53   27   28 2    
    54   27   29 am   BACKBONE|DICT|INTERRES
    55   29   30 1    
    56   29   85 1    
    57   30   31 1    
    58   30   32 1    
    59   30   86 1    
    60   31   87 1    
    61   31   88 1    
    62   31   89 1    
    63   32   33 2    
    64   32   34 am   BACKBONE|DICT|INTERRES
    65   34   35 1    
    66   34   90 1    
    67   35   36 1    
    68   35   37 1    
    69   35   91 1    
    70   36   92 1    
    71   36   93 1    
    72   36   94 1    
    73   37   38 2    
    74   37   39 am   BACKBONE|DICT|INTERRES
    75   39   40 1    
    76   39   95 1    
    77   40   41 1    
    78   40   42 1    
    79   40   96 1    
    80   41   97 1    
    81   41   98 1    
    82   41   99 1    
    83   42   43 2    
    84   42   44 am   BACKBONE|DICT|INTERRES
    85   44   45 1    
    86   44  100 1    
    87   45   46 1    
    88   45   47 1    
    89   45  101 1    
    90   46  102 1    
    91   46  103 1    
    92   46  104 1    
    93   47   48 2    
    94   47   49 am   BACKBONE|DICT|INTERRES
    95   49   50 1    
    96   49  105 1    
    97   50   51 1    
    98   50   52 1    
    99   50  106 1    
   100   51  107 1    
   101   51  108 1    
   102   51  109 1    
   103   52   53 2    
   104   52   54 am   BACKBONE|DICT|INTERRES
   105   54   55 1    
   106   54  110 1    
   107   55   56 1    
   108   55   59 1    
   109   55  111 1    
   110   56   57 am   BACKBONE|DICT|INTERRES
   111   56   58 2    
   112   57  112 1    
   113   57  113 1    
   114   59   60 1    
   115   59  114 1    
   116   59  115 1    
   117   60   61 1    
   118   61  116 1    
   119   61  117 1    
@<TRIPOS>SUBSTRUCTURE
     1 UNK         1 GROUP             0       ****    0 ROOT    
