@<TRIPOS>MOLECULE
3R8
117   119    1
SMALL
USER_CHARGES


@<TRIPOS>ATOM
      1 CA         17.7915  -24.0244  -49.3454 C.3       0 UNK        -0.2013 
      2 C          17.4519  -24.9480  -48.1848 C.2       0 UNK         0.4866 
      3 O          16.5822  -24.6157  -47.3798 O.2       0 UNK        -0.5176 
      4 N          18.1305  -26.1015  -48.1038 N.am      1 UNK        -0.4884 
      5 CA         17.9969  -27.1275  -47.0612 C.3       1 UNK         0.0853 
      6 C6         16.6008  -27.8093  -47.0525 C.3       10 UNK        -0.0849 
      7 S7         16.6926  -29.4932  -46.3561 S.3       10 UNK        -0.2776 
      8 C8         15.7271  -29.3267  -44.8153 C.3       10 UNK         0.0316 
      9 C9         16.2353  -30.2582  -43.7210 C.ar      10 UNK        -0.0863 
     10 C10        16.4052  -31.6228  -43.9751 C.ar      10 UNK        -0.1009 
     11 C11        16.9242  -32.4702  -42.9938 C.ar      10 UNK        -0.0712 
     12 C12        17.2107  -31.9576  -41.7243 C.ar      10 UNK        -0.0894 
     13 C13        17.0134  -30.6019  -41.4437 C.ar      10 UNK        -0.0745 
     14 C14        16.5364  -29.7552  -42.4500 C.ar      10 UNK        -0.0972 
     15 C15        17.2842  -30.0677  -40.0430 C.3       10 UNK         0.0209 
     16 S16        19.0452  -29.6982  -39.7644 S.3       10 UNK        -0.2568 
     17 C17        19.1857  -28.0095  -40.4399 C.3       10 UNK        -0.0983 
     18 CA         20.6114  -27.6839  -40.9655 C.3       3 UNK         0.0876 
     19 N          20.5707  -26.7163  -42.0589 N.am      3 UNK        -0.4424 
     20 C          20.4969  -27.0421  -43.3507 C.2       2 UNK         0.4918 
     21 O          20.5228  -28.2038  -43.7649 O.2       2 UNK        -0.4875 
     22 CA         20.4086  -25.8695  -44.3451 C.3       2 UNK         0.0481 
     23 CB         21.8078  -25.3299  -44.6777 C.3       2 UNK        -0.1831 
     24 N          19.7440  -26.2659  -45.5877 N.am      2 UNK        -0.4498 
     25 C          18.4470  -26.5906  -45.6841 C.2       1 UNK         0.5027 
     26 O          17.6398  -26.4526  -44.7619 O.2       1 UNK        -0.4969 
     27 C          21.5920  -27.1972  -39.8810 C.2       3 UNK         0.5005 
     28 O          22.3341  -26.2375  -40.1130 O.2       3 UNK        -0.5279 
     29 N          21.6012  -27.8856  -38.7298 N.am      4 UNK        -0.4463 
     30 CA         22.4411  -27.6398  -37.5510 C.3       4 UNK         0.0283 
     31 CB         21.9945  -26.3479  -36.8289 C.3       4 UNK        -0.1875 
     32 C          23.9401  -27.6742  -37.9039 C.2       4 UNK         0.4949 
     33 O          24.4671  -28.7547  -38.1718 O.2       4 UNK        -0.5039 
     34 N          24.5859  -26.4999  -37.9501 N.am      5 UNK        -0.4663 
     35 CA         25.9949  -26.3010  -38.3115 C.3       5 UNK         0.0242 
     36 CB         26.3500  -24.8156  -38.1368 C.3       5 UNK        -0.1982 
     37 C          26.3697  -26.7804  -39.7276 C.2       5 UNK         0.5017 
     38 O          27.5466  -27.0418  -39.9766 O.2       5 UNK        -0.5012 
     39 N          25.3740  -26.9242  -40.6151 N.am      6 UNK        -0.4439 
     40 CA         25.5180  -27.5194  -41.9478 C.3       6 UNK         0.0297 
     41 CB         24.3124  -27.1087  -42.8067 C.3       6 UNK        -0.2006 
     42 C          25.6796  -29.0558  -41.9411 C.2       6 UNK         0.4892 
     43 O          25.8634  -29.6289  -43.0148 O.2       6 UNK        -0.5089 
     44 N          25.5926  -29.6925  -40.7607 N.am      7 UNK        -0.4243 
     45 CA         25.6619  -31.1402  -40.5128 C.3       7 UNK         0.0196 
     46 CB         26.9946  -31.7475  -41.0036 C.3       7 UNK        -0.2007 
     47 C          24.4190  -31.9037  -41.0130 C.2       7 UNK         0.5020 
     48 O          24.5131  -33.0962  -41.3067 O.2       7 UNK        -0.5147 
     49 N          23.2793  -31.1972  -41.0348 N.am      8 UNK        -0.4734 
     50 CA         21.9202  -31.6219  -41.3913 C.3       8 UNK         0.0238 
     51 CB         21.4548  -32.8172  -40.5354 C.3       8 UNK        -0.1912 
     52 C          21.6966  -31.8922  -42.8899 C.2       8 UNK         0.5038 
     53 O          22.5763  -32.4100  -43.5802 O.2       8 UNK        -0.5046 
     54 N          20.4720  -31.5842  -43.3343 N.am      9 UNK        -0.4200 
     55 CA         19.8972  -31.9521  -44.6373 C.3       9 UNK         0.0839 
     56 C          20.6213  -31.3390  -45.8721 C.2       9 UNK         0.5513 
     57 N          21.1212  -30.1133  -45.7858 N.am      9 UNK        -0.7519 
     58 O          20.7222  -31.9659  -46.9244 O.2       9 UNK        -0.4960 
     59 C59        19.6232  -33.4837  -44.7784 C.3       10 UNK        -0.0876 
     60 S60        18.9731  -34.3190  -43.2810 S.3       10 UNK        -0.2414 
     61 C61        17.1931  -33.9330  -43.3150 C.3       10 UNK         0.0169 
     62 H62        18.1392  -23.0625  -48.9696 H         1 UNK         0.0903 
     63 H63        18.5700  -24.4394  -49.9854 H         1 UNK         0.0903 
     64 H64        16.9069  -23.8510  -49.9578 H         1 UNK         0.0903 
     65 H65        18.8314  -26.2977  -48.8062 H         1 UNK         0.3096 
     66 H66        18.7254  -27.8950  -47.3316 H         1 UNK         0.1121 
     67 H67        16.2365  -27.9141  -48.0755 H         1 UNK         0.0849 
     68 H68        15.8533  -27.2029  -46.5380 H         1 UNK         0.0849 
     69 H69        15.7605  -28.2934  -44.4689 H         1 UNK         0.0865 
     70 H70        14.6794  -29.5487  -45.0220 H         1 UNK         0.0865 
     71 H71        16.1757  -32.0160  -44.9561 H         1 UNK         0.1346 
     72 H72        17.5969  -32.6148  -40.9570 H         1 UNK         0.1412 
     73 H73        16.3916  -28.7041  -42.2407 H         1 UNK         0.1426 
     74 H74        16.6849  -29.1775  -39.8453 H         1 UNK         0.0716 
     75 H75        16.9671  -30.8102  -39.3091 H         1 UNK         0.0716 
     76 H76        18.8573  -27.2863  -39.6910 H         1 UNK         0.0695 
     77 H77        18.4694  -27.9291  -41.2585 H         1 UNK         0.0695 
     78 H78        21.0609  -28.5954  -41.3569 H         1 UNK         0.0983 
     79 H79        20.6525  -25.7475  -41.7812 H         1 UNK         0.3095 
     80 H80        19.8250  -25.0670  -43.8889 H         1 UNK         0.0454 
     81 H81        21.7586  -24.5108  -45.3953 H         1 UNK         0.0851 
     82 H82        22.4520  -26.1047  -45.0955 H         1 UNK         0.0851 
     83 H83        22.2966  -24.9407  -43.7843 H         1 UNK         0.0851 
     84 H84        20.3387  -26.4055  -46.3911 H         1 UNK         0.2976 
     85 H85        20.9612  -28.6668  -38.6522 H         1 UNK         0.3116 
     86 H86        22.2713  -28.4730  -36.8673 H         1 UNK         0.0646 
     87 H87        20.9615  -26.4305  -36.4910 H         1 UNK         0.0847 
     88 H88        22.6033  -26.1604  -35.9432 H         1 UNK         0.0847 
     89 H89        22.0567  -25.4672  -37.4690 H         1 UNK         0.0847 
     90 H90        24.0507  -25.6649  -37.7592 H         1 UNK         0.3040 
     91 H91        26.5970  -26.8837  -37.6108 H         1 UNK         0.1015 
     92 H92        25.7572  -24.1793  -38.7954 H         1 UNK         0.0786 
     93 H93        27.4008  -24.6344  -38.3680 H         1 UNK         0.0786 
     94 H94        26.1858  -24.4851  -37.1110 H         1 UNK         0.0786 
     95 H95        24.4366  -26.6589  -40.3291 H         1 UNK         0.3172 
     96 H96        26.4164  -27.1043  -42.4094 H         1 UNK         0.0595 
     97 H97        23.3862  -27.5439  -42.4335 H         1 UNK         0.0839 
     98 H98        24.4334  -27.4413  -43.8386 H         1 UNK         0.0839 
     99 H99        24.1954  -26.0257  -42.8272 H         1 UNK         0.0839 
    100 H100       25.4073  -29.1338  -39.9330 H         1 UNK         0.2998 
    101 H101       25.6464  -31.2456  -39.4267 H         1 UNK         0.0822 
    102 H102       27.1115  -32.7705  -40.6440 H         1 UNK         0.0787 
    103 H103       27.0506  -31.7817  -42.0918 H         1 UNK         0.0787 
    104 H104       27.8492  -31.1776  -40.6392 H         1 UNK         0.0787 
    105 H105       23.3688  -30.2258  -40.7761 H         1 UNK         0.3055 
    106 H106       21.2869  -30.7816  -41.1228 H         1 UNK         0.1106 
    107 H107       20.3957  -33.0217  -40.6980 H         1 UNK         0.0828 
    108 H108       21.9976  -33.7304  -40.7808 H         1 UNK         0.0828 
    109 H109       21.5852  -32.6210  -39.4713 H         1 UNK         0.0828 
    110 H110       19.8196  -31.1422  -42.7033 H         1 UNK         0.2931 
    111 H111       18.9304  -31.4568  -44.6546 H         1 UNK         0.0412 
    112 H112       21.5991  -29.7209  -46.5800 H         1 UNK         0.3472 
    113 H113       20.9806  -29.5523  -44.9489 H         1 UNK         0.3472 
    114 H114       20.5507  -33.9951  -45.0422 H         1 UNK         0.0970 
    115 H115       18.9380  -33.6668  -45.6077 H         1 UNK         0.0970 
    116 H116       16.6848  -34.5564  -42.5783 H         1 UNK         0.0612 
    117 H117       16.7825  -34.2080  -44.2878 H         1 UNK         0.0612 
@<TRIPOS>BOND
     1    1    2 1    
     2    1   62 1    
     3    1   63 1    
     4    1   64 1    
     5    2    3 2    
     6    2    4 am   BACKBONE|DICT|INTERRES
     7    4    5 1    
     8    4   65 1    
     9    5    6 1    
    10    5   25 1    
    11    5   66 1    
    12    6    7 1    
    13    6   67 1    
    14    6   68 1    
    15    7    8 1    
    16    8    9 1    
    17    8   69 1    
    18    8   70 1    
    19    9   10 ar   
    20    9   14 ar   
    21   10   11 ar   
    22   10   71 1    
    23   11   12 ar   
    24   11   61 1    
    25   12   13 ar   
    26   12   72 1    
    27   13   14 ar   
    28   13   15 1    
    29   14   73 1    
    30   15   16 1    
    31   15   74 1    
    32   15   75 1    
    33   16   17 1    
    34   17   18 1    
    35   17   76 1    
    36   17   77 1    
    37   18   19 1    
    38   18   27 1    
    39   18   78 1    
    40   19   20 am   BACKBONE|DICT|INTERRES
    41   19   79 1    
    42   20   21 2    
    43   20   22 1    
    44   22   23 1    
    45   22   24 1    
    46   22   80 1    
    47   23   81 1    
    48   23   82 1    
    49   23   83 1    
    50   24   25 am   BACKBONE|DICT|INTERRES
    51   24   84 1    
    52   25   26 2    
    53   27   28 2    
    54   27   29 am   BACKBONE|DICT|INTERRES
    55   29   30 1    
    56   29   85 1    
    57   30   31 1    
    58   30   32 1    
    59   30   86 1    
    60   31   87 1    
    61   31   88 1    
    62   31   89 1    
    63   32   33 2    
    64   32   34 am   BACKBONE|DICT|INTERRES
    65   34   35 1    
    66   34   90 1    
    67   35   36 1    
    68   35   37 1    
    69   35   91 1    
    70   36   92 1    
    71   36   93 1    
    72   36   94 1    
    73   37   38 2    
    74   37   39 am   BACKBONE|DICT|INTERRES
    75   39   40 1    
    76   39   95 1    
    77   40   41 1    
    78   40   42 1    
    79   40   96 1    
    80   41   97 1    
    81   41   98 1    
    82   41   99 1    
    83   42   43 2    
    84   42   44 am   BACKBONE|DICT|INTERRES
    85   44   45 1    
    86   44  100 1    
    87   45   46 1    
    88   45   47 1    
    89   45  101 1    
    90   46  102 1    
    91   46  103 1    
    92   46  104 1    
    93   47   48 2    
    94   47   49 am   BACKBONE|DICT|INTERRES
    95   49   50 1    
    96   49  105 1    
    97   50   51 1    
    98   50   52 1    
    99   50  106 1    
   100   51  107 1    
   101   51  108 1    
   102   51  109 1    
   103   52   53 2    
   104   52   54 am   BACKBONE|DICT|INTERRES
   105   54   55 1    
   106   54  110 1    
   107   55   56 1    
   108   55   59 1    
   109   55  111 1    
   110   56   57 am   BACKBONE|DICT|INTERRES
   111   56   58 2    
   112   57  112 1    
   113   57  113 1    
   114   59   60 1    
   115   59  114 1    
   116   59  115 1    
   117   60   61 1    
   118   61  116 1    
   119   61  117 1    
@<TRIPOS>SUBSTRUCTURE
     1 UNK         1 GROUP             0       ****    0 ROOT    
