@<TRIPOS>MOLECULE
3R8
117   119    1
SMALL
USER_CHARGES


@<TRIPOS>ATOM
      1 CA         17.7191  -24.5076  -38.8418 C.3       0 UNK        -0.2013 
      2 C          17.5073  -24.5744  -40.3469 C.2       0 UNK         0.4866 
      3 O          17.4169  -23.5342  -40.9986 O.2       0 UNK        -0.5176 
      4 N          17.4287  -25.7908  -40.9052 N.am      1 UNK        -0.4884 
      5 CA         17.2020  -26.0421  -42.3374 C.3       1 UNK         0.0853 
      6 C6         16.6390  -27.4694  -42.5720 C.3       10 UNK        -0.0849 
      7 S7         15.4477  -27.5129  -43.9536 S.3       10 UNK        -0.2776 
      8 C8         15.3342  -29.2994  -44.2935 C.3       10 UNK         0.0316 
      9 C9         16.6520  -29.8858  -44.7825 C.ar      10 UNK        -0.0863 
     10 C10        17.2730  -30.9141  -44.0685 C.ar      10 UNK        -0.1009 
     11 C11        18.4815  -31.4595  -44.5120 C.ar      10 UNK        -0.0712 
     12 C12        19.0747  -30.9649  -45.6785 C.ar      10 UNK        -0.0894 
     13 C13        18.4562  -29.9432  -46.4072 C.ar      10 UNK        -0.0745 
     14 C14        17.2441  -29.4127  -45.9568 C.ar      10 UNK        -0.0972 
     15 C15        19.0731  -29.4217  -47.6965 C.3       10 UNK         0.0209 
     16 S16        19.8665  -27.8016  -47.4607 S.3       10 UNK        -0.2568 
     17 C17        21.4477  -28.2966  -46.7056 C.3       10 UNK        -0.0983 
     18 CA         22.3307  -27.0631  -46.3560 C.3       3 UNK         0.0876 
     19 N          21.7162  -26.1692  -45.3623 N.am      3 UNK        -0.4424 
     20 C          21.4146  -26.4666  -44.0898 C.2       2 UNK         0.4918 
     21 O          21.5620  -27.5821  -43.5844 O.2       2 UNK        -0.4875 
     22 CA         20.9241  -25.3164  -43.1882 C.3       2 UNK         0.0481 
     23 CB         20.9325  -23.9193  -43.8512 C.3       2 UNK        -0.1831 
     24 N          19.6207  -25.6133  -42.5883 N.am      2 UNK        -0.4498 
     25 C          18.4430  -25.7511  -43.2185 C.2       1 UNK         0.5027 
     26 O          18.3033  -25.6309  -44.4360 O.2       1 UNK        -0.4969 
     27 C          23.7790  -27.4405  -45.9591 C.2       3 UNK         0.5005 
     28 O          24.3447  -26.8455  -45.0372 O.2       3 UNK        -0.5279 
     29 N          24.3727  -28.4188  -46.6601 N.am      4 UNK        -0.4463 
     30 CA         25.7331  -28.9227  -46.4217 C.3       4 UNK         0.0283 
     31 CB         26.0993  -29.9340  -47.5200 C.3       4 UNK        -0.1875 
     32 C          25.9380  -29.5472  -45.0276 C.2       4 UNK         0.4949 
     33 O          27.0675  -29.5784  -44.5395 O.2       4 UNK        -0.5039 
     34 N          24.8448  -30.0123  -44.4078 N.am      5 UNK        -0.4663 
     35 CA         24.8081  -30.5052  -43.0309 C.3       5 UNK         0.0242 
     36 CB         23.4872  -31.2602  -42.8115 C.3       5 UNK        -0.1982 
     37 C          24.9539  -29.3935  -41.9752 C.2       5 UNK         0.5017 
     38 O          25.3792  -29.6953  -40.8601 O.2       5 UNK        -0.5012 
     39 N          24.5905  -28.1509  -42.3371 N.am      6 UNK        -0.4439 
     40 CA         24.4592  -26.9761  -41.4668 C.3       6 UNK         0.0297 
     41 CB         25.8326  -26.5251  -40.9254 C.3       6 UNK        -0.2006 
     42 C          23.4046  -27.1974  -40.3624 C.2       6 UNK         0.4892 
     43 O          23.6808  -26.9532  -39.1860 O.2       6 UNK        -0.5089 
     44 N          22.2174  -27.6593  -40.7876 N.am      7 UNK        -0.4243 
     45 CA         21.0629  -28.0821  -39.9854 C.3       7 UNK         0.0196 
     46 CB         20.5594  -26.9359  -39.0790 C.3       7 UNK        -0.2007 
     47 C          21.3241  -29.3856  -39.2033 C.2       7 UNK         0.5020 
     48 O          22.3802  -30.0041  -39.3493 O.2       7 UNK        -0.5147 
     49 N          20.3220  -29.8097  -38.4184 N.am      8 UNK        -0.4734 
     50 CA         20.2410  -31.0319  -37.5982 C.3       8 UNK         0.0238 
     51 CB         21.3399  -31.0695  -36.5172 C.3       8 UNK        -0.1912 
     52 C          20.2059  -32.3417  -38.4085 C.2       8 UNK         0.5038 
     53 O          19.3126  -33.1593  -38.1845 O.2       8 UNK        -0.5046 
     54 N          21.1553  -32.5020  -39.3376 N.am      9 UNK        -0.4200 
     55 CA         21.2733  -33.6034  -40.3083 C.3       9 UNK         0.0839 
     56 C          21.5665  -35.0012  -39.6828 C.2       9 UNK         0.5513 
     57 N          22.0599  -35.0817  -38.4528 N.am      9 UNK        -0.7519 
     58 O          21.3766  -36.0289  -40.3287 O.2       9 UNK        -0.4960 
     59 C59        20.0992  -33.6301  -41.3288 C.3       10 UNK        -0.0876 
     60 S60        19.8590  -32.0327  -42.1836 S.3       10 UNK        -0.2414 
     61 C61        19.1181  -32.6053  -43.7408 C.3       10 UNK         0.0169 
     62 H62        17.6387  -25.4880  -38.3731 H         1 UNK         0.0903 
     63 H63        18.7052  -24.1013  -38.6186 H         1 UNK         0.0903 
     64 H64        16.9725  -23.8569  -38.3871 H         1 UNK         0.0903 
     65 H65        17.4894  -26.6105  -40.3182 H         1 UNK         0.3096 
     66 H66        16.4420  -25.3232  -42.6539 H         1 UNK         0.1121 
     67 H67        16.0992  -27.8202  -41.6908 H         1 UNK         0.0849 
     68 H68        17.4420  -28.1913  -42.7351 H         1 UNK         0.0849 
     69 H69        14.9866  -29.8104  -43.3941 H         1 UNK         0.0865 
     70 H70        14.5702  -29.4661  -45.0541 H         1 UNK         0.0865 
     71 H71        16.8184  -31.2962  -43.1644 H         1 UNK         0.1346 
     72 H72        20.0093  -31.3836  -46.0258 H         1 UNK         0.1412 
     73 H73        16.7661  -28.6192  -46.5155 H         1 UNK         0.1426 
     74 H74        19.7951  -30.1328  -48.1011 H         1 UNK         0.0716 
     75 H75        18.2922  -29.3210  -48.4517 H         1 UNK         0.0716 
     76 H76        21.9396  -28.9519  -47.4252 H         1 UNK         0.0695 
     77 H77        21.2497  -28.9041  -45.8213 H         1 UNK         0.0695 
     78 H78        22.4377  -26.4662  -47.2633 H         1 UNK         0.0983 
     79 H79        21.5736  -25.2190  -45.6696 H         1 UNK         0.3095 
     80 H80        21.6279  -25.2716  -42.3565 H         1 UNK         0.0454 
     81 H81        20.6170  -23.1524  -43.1436 H         1 UNK         0.0851 
     82 H82        20.2665  -23.8605  -44.7126 H         1 UNK         0.0851 
     83 H83        21.9347  -23.6465  -44.1845 H         1 UNK         0.0851 
     84 H84        19.6186  -25.7414  -41.5877 H         1 UNK         0.2976 
     85 H85        23.8623  -28.8504  -47.4175 H         1 UNK         0.3116 
     86 H86        26.4161  -28.0740  -46.4978 H         1 UNK         0.0646 
     87 H87        26.0525  -29.4816  -48.5107 H         1 UNK         0.0847 
     88 H88        27.1164  -30.3049  -47.3850 H         1 UNK         0.0847 
     89 H89        25.4349  -30.7991  -47.5117 H         1 UNK         0.0847 
     90 H90        23.9626  -29.9587  -44.8950 H         1 UNK         0.3040 
     91 H91        25.6364  -31.2036  -42.8901 H         1 UNK         0.1015 
     92 H92        22.6212  -30.6174  -42.9781 H         1 UNK         0.0786 
     93 H93        23.4203  -31.6277  -41.7871 H         1 UNK         0.0786 
     94 H94        23.4011  -32.1223  -43.4731 H         1 UNK         0.0786 
     95 H95        24.3112  -27.9988  -43.3010 H         1 UNK         0.3172 
     96 H96        24.0792  -26.1728  -42.0996 H         1 UNK         0.0595 
     97 H97        26.2617  -27.2568  -40.2405 H         1 UNK         0.0839 
     98 H98        25.7449  -25.5849  -40.3798 H         1 UNK         0.0839 
     99 H99        26.5442  -26.3651  -41.7353 H         1 UNK         0.0839 
    100 H100       22.1164  -27.8251  -41.7863 H         1 UNK         0.2998 
    101 H101       20.2788  -28.3106  -40.7093 H         1 UNK         0.0822 
    102 H102       19.5675  -27.1485  -38.6811 H         1 UNK         0.0787 
    103 H103       21.2195  -26.7771  -38.2254 H         1 UNK         0.0787 
    104 H104       20.4940  -25.9942  -39.6228 H         1 UNK         0.0787 
    105 H105       19.4839  -29.2453  -38.4020 H         1 UNK         0.3055 
    106 H106       19.2833  -30.9716  -37.0778 H         1 UNK         0.1106 
    107 H107       21.2092  -31.9308  -35.8608 H         1 UNK         0.0828 
    108 H108       22.3395  -31.1400  -36.9465 H         1 UNK         0.0828 
    109 H109       21.3083  -30.1782  -35.8906 H         1 UNK         0.0828 
    110 H110       21.8229  -31.7406  -39.4398 H         1 UNK         0.2931 
    111 H111       22.1751  -33.3787  -40.8768 H         1 UNK         0.0412 
    112 H112       22.2578  -35.9873  -38.0565 H         1 UNK         0.3472 
    113 H113       22.2312  -34.2458  -37.9173 H         1 UNK         0.3472 
    114 H114       19.1661  -33.9046  -40.8343 H         1 UNK         0.0970 
    115 H115       20.2799  -34.3979  -42.0833 H         1 UNK         0.0970 
    116 H116       18.3557  -33.3557  -43.5255 H         1 UNK         0.0612 
    117 H117       19.8831  -33.1012  -44.3403 H         1 UNK         0.0612 
@<TRIPOS>BOND
     1    1    2 1    
     2    1   62 1    
     3    1   63 1    
     4    1   64 1    
     5    2    3 2    
     6    2    4 am   BACKBONE|DICT|INTERRES
     7    4    5 1    
     8    4   65 1    
     9    5    6 1    
    10    5   25 1    
    11    5   66 1    
    12    6    7 1    
    13    6   67 1    
    14    6   68 1    
    15    7    8 1    
    16    8    9 1    
    17    8   69 1    
    18    8   70 1    
    19    9   10 ar   
    20    9   14 ar   
    21   10   11 ar   
    22   10   71 1    
    23   11   12 ar   
    24   11   61 1    
    25   12   13 ar   
    26   12   72 1    
    27   13   14 ar   
    28   13   15 1    
    29   14   73 1    
    30   15   16 1    
    31   15   74 1    
    32   15   75 1    
    33   16   17 1    
    34   17   18 1    
    35   17   76 1    
    36   17   77 1    
    37   18   19 1    
    38   18   27 1    
    39   18   78 1    
    40   19   20 am   BACKBONE|DICT|INTERRES
    41   19   79 1    
    42   20   21 2    
    43   20   22 1    
    44   22   23 1    
    45   22   24 1    
    46   22   80 1    
    47   23   81 1    
    48   23   82 1    
    49   23   83 1    
    50   24   25 am   BACKBONE|DICT|INTERRES
    51   24   84 1    
    52   25   26 2    
    53   27   28 2    
    54   27   29 am   BACKBONE|DICT|INTERRES
    55   29   30 1    
    56   29   85 1    
    57   30   31 1    
    58   30   32 1    
    59   30   86 1    
    60   31   87 1    
    61   31   88 1    
    62   31   89 1    
    63   32   33 2    
    64   32   34 am   BACKBONE|DICT|INTERRES
    65   34   35 1    
    66   34   90 1    
    67   35   36 1    
    68   35   37 1    
    69   35   91 1    
    70   36   92 1    
    71   36   93 1    
    72   36   94 1    
    73   37   38 2    
    74   37   39 am   BACKBONE|DICT|INTERRES
    75   39   40 1    
    76   39   95 1    
    77   40   41 1    
    78   40   42 1    
    79   40   96 1    
    80   41   97 1    
    81   41   98 1    
    82   41   99 1    
    83   42   43 2    
    84   42   44 am   BACKBONE|DICT|INTERRES
    85   44   45 1    
    86   44  100 1    
    87   45   46 1    
    88   45   47 1    
    89   45  101 1    
    90   46  102 1    
    91   46  103 1    
    92   46  104 1    
    93   47   48 2    
    94   47   49 am   BACKBONE|DICT|INTERRES
    95   49   50 1    
    96   49  105 1    
    97   50   51 1    
    98   50   52 1    
    99   50  106 1    
   100   51  107 1    
   101   51  108 1    
   102   51  109 1    
   103   52   53 2    
   104   52   54 am   BACKBONE|DICT|INTERRES
   105   54   55 1    
   106   54  110 1    
   107   55   56 1    
   108   55   59 1    
   109   55  111 1    
   110   56   57 am   BACKBONE|DICT|INTERRES
   111   56   58 2    
   112   57  112 1    
   113   57  113 1    
   114   59   60 1    
   115   59  114 1    
   116   59  115 1    
   117   60   61 1    
   118   61  116 1    
   119   61  117 1    
@<TRIPOS>SUBSTRUCTURE
     1 UNK         1 GROUP             0       ****    0 ROOT    
