@<TRIPOS>MOLECULE
3R8
117   119    1
SMALL
USER_CHARGES


@<TRIPOS>ATOM
      1 CA         17.6797  -21.9091  -45.3947 C.3       0 UNK        -0.2013 
      2 C          16.6274  -22.6514  -44.5739 C.2       0 UNK         0.4866 
      3 O          15.8334  -22.0056  -43.8926 O.2       0 UNK        -0.5176 
      4 N          16.5598  -23.9897  -44.6097 N.am      1 UNK        -0.4884 
      5 CA         17.4730  -24.9270  -45.2729 C.3       1 UNK         0.0853 
      6 C6         16.8704  -26.3569  -45.3658 C.3       10 UNK        -0.0849 
      7 S7         16.0513  -26.9594  -43.8403 S.3       10 UNK        -0.2776 
      8 C8         15.5884  -28.6655  -44.2891 C.3       10 UNK         0.0316 
      9 C9         16.7940  -29.5930  -44.2723 C.ar      10 UNK        -0.0863 
     10 C10        17.1718  -30.2502  -43.0961 C.ar      10 UNK        -0.1009 
     11 C11        18.3205  -31.0482  -43.0704 C.ar      10 UNK        -0.0712 
     12 C12        19.0884  -31.1909  -44.2290 C.ar      10 UNK        -0.0894 
     13 C13        18.7148  -30.5423  -45.4073 C.ar      10 UNK        -0.0745 
     14 C14        17.5535  -29.7684  -45.4306 C.ar      10 UNK        -0.0972 
     15 C15        19.5835  -30.6276  -46.6477 C.3       10 UNK         0.0209 
     16 S16        20.5302  -29.0895  -46.8700 S.3       10 UNK        -0.2568 
     17 C17        21.9075  -29.2991  -45.6850 C.3       10 UNK        -0.0983 
     18 CA         21.9805  -28.2542  -44.5337 C.3       3 UNK         0.0876 
     19 N          21.5595  -26.9104  -44.9415 N.am      3 UNK        -0.4424 
     20 C          21.8909  -25.7739  -44.3175 C.2       2 UNK         0.4918 
     21 O          22.5967  -25.7325  -43.3092 O.2       2 UNK        -0.4875 
     22 CA         21.2911  -24.4768  -44.8817 C.3       2 UNK         0.0481 
     23 CB         22.1834  -23.9167  -45.9997 C.3       2 UNK        -0.1831 
     24 N          19.9162  -24.6321  -45.3748 N.am      2 UNK        -0.4498 
     25 C          18.8611  -24.9188  -44.5959 C.2       1 UNK         0.5027 
     26 O          18.9548  -25.1526  -43.3904 O.2       1 UNK        -0.4969 
     27 C          21.3720  -28.7353  -43.1962 C.2       3 UNK         0.5005 
     28 O          21.8481  -29.7386  -42.6677 O.2       3 UNK        -0.5279 
     29 N          20.4099  -27.9958  -42.6189 N.am      4 UNK        -0.4463 
     30 CA         19.9646  -28.1895  -41.2344 C.3       4 UNK         0.0283 
     31 CB         18.6174  -27.4877  -41.0117 C.3       4 UNK        -0.1875 
     32 C          20.9950  -27.7039  -40.1990 C.2       4 UNK         0.4949 
     33 O          20.9832  -28.1972  -39.0712 O.2       4 UNK        -0.5039 
     34 N          21.8506  -26.7477  -40.5866 N.am      5 UNK        -0.4663 
     35 CA         22.9307  -26.2109  -39.7584 C.3       5 UNK         0.0242 
     36 CB         22.9118  -24.6752  -39.8365 C.3       5 UNK        -0.1982 
     37 C          24.2953  -26.7536  -40.2047 C.2       5 UNK         0.5017 
     38 O          25.1199  -27.0847  -39.3528 O.2       5 UNK        -0.5012 
     39 N          24.5169  -26.8265  -41.5253 N.am      6 UNK        -0.4439 
     40 CA         25.7858  -27.2309  -42.1377 C.3       6 UNK         0.0297 
     41 CB         25.8427  -26.6960  -43.5791 C.3       6 UNK        -0.2006 
     42 C          26.0649  -28.7462  -42.1041 C.2       6 UNK         0.4892 
     43 O          27.1915  -29.1405  -42.4095 O.2       6 UNK        -0.5089 
     44 N          25.0697  -29.5682  -41.7490 N.am      7 UNK        -0.4243 
     45 CA         25.1910  -31.0183  -41.6121 C.3       7 UNK         0.0196 
     46 CB         24.7509  -31.7002  -42.9214 C.3       7 UNK        -0.2007 
     47 C          24.3572  -31.4976  -40.4168 C.2       7 UNK         0.5020 
     48 O          23.5289  -30.7495  -39.8948 O.2       7 UNK        -0.5147 
     49 N          24.5930  -32.7505  -40.0076 N.am      8 UNK        -0.4734 
     50 CA         23.9142  -33.4096  -38.8839 C.3       8 UNK         0.0238 
     51 CB         24.8398  -34.5047  -38.3250 C.3       8 UNK        -0.1912 
     52 C          22.5353  -33.9994  -39.2434 C.2       8 UNK         0.5038 
     53 O          21.8506  -34.4991  -38.3492 O.2       8 UNK        -0.5046 
     54 N          22.1568  -33.9419  -40.5270 N.am      9 UNK        -0.4200 
     55 CA         20.9439  -34.5321  -41.1131 C.3       9 UNK         0.0839 
     56 C          20.9944  -36.0859  -41.2141 C.2       9 UNK         0.5513 
     57 N          19.9025  -36.7203  -41.6191 N.am      9 UNK        -0.7519 
     58 O          22.0176  -36.7227  -40.9695 O.2       9 UNK        -0.4960 
     59 C59        19.6287  -33.9861  -40.4700 C.3       10 UNK        -0.0876 
     60 S60        18.4168  -33.4765  -41.7337 S.3       10 UNK        -0.2414 
     61 C61        18.7861  -31.6989  -41.7798 C.3       10 UNK         0.0169 
     62 H62        17.7563  -22.3014  -46.4075 H         1 UNK         0.0903 
     63 H63        17.4175  -20.8544  -45.4774 H         1 UNK         0.0903 
     64 H64        18.6559  -21.9685  -44.9145 H         1 UNK         0.0903 
     65 H65        15.8663  -24.4468  -44.0333 H         1 UNK         0.3096 
     66 H66        17.6032  -24.5853  -46.3012 H         1 UNK         0.1121 
     67 H67        16.1227  -26.3758  -46.1605 H         1 UNK         0.0849 
     68 H68        17.6400  -27.0658  -45.6718 H         1 UNK         0.0849 
     69 H69        14.8388  -29.0244  -43.5822 H         1 UNK         0.0865 
     70 H70        15.1088  -28.6737  -45.2691 H         1 UNK         0.0865 
     71 H71        16.5914  -30.1134  -42.1940 H         1 UNK         0.1346 
     72 H72        19.9945  -31.7806  -44.1996 H         1 UNK         0.1412 
     73 H73        17.2688  -29.2647  -46.3443 H         1 UNK         0.1426 
     74 H74        18.9506  -30.7828  -47.5227 H         1 UNK         0.0716 
     75 H75        20.2589  -31.4835  -46.6029 H         1 UNK         0.0716 
     76 H76        22.8204  -29.2198  -46.2772 H         1 UNK         0.0695 
     77 H77        21.9189  -30.3200  -45.2988 H         1 UNK         0.0695 
     78 H78        23.0418  -28.1713  -44.2951 H         1 UNK         0.0983 
     79 H79        20.9648  -26.8706  -45.7571 H         1 UNK         0.3095 
     80 H80        21.2717  -23.7468  -44.0697 H         1 UNK         0.0454 
     81 H81        23.2066  -23.7759  -45.6477 H         1 UNK         0.0851 
     82 H82        22.2252  -24.5849  -46.8607 H         1 UNK         0.0851 
     83 H83        21.8268  -22.9458  -46.3440 H         1 UNK         0.0851 
     84 H84        19.7718  -24.4591  -46.3598 H         1 UNK         0.2976 
     85 H85        20.0476  -27.1838  -43.1024 H         1 UNK         0.3116 
     86 H86        19.8190  -29.2554  -41.0653 H         1 UNK         0.0646 
     87 H87        18.2307  -27.6972  -40.0137 H         1 UNK         0.0847 
     88 H88        17.8701  -27.8295  -41.7250 H         1 UNK         0.0847 
     89 H89        18.7024  -26.4050  -41.1049 H         1 UNK         0.0847 
     90 H90        21.7931  -26.3990  -41.5362 H         1 UNK         0.3040 
     91 H91        22.7886  -26.4967  -38.7135 H         1 UNK         0.1015 
     92 H92        21.9690  -24.2735  -39.4647 H         1 UNK         0.0786 
     93 H93        23.0474  -24.3168  -40.8579 H         1 UNK         0.0786 
     94 H94        23.7091  -24.2436  -39.2298 H         1 UNK         0.0786 
     95 H95        23.7993  -26.4803  -42.1584 H         1 UNK         0.3172 
     96 H96        26.5921  -26.7512  -41.5787 H         1 UNK         0.0595 
     97 H97        26.8140  -26.8995  -44.0322 H         1 UNK         0.0839 
     98 H98        25.6945  -25.6163  -43.6092 H         1 UNK         0.0839 
     99 H99        25.0883  -27.1549  -44.2163 H         1 UNK         0.0839 
    100 H100       24.1804  -29.1867  -41.4502 H         1 UNK         0.2998 
    101 H101       26.2312  -31.2798  -41.4051 H         1 UNK         0.0822 
    102 H102       23.6988  -31.5173  -43.1397 H         1 UNK         0.0787 
    103 H103       25.3334  -31.3397  -43.7694 H         1 UNK         0.0787 
    104 H104       24.8911  -32.7805  -42.8729 H         1 UNK         0.0787 
    105 H105       25.2912  -33.2973  -40.4927 H         1 UNK         0.3055 
    106 H106       23.7453  -32.6725  -38.0952 H         1 UNK         0.1106 
    107 H107       25.0322  -35.2857  -39.0618 H         1 UNK         0.0828 
    108 H108       25.7991  -34.0931  -38.0108 H         1 UNK         0.0828 
    109 H109       24.3965  -34.9851  -37.4515 H         1 UNK         0.0828 
    110 H110       22.8016  -33.5286  -41.1830 H         1 UNK         0.2931 
    111 H111       20.9915  -34.1929  -42.1488 H         1 UNK         0.0412 
    112 H112       19.0644  -36.2058  -41.8455 H         1 UNK         0.3472 
    113 H113       19.9176  -37.7247  -41.7062 H         1 UNK         0.3472 
    114 H114       19.1685  -34.7201  -39.8057 H         1 UNK         0.0970 
    115 H115       19.8326  -33.1274  -39.8283 H         1 UNK         0.0970 
    116 H116       18.3298  -31.2164  -40.9142 H         1 UNK         0.0612 
    117 H117       19.8638  -31.5528  -41.6851 H         1 UNK         0.0612 
@<TRIPOS>BOND
     1    1    2 1    
     2    1   62 1    
     3    1   63 1    
     4    1   64 1    
     5    2    3 2    
     6    2    4 am   BACKBONE|DICT|INTERRES
     7    4    5 1    
     8    4   65 1    
     9    5    6 1    
    10    5   25 1    
    11    5   66 1    
    12    6    7 1    
    13    6   67 1    
    14    6   68 1    
    15    7    8 1    
    16    8    9 1    
    17    8   69 1    
    18    8   70 1    
    19    9   10 ar   
    20    9   14 ar   
    21   10   11 ar   
    22   10   71 1    
    23   11   12 ar   
    24   11   61 1    
    25   12   13 ar   
    26   12   72 1    
    27   13   14 ar   
    28   13   15 1    
    29   14   73 1    
    30   15   16 1    
    31   15   74 1    
    32   15   75 1    
    33   16   17 1    
    34   17   18 1    
    35   17   76 1    
    36   17   77 1    
    37   18   19 1    
    38   18   27 1    
    39   18   78 1    
    40   19   20 am   BACKBONE|DICT|INTERRES
    41   19   79 1    
    42   20   21 2    
    43   20   22 1    
    44   22   23 1    
    45   22   24 1    
    46   22   80 1    
    47   23   81 1    
    48   23   82 1    
    49   23   83 1    
    50   24   25 am   BACKBONE|DICT|INTERRES
    51   24   84 1    
    52   25   26 2    
    53   27   28 2    
    54   27   29 am   BACKBONE|DICT|INTERRES
    55   29   30 1    
    56   29   85 1    
    57   30   31 1    
    58   30   32 1    
    59   30   86 1    
    60   31   87 1    
    61   31   88 1    
    62   31   89 1    
    63   32   33 2    
    64   32   34 am   BACKBONE|DICT|INTERRES
    65   34   35 1    
    66   34   90 1    
    67   35   36 1    
    68   35   37 1    
    69   35   91 1    
    70   36   92 1    
    71   36   93 1    
    72   36   94 1    
    73   37   38 2    
    74   37   39 am   BACKBONE|DICT|INTERRES
    75   39   40 1    
    76   39   95 1    
    77   40   41 1    
    78   40   42 1    
    79   40   96 1    
    80   41   97 1    
    81   41   98 1    
    82   41   99 1    
    83   42   43 2    
    84   42   44 am   BACKBONE|DICT|INTERRES
    85   44   45 1    
    86   44  100 1    
    87   45   46 1    
    88   45   47 1    
    89   45  101 1    
    90   46  102 1    
    91   46  103 1    
    92   46  104 1    
    93   47   48 2    
    94   47   49 am   BACKBONE|DICT|INTERRES
    95   49   50 1    
    96   49  105 1    
    97   50   51 1    
    98   50   52 1    
    99   50  106 1    
   100   51  107 1    
   101   51  108 1    
   102   51  109 1    
   103   52   53 2    
   104   52   54 am   BACKBONE|DICT|INTERRES
   105   54   55 1    
   106   54  110 1    
   107   55   56 1    
   108   55   59 1    
   109   55  111 1    
   110   56   57 am   BACKBONE|DICT|INTERRES
   111   56   58 2    
   112   57  112 1    
   113   57  113 1    
   114   59   60 1    
   115   59  114 1    
   116   59  115 1    
   117   60   61 1    
   118   61  116 1    
   119   61  117 1    
@<TRIPOS>SUBSTRUCTURE
     1 UNK         1 GROUP             0       ****    0 ROOT    
