@<TRIPOS>MOLECULE
3R8
117   119    1
SMALL
USER_CHARGES


@<TRIPOS>ATOM
      1 CA         19.6514  -26.7368  -49.0130 C.3       0 UNK        -0.2013 
      2 C          18.8567  -26.4304  -47.7524 C.2       0 UNK         0.4866 
      3 O          18.3635  -25.3127  -47.6010 O.2       0 UNK        -0.5176 
      4 N          18.7399  -27.4150  -46.8495 N.am      1 UNK        -0.4884 
      5 CA         18.0026  -27.3549  -45.5753 C.3       1 UNK         0.0853 
      6 C6         16.4660  -27.1965  -45.7474 C.3       10 UNK        -0.0849 
      7 S7         15.7421  -28.6005  -46.6596 S.3       10 UNK        -0.2776 
      8 C8         14.9738  -29.5574  -45.3093 C.3       10 UNK         0.0316 
      9 C9         15.9770  -30.0129  -44.2540 C.ar      10 UNK        -0.0863 
     10 C10        17.0462  -30.8421  -44.6067 C.ar      10 UNK        -0.1009 
     11 C11        17.9524  -31.2836  -43.6389 C.ar      10 UNK        -0.0712 
     12 C12        17.7712  -30.9093  -42.3046 C.ar      10 UNK        -0.0894 
     13 C13        16.7008  -30.0886  -41.9324 C.ar      10 UNK        -0.0745 
     14 C14        15.8145  -29.6356  -42.9161 C.ar      10 UNK        -0.0972 
     15 C15        16.4430  -29.7531  -40.4647 C.3       10 UNK         0.0209 
     16 S16        17.9232  -29.2092  -39.5468 S.3       10 UNK        -0.2568 
     17 C17        18.1943  -27.5395  -40.2258 C.3       10 UNK        -0.0983 
     18 CA         19.6968  -27.2434  -40.4883 C.3       3 UNK         0.0876 
     19 N          19.8424  -26.3565  -41.6504 N.am      3 UNK        -0.4424 
     20 C          20.9324  -26.1453  -42.3967 C.2       2 UNK         0.4918 
     21 O          22.0516  -26.5794  -42.1145 O.2       2 UNK        -0.4875 
     22 CA         20.7147  -25.3509  -43.6964 C.3       2 UNK         0.0481 
     23 CB         22.0381  -24.9367  -44.3641 C.3       2 UNK        -0.1831 
     24 N          19.9289  -26.1446  -44.6422 N.am      2 UNK        -0.4498 
     25 C          18.6038  -26.3422  -44.5761 C.2       1 UNK         0.5027 
     26 O          17.8844  -25.7903  -43.7396 O.2       1 UNK        -0.4969 
     27 C          20.4687  -26.7743  -39.2239 C.2       3 UNK         0.5005 
     28 O          19.9406  -26.8170  -38.1113 O.2       3 UNK        -0.5279 
     29 N          21.7173  -26.3427  -39.4184 N.am      4 UNK        -0.4463 
     30 CA         22.6941  -25.9683  -38.4010 C.3       4 UNK         0.0283 
     31 CB         22.4112  -24.5587  -37.8497 C.3       4 UNK        -0.1875 
     32 C          24.1044  -26.0694  -38.9943 C.2       4 UNK         0.4949 
     33 O          24.9682  -26.7044  -38.3913 O.2       4 UNK        -0.5039 
     34 N          24.3049  -25.4689  -40.1782 N.am      5 UNK        -0.4663 
     35 CA         25.5664  -25.5181  -40.9242 C.3       5 UNK         0.0242 
     36 CB         25.6127  -24.3668  -41.9423 C.3       5 UNK        -0.1982 
     37 C          25.7776  -26.8733  -41.6183 C.2       5 UNK         0.5017 
     38 O          26.8524  -27.4596  -41.4881 O.2       5 UNK        -0.5012 
     39 N          24.7421  -27.3503  -42.3232 N.am      6 UNK        -0.4439 
     40 CA         24.6882  -28.6863  -42.9218 C.3       6 UNK         0.0297 
     41 CB         23.7594  -28.6646  -44.1474 C.3       6 UNK        -0.2006 
     42 C          24.2128  -29.7365  -41.9049 C.2       6 UNK         0.4892 
     43 O          24.5968  -30.9003  -42.0232 O.2       6 UNK        -0.5089 
     44 N          23.4003  -29.3024  -40.9274 N.am      7 UNK        -0.4243 
     45 CA         22.8436  -30.0732  -39.8110 C.3       7 UNK         0.0196 
     46 CB         23.9548  -30.4466  -38.8043 C.3       7 UNK        -0.2007 
     47 C          22.0191  -31.2732  -40.3082 C.2       7 UNK         0.5020 
     48 O          20.8929  -31.0767  -40.7582 O.2       7 UNK        -0.5147 
     49 N          22.5954  -32.4805  -40.2436 N.am      8 UNK        -0.4734 
     50 CA         22.0088  -33.7218  -40.7591 C.3       8 UNK         0.0238 
     51 CB         22.7350  -34.9162  -40.1171 C.3       8 UNK        -0.1912 
     52 C          22.0329  -33.8353  -42.2974 C.2       8 UNK         0.5038 
     53 O          21.4031  -34.7493  -42.8311 O.2       8 UNK        -0.5046 
     54 N          22.7530  -32.9301  -42.9749 N.am      9 UNK        -0.4200 
     55 CA         22.9208  -32.8481  -44.4359 C.3       9 UNK         0.0839 
     56 C          23.8150  -33.9716  -45.0427 C.2       9 UNK         0.5513 
     57 N          24.5928  -34.6994  -44.2499 N.am      9 UNK        -0.7519 
     58 O          23.8303  -34.1709  -46.2549 O.2       9 UNK        -0.4960 
     59 C59        21.5874  -32.6593  -45.2198 C.3       10 UNK        -0.0876 
     60 S60        20.5477  -31.2779  -44.6220 S.3       10 UNK        -0.2414 
     61 C61        19.0965  -32.2040  -44.0304 C.3       10 UNK         0.0169 
     62 H62        20.0342  -27.7572  -49.0179 H         1 UNK         0.0903 
     63 H63        19.0217  -26.6077  -49.8929 H         1 UNK         0.0903 
     64 H64        20.4984  -26.0564  -49.0975 H         1 UNK         0.0903 
     65 H65        19.1652  -28.3102  -47.0497 H         1 UNK         0.3096 
     66 H66        18.1731  -28.3198  -45.0962 H         1 UNK         0.1121 
     67 H67        16.2285  -26.2729  -46.2770 H         1 UNK         0.0849 
     68 H68        15.9663  -27.1208  -44.7799 H         1 UNK         0.0849 
     69 H69        14.1794  -28.9589  -44.8605 H         1 UNK         0.0865 
     70 H70        14.4873  -30.4363  -45.7345 H         1 UNK         0.0865 
     71 H71        17.1734  -31.1432  -45.6379 H         1 UNK         0.1346 
     72 H72        18.4554  -31.2725  -41.5503 H         1 UNK         0.1412 
     73 H73        14.9773  -29.0114  -42.6342 H         1 UNK         0.1426 
     74 H74        16.0464  -30.6445  -39.9774 H         1 UNK         0.0716 
     75 H75        15.6730  -28.9857  -40.3698 H         1 UNK         0.0716 
     76 H76        17.7412  -26.7971  -39.5662 H         1 UNK         0.0695 
     77 H77        17.6343  -27.4755  -41.1606 H         1 UNK         0.0695 
     78 H78        20.1680  -28.1844  -40.7839 H         1 UNK         0.0983 
     79 H79        18.9776  -25.9640  -42.0065 H         1 UNK         0.3095 
     80 H80        20.1658  -24.4402  -43.4478 H         1 UNK         0.0454 
     81 H81        22.6489  -25.7984  -44.6343 H         1 UNK         0.0851 
     82 H82        22.6294  -24.3109  -43.6956 H         1 UNK         0.0851 
     83 H83        21.8592  -24.3573  -45.2699 H         1 UNK         0.0851 
     84 H84        20.4441  -26.6464  -45.3510 H         1 UNK         0.2976 
     85 H85        22.0480  -26.3534  -40.3810 H         1 UNK         0.3116 
     86 H86        22.6292  -26.6853  -37.5795 H         1 UNK         0.0646 
     87 H87        22.4081  -23.8059  -38.6385 H         1 UNK         0.0847 
     88 H88        23.1679  -24.2665  -37.1205 H         1 UNK         0.0847 
     89 H89        21.4457  -24.5164  -37.3457 H         1 UNK         0.0847 
     90 H90        23.5557  -24.9325  -40.5907 H         1 UNK         0.3040 
     91 H91        26.3896  -25.3764  -40.2197 H         1 UNK         0.1015 
     92 H92        24.8116  -24.4387  -42.6778 H         1 UNK         0.0786 
     93 H93        26.5566  -24.3701  -42.4893 H         1 UNK         0.0786 
     94 H94        25.5301  -23.3981  -41.4489 H         1 UNK         0.0786 
     95 H95        23.8799  -26.8135  -42.3536 H         1 UNK         0.3172 
     96 H96        25.6874  -28.9699  -43.2592 H         1 UNK         0.0595 
     97 H97        23.7815  -29.6217  -44.6679 H         1 UNK         0.0839 
     98 H98        24.0662  -27.9038  -44.8649 H         1 UNK         0.0839 
     99 H99        22.7214  -28.4726  -43.8734 H         1 UNK         0.0839 
    100 H100       23.1067  -28.3389  -40.9845 H         1 UNK         0.2998 
    101 H101       22.1429  -29.4169  -39.2931 H         1 UNK         0.0822 
    102 H102       23.5521  -31.0190  -37.9674 H         1 UNK         0.0787 
    103 H103       24.7515  -31.0360  -39.2590 H         1 UNK         0.0787 
    104 H104       24.4135  -29.5504  -38.3858 H         1 UNK         0.0787 
    105 H105       23.5392  -32.5358  -39.8875 H         1 UNK         0.3055 
    106 H106       20.9593  -33.7550  -40.4574 H         1 UNK         0.1106 
    107 H107       22.3013  -35.8616  -40.4465 H         1 UNK         0.0828 
    108 H108       23.7934  -34.9350  -40.3797 H         1 UNK         0.0828 
    109 H109       22.6580  -34.8902  -39.0300 H         1 UNK         0.0828 
    110 H110       23.2768  -32.2377  -42.4477 H         1 UNK         0.2931 
    111 H111       23.5015  -31.9393  -44.5889 H         1 UNK         0.0412 
    112 H112       24.6057  -34.5333  -43.2566 H         1 UNK         0.3472 
    113 H113       25.1758  -35.4172  -44.6515 H         1 UNK         0.3472 
    114 H114       21.0141  -33.5874  -45.2123 H         1 UNK         0.0970 
    115 H115       21.8007  -32.4595  -46.2713 H         1 UNK         0.0970 
    116 H116       19.3861  -32.8228  -43.1806 H         1 UNK         0.0612 
    117 H117       18.7593  -32.8886  -44.8103 H         1 UNK         0.0612 
@<TRIPOS>BOND
     1    1    2 1    
     2    1   62 1    
     3    1   63 1    
     4    1   64 1    
     5    2    3 2    
     6    2    4 am   BACKBONE|DICT|INTERRES
     7    4    5 1    
     8    4   65 1    
     9    5    6 1    
    10    5   25 1    
    11    5   66 1    
    12    6    7 1    
    13    6   67 1    
    14    6   68 1    
    15    7    8 1    
    16    8    9 1    
    17    8   69 1    
    18    8   70 1    
    19    9   10 ar   
    20    9   14 ar   
    21   10   11 ar   
    22   10   71 1    
    23   11   12 ar   
    24   11   61 1    
    25   12   13 ar   
    26   12   72 1    
    27   13   14 ar   
    28   13   15 1    
    29   14   73 1    
    30   15   16 1    
    31   15   74 1    
    32   15   75 1    
    33   16   17 1    
    34   17   18 1    
    35   17   76 1    
    36   17   77 1    
    37   18   19 1    
    38   18   27 1    
    39   18   78 1    
    40   19   20 am   BACKBONE|DICT|INTERRES
    41   19   79 1    
    42   20   21 2    
    43   20   22 1    
    44   22   23 1    
    45   22   24 1    
    46   22   80 1    
    47   23   81 1    
    48   23   82 1    
    49   23   83 1    
    50   24   25 am   BACKBONE|DICT|INTERRES
    51   24   84 1    
    52   25   26 2    
    53   27   28 2    
    54   27   29 am   BACKBONE|DICT|INTERRES
    55   29   30 1    
    56   29   85 1    
    57   30   31 1    
    58   30   32 1    
    59   30   86 1    
    60   31   87 1    
    61   31   88 1    
    62   31   89 1    
    63   32   33 2    
    64   32   34 am   BACKBONE|DICT|INTERRES
    65   34   35 1    
    66   34   90 1    
    67   35   36 1    
    68   35   37 1    
    69   35   91 1    
    70   36   92 1    
    71   36   93 1    
    72   36   94 1    
    73   37   38 2    
    74   37   39 am   BACKBONE|DICT|INTERRES
    75   39   40 1    
    76   39   95 1    
    77   40   41 1    
    78   40   42 1    
    79   40   96 1    
    80   41   97 1    
    81   41   98 1    
    82   41   99 1    
    83   42   43 2    
    84   42   44 am   BACKBONE|DICT|INTERRES
    85   44   45 1    
    86   44  100 1    
    87   45   46 1    
    88   45   47 1    
    89   45  101 1    
    90   46  102 1    
    91   46  103 1    
    92   46  104 1    
    93   47   48 2    
    94   47   49 am   BACKBONE|DICT|INTERRES
    95   49   50 1    
    96   49  105 1    
    97   50   51 1    
    98   50   52 1    
    99   50  106 1    
   100   51  107 1    
   101   51  108 1    
   102   51  109 1    
   103   52   53 2    
   104   52   54 am   BACKBONE|DICT|INTERRES
   105   54   55 1    
   106   54  110 1    
   107   55   56 1    
   108   55   59 1    
   109   55  111 1    
   110   56   57 am   BACKBONE|DICT|INTERRES
   111   56   58 2    
   112   57  112 1    
   113   57  113 1    
   114   59   60 1    
   115   59  114 1    
   116   59  115 1    
   117   60   61 1    
   118   61  116 1    
   119   61  117 1    
@<TRIPOS>SUBSTRUCTURE
     1 UNK         1 GROUP             0       ****    0 ROOT    
