@<TRIPOS>MOLECULE
3R8
117   119    1
SMALL
USER_CHARGES


@<TRIPOS>ATOM
      1 CA         14.5023  -24.7037  -43.0305 C.3       0 UNK        -0.2013 
      2 C          15.9890  -24.7524  -42.7117 C.2       0 UNK         0.4866 
      3 O          16.5251  -23.7891  -42.1640 O.2       0 UNK        -0.5176 
      4 N          16.6534  -25.8638  -43.0617 N.am      1 UNK        -0.4884 
      5 CA         18.0807  -26.1480  -42.8290 C.3       1 UNK         0.0853 
      6 C6         18.4565  -26.2457  -41.3225 C.3       10 UNK        -0.0849 
      7 S7         17.5763  -27.5970  -40.4656 S.3       10 UNK        -0.2776 
      8 C8         18.9078  -28.8181  -40.2288 C.3       10 UNK         0.0316 
      9 C9         19.1621  -29.6411  -41.4847 C.ar      10 UNK        -0.0863 
     10 C10        18.5762  -30.9030  -41.6269 C.ar      10 UNK        -0.1009 
     11 C11        18.8172  -31.6820  -42.7637 C.ar      10 UNK        -0.0712 
     12 C12        19.6097  -31.1582  -43.7914 C.ar      10 UNK        -0.0894 
     13 C13        20.2000  -29.8984  -43.6618 C.ar      10 UNK        -0.0745 
     14 C14        19.9953  -29.1554  -42.4964 C.ar      10 UNK        -0.0972 
     15 C15        21.0371  -29.3264  -44.7911 C.3       10 UNK         0.0209 
     16 S16        20.0145  -28.2622  -45.8439 S.3       10 UNK        -0.2568 
     17 C17        21.2306  -27.6686  -47.0717 C.3       10 UNK        -0.0983 
     18 CA         21.9671  -26.3464  -46.7037 C.3       3 UNK         0.0876 
     19 N          21.1184  -25.3680  -46.0308 N.am      3 UNK        -0.4424 
     20 C          20.1618  -24.6342  -46.6026 C.2       2 UNK         0.4918 
     21 O          19.9270  -24.6400  -47.8126 O.2       2 UNK        -0.4875 
     22 CA         19.3023  -23.7846  -45.6464 C.3       2 UNK         0.0481 
     23 CB         18.3197  -22.8625  -46.3917 C.3       2 UNK        -0.1831 
     24 N          18.5457  -24.6384  -44.7269 N.am      2 UNK        -0.4498 
     25 C          19.0305  -25.2125  -43.6158 C.2       1 UNK         0.5027 
     26 O          20.1900  -25.0485  -43.2304 O.2       1 UNK        -0.4969 
     27 C          23.2275  -26.5716  -45.8523 C.2       3 UNK         0.5005 
     28 O          23.2111  -26.3181  -44.6440 O.2       3 UNK        -0.5279 
     29 N          24.3001  -27.0334  -46.5112 N.am      4 UNK        -0.4463 
     30 CA         25.6774  -27.0871  -46.0046 C.3       4 UNK         0.0283 
     31 CB         26.6028  -27.5862  -47.1270 C.3       4 UNK        -0.1875 
     32 C          25.9098  -27.9095  -44.7247 C.2       4 UNK         0.4949 
     33 O          26.8888  -27.6437  -44.0266 O.2       4 UNK        -0.5039 
     34 N          25.0362  -28.8852  -44.4341 N.am      5 UNK        -0.4663 
     35 CA         25.1053  -29.6991  -43.2145 C.3       5 UNK         0.0242 
     36 CB         24.1287  -30.8839  -43.3086 C.3       5 UNK        -0.1982 
     37 C          24.8445  -28.8847  -41.9349 C.2       5 UNK         0.5017 
     38 O          25.4844  -29.1527  -40.9182 O.2       5 UNK        -0.5012 
     39 N          23.9210  -27.9108  -42.0200 N.am      6 UNK        -0.4439 
     40 CA         23.5236  -26.9470  -40.9812 C.3       6 UNK         0.0297 
     41 CB         24.6438  -25.9045  -40.7868 C.3       6 UNK        -0.2006 
     42 C          23.0631  -27.5562  -39.6353 C.2       6 UNK         0.4892 
     43 O          23.0368  -26.8474  -38.6277 O.2       6 UNK        -0.5089 
     44 N          22.6999  -28.8423  -39.6314 N.am      7 UNK        -0.4243 
     45 CA         22.3011  -29.6351  -38.4735 C.3       7 UNK         0.0196 
     46 CB         23.5407  -30.0357  -37.6516 C.3       7 UNK        -0.2007 
     47 C          21.5592  -30.8722  -38.9882 C.2       7 UNK         0.5020 
     48 O          21.7073  -31.2132  -40.1636 O.2       7 UNK        -0.5147 
     49 N          20.7691  -31.4966  -38.1027 N.am      8 UNK        -0.4734 
     50 CA         19.8684  -32.6266  -38.3656 C.3       8 UNK         0.0238 
     51 CB         19.2585  -33.1014  -37.0348 C.3       8 UNK        -0.1912 
     52 C          20.5360  -33.7935  -39.1174 C.2       8 UNK         0.5038 
     53 O          21.2901  -34.5593  -38.5134 O.2       8 UNK        -0.5046 
     54 N          20.2560  -33.8789  -40.4226 N.am      9 UNK        -0.4200 
     55 CA         20.8380  -34.8471  -41.3592 C.3       9 UNK         0.0839 
     56 C          20.3075  -36.3063  -41.2431 C.2       9 UNK         0.5513 
     57 N          19.2731  -36.5793  -40.4564 N.am      9 UNK        -0.7519 
     58 O          20.8570  -37.2095  -41.8686 O.2       9 UNK        -0.4960 
     59 C59        20.8141  -34.2899  -42.8086 C.3       10 UNK        -0.0876 
     60 S60        19.2042  -34.3424  -43.6850 S.3       10 UNK        -0.2414 
     61 C61        18.1779  -33.0651  -42.8713 C.3       10 UNK         0.0169 
     62 H62        13.9274  -24.5721  -42.1142 H         1 UNK         0.0903 
     63 H63        14.2872  -23.8641  -43.6911 H         1 UNK         0.0903 
     64 H64        14.1579  -25.6157  -43.5178 H         1 UNK         0.0903 
     65 H65        16.1410  -26.6152  -43.5037 H         1 UNK         0.3096 
     66 H66        18.2513  -27.1312  -43.2697 H         1 UNK         0.1121 
     67 H67        18.2307  -25.3097  -40.8101 H         1 UNK         0.0849 
     68 H68        19.5290  -26.3920  -41.1895 H         1 UNK         0.0849 
     69 H69        19.8230  -28.3189  -39.9087 H         1 UNK         0.0865 
     70 H70        18.6279  -29.4769  -39.4054 H         1 UNK         0.0865 
     71 H71        17.9276  -31.2778  -40.8475 H         1 UNK         0.1346 
     72 H72        19.7690  -31.7306  -44.6946 H         1 UNK         0.1412 
     73 H73        20.4611  -28.1854  -42.3954 H         1 UNK         0.1426 
     74 H74        21.4761  -30.1263  -45.3895 H         1 UNK         0.0716 
     75 H75        21.8626  -28.7465  -44.3796 H         1 UNK         0.0716 
     76 H76        21.9316  -28.4704  -47.3110 H         1 UNK         0.0695 
     77 H77        20.6705  -27.5017  -47.9930 H         1 UNK         0.0695 
     78 H78        22.3113  -25.8837  -47.6317 H         1 UNK         0.0983 
     79 H79        21.2544  -25.3136  -45.0249 H         1 UNK         0.3095 
     80 H80        19.9792  -23.1504  -45.0701 H         1 UNK         0.0454 
     81 H81        18.8509  -22.1940  -47.0706 H         1 UNK         0.0851 
     82 H82        17.6025  -23.4290  -46.9869 H         1 UNK         0.0851 
     83 H83        17.7591  -22.2369  -45.6970 H         1 UNK         0.0851 
     84 H84        17.5928  -24.8490  -44.9859 H         1 UNK         0.2976 
     85 H85        24.1942  -27.2433  -47.4940 H         1 UNK         0.3116 
     86 H86        25.9631  -26.0601  -45.7675 H         1 UNK         0.0646 
     87 H87        27.6427  -27.6083  -46.7974 H         1 UNK         0.0847 
     88 H88        26.5596  -26.9351  -48.0003 H         1 UNK         0.0847 
     89 H89        26.3421  -28.5964  -47.4454 H         1 UNK         0.0847 
     90 H90        24.2751  -29.0569  -45.0736 H         1 UNK         0.3040 
     91 H91        26.1182  -30.1029  -43.1435 H         1 UNK         0.1015 
     92 H92        24.2979  -31.4737  -44.2096 H         1 UNK         0.0786 
     93 H93        23.0888  -30.5607  -43.3038 H         1 UNK         0.0786 
     94 H94        24.2537  -31.5538  -42.4565 H         1 UNK         0.0786 
     95 H95        23.5197  -27.7349  -42.9340 H         1 UNK         0.3172 
     96 H96        22.6542  -26.4237  -41.3825 H         1 UNK         0.0595 
     97 H97        24.9293  -25.4502  -41.7358 H         1 UNK         0.0839 
     98 H98        25.5360  -26.3516  -40.3470 H         1 UNK         0.0839 
     99 H99        24.3238  -25.0966  -40.1276 H         1 UNK         0.0839 
    100 H100       22.7016  -29.3671  -40.4980 H         1 UNK         0.2998 
    101 H101       21.6180  -29.0468  -37.8571 H         1 UNK         0.0822 
    102 H102       24.0612  -29.1603  -37.2629 H         1 UNK         0.0787 
    103 H103       23.2657  -30.6532  -36.7957 H         1 UNK         0.0787 
    104 H104       24.2509  -30.6050  -38.2530 H         1 UNK         0.0787 
    105 H105       20.7576  -31.1443  -37.1562 H         1 UNK         0.3055 
    106 H106       19.0503  -32.2483  -38.9797 H         1 UNK         0.1106 
    107 H107       18.6798  -32.3110  -36.5564 H         1 UNK         0.0828 
    108 H108       18.5830  -33.9434  -37.1924 H         1 UNK         0.0828 
    109 H109       20.0261  -33.4283  -36.3320 H         1 UNK         0.0828 
    110 H110       19.6808  -33.1661  -40.8449 H         1 UNK         0.2931 
    111 H111       21.8937  -34.9179  -41.0888 H         1 UNK         0.0412 
    112 H112       18.9431  -37.5292  -40.3855 H         1 UNK         0.3472 
    113 H113       18.8204  -35.8468  -39.9347 H         1 UNK         0.3472 
    114 H114       21.5185  -34.8614  -43.4156 H         1 UNK         0.0970 
    115 H115       21.2021  -33.2702  -42.8220 H         1 UNK         0.0970 
    116 H116       17.8929  -33.4342  -41.8854 H         1 UNK         0.0612 
    117 H117       17.2493  -32.9670  -43.4347 H         1 UNK         0.0612 
@<TRIPOS>BOND
     1    1    2 1    
     2    1   62 1    
     3    1   63 1    
     4    1   64 1    
     5    2    3 2    
     6    2    4 am   BACKBONE|DICT|INTERRES
     7    4    5 1    
     8    4   65 1    
     9    5    6 1    
    10    5   25 1    
    11    5   66 1    
    12    6    7 1    
    13    6   67 1    
    14    6   68 1    
    15    7    8 1    
    16    8    9 1    
    17    8   69 1    
    18    8   70 1    
    19    9   10 ar   
    20    9   14 ar   
    21   10   11 ar   
    22   10   71 1    
    23   11   12 ar   
    24   11   61 1    
    25   12   13 ar   
    26   12   72 1    
    27   13   14 ar   
    28   13   15 1    
    29   14   73 1    
    30   15   16 1    
    31   15   74 1    
    32   15   75 1    
    33   16   17 1    
    34   17   18 1    
    35   17   76 1    
    36   17   77 1    
    37   18   19 1    
    38   18   27 1    
    39   18   78 1    
    40   19   20 am   BACKBONE|DICT|INTERRES
    41   19   79 1    
    42   20   21 2    
    43   20   22 1    
    44   22   23 1    
    45   22   24 1    
    46   22   80 1    
    47   23   81 1    
    48   23   82 1    
    49   23   83 1    
    50   24   25 am   BACKBONE|DICT|INTERRES
    51   24   84 1    
    52   25   26 2    
    53   27   28 2    
    54   27   29 am   BACKBONE|DICT|INTERRES
    55   29   30 1    
    56   29   85 1    
    57   30   31 1    
    58   30   32 1    
    59   30   86 1    
    60   31   87 1    
    61   31   88 1    
    62   31   89 1    
    63   32   33 2    
    64   32   34 am   BACKBONE|DICT|INTERRES
    65   34   35 1    
    66   34   90 1    
    67   35   36 1    
    68   35   37 1    
    69   35   91 1    
    70   36   92 1    
    71   36   93 1    
    72   36   94 1    
    73   37   38 2    
    74   37   39 am   BACKBONE|DICT|INTERRES
    75   39   40 1    
    76   39   95 1    
    77   40   41 1    
    78   40   42 1    
    79   40   96 1    
    80   41   97 1    
    81   41   98 1    
    82   41   99 1    
    83   42   43 2    
    84   42   44 am   BACKBONE|DICT|INTERRES
    85   44   45 1    
    86   44  100 1    
    87   45   46 1    
    88   45   47 1    
    89   45  101 1    
    90   46  102 1    
    91   46  103 1    
    92   46  104 1    
    93   47   48 2    
    94   47   49 am   BACKBONE|DICT|INTERRES
    95   49   50 1    
    96   49  105 1    
    97   50   51 1    
    98   50   52 1    
    99   50  106 1    
   100   51  107 1    
   101   51  108 1    
   102   51  109 1    
   103   52   53 2    
   104   52   54 am   BACKBONE|DICT|INTERRES
   105   54   55 1    
   106   54  110 1    
   107   55   56 1    
   108   55   59 1    
   109   55  111 1    
   110   56   57 am   BACKBONE|DICT|INTERRES
   111   56   58 2    
   112   57  112 1    
   113   57  113 1    
   114   59   60 1    
   115   59  114 1    
   116   59  115 1    
   117   60   61 1    
   118   61  116 1    
   119   61  117 1    
@<TRIPOS>SUBSTRUCTURE
     1 UNK         1 GROUP             0       ****    0 ROOT    
