@<TRIPOS>MOLECULE
3R8
117   119    1
SMALL
USER_CHARGES


@<TRIPOS>ATOM
      1 CA         15.5502  -24.3776  -40.5622 C.3       0 UNK        -0.2013 
      2 C          16.1018  -25.4649  -41.4723 C.2       0 UNK         0.4866 
      3 O          15.3368  -26.2889  -41.9748 O.2       0 UNK        -0.5176 
      4 N          17.4241  -25.4796  -41.6808 N.am      1 UNK        -0.4884 
      5 CA         18.1204  -26.4206  -42.5639 C.3       1 UNK         0.0853 
      6 C6         19.6511  -26.4021  -42.3230 C.3       10 UNK        -0.0849 
      7 S7         20.0640  -27.3361  -40.8156 S.3       10 UNK        -0.2776 
      8 C8         20.9826  -28.7610  -41.4889 C.3       10 UNK         0.0316 
      9 C9         20.2706  -29.5048  -42.6173 C.ar      10 UNK        -0.0863 
     10 C10        18.9658  -29.9770  -42.4506 C.ar      10 UNK        -0.1009 
     11 C11        18.3474  -30.7239  -43.4577 C.ar      10 UNK        -0.0712 
     12 C12        19.0395  -30.9948  -44.6418 C.ar      10 UNK        -0.0894 
     13 C13        20.3546  -30.5562  -44.8118 C.ar      10 UNK        -0.0745 
     14 C14        20.9540  -29.7909  -43.8050 C.ar      10 UNK        -0.0972 
     15 C15        21.1558  -31.0146  -46.0276 C.3       10 UNK         0.0209 
     16 S16        21.0191  -29.8996  -47.4621 S.3       10 UNK        -0.2568 
     17 C17        22.0651  -28.5026  -46.9229 C.3       10 UNK        -0.0983 
     18 CA         21.3319  -27.1295  -46.8332 C.3       3 UNK         0.0876 
     19 N          19.9609  -27.2562  -46.3383 N.am      3 UNK        -0.4424 
     20 C          18.8511  -26.8990  -46.9945 C.2       2 UNK         0.4918 
     21 O          18.8412  -26.3890  -48.1156 O.2       2 UNK        -0.4875 
     22 CA         17.5146  -27.1715  -46.2804 C.3       2 UNK         0.0481 
     23 CB         16.9116  -28.4976  -46.7709 C.3       2 UNK        -0.1831 
     24 N          17.6609  -27.2207  -44.8238 N.am      2 UNK        -0.4498 
     25 C          17.8045  -26.1407  -44.0436 C.2       1 UNK         0.5027 
     26 O          17.7389  -24.9779  -44.4508 O.2       1 UNK        -0.4969 
     27 C          22.0859  -26.1256  -45.9327 C.2       3 UNK         0.5005 
     28 O          21.4564  -25.2894  -45.2776 O.2       3 UNK        -0.5279 
     29 N          23.4213  -26.2396  -45.8800 N.am      4 UNK        -0.4463 
     30 CA         24.2671  -25.5908  -44.8756 C.3       4 UNK         0.0283 
     31 CB         25.7439  -25.7978  -45.2480 C.3       4 UNK        -0.1875 
     32 C          23.9850  -26.1524  -43.4694 C.2       4 UNK         0.4949 
     33 O          23.6592  -27.3345  -43.3370 O.2       4 UNK        -0.5039 
     34 N          24.1185  -25.2915  -42.4543 N.am      5 UNK        -0.4663 
     35 CA         23.8491  -25.5976  -41.0471 C.3       5 UNK         0.0242 
     36 CB         23.8880  -24.2845  -40.2463 C.3       5 UNK        -0.1982 
     37 C          24.8184  -26.6294  -40.4381 C.2       5 UNK         0.5017 
     38 O          25.9074  -26.8526  -40.9705 O.2       5 UNK        -0.5012 
     39 N          24.3966  -27.2098  -39.3046 N.am      6 UNK        -0.4439 
     40 CA         25.1122  -28.1735  -38.4519 C.3       6 UNK         0.0297 
     41 CB         26.4759  -27.6219  -37.9832 C.3       6 UNK        -0.2006 
     42 C          25.2309  -29.6014  -39.0229 C.2       6 UNK         0.4892 
     43 O          25.8060  -30.4614  -38.3548 O.2       6 UNK        -0.5089 
     44 N          24.6509  -29.8583  -40.2042 N.am      7 UNK        -0.4243 
     45 CA         24.5600  -31.1909  -40.8152 C.3       7 UNK         0.0196 
     46 CB         24.3038  -31.0314  -42.3212 C.3       7 UNK        -0.2007 
     47 C          23.4793  -32.0877  -40.1764 C.2       7 UNK         0.5020 
     48 O          23.4664  -33.2914  -40.4372 O.2       7 UNK        -0.5147 
     49 N          22.5791  -31.4883  -39.3791 N.am      8 UNK        -0.4734 
     50 CA         21.5054  -32.1158  -38.5901 C.3       8 UNK         0.0238 
     51 CB         22.1137  -32.9531  -37.4449 C.3       8 UNK        -0.1912 
     52 C          20.4717  -32.9212  -39.4072 C.2       8 UNK         0.5038 
     53 O          19.7688  -33.7560  -38.8348 O.2       8 UNK        -0.5046 
     54 N          20.3916  -32.6610  -40.7192 N.am      9 UNK        -0.4200 
     55 CA         19.5745  -33.4001  -41.6940 C.3       9 UNK         0.0839 
     56 C          20.0351  -34.8736  -41.9221 C.2       9 UNK         0.5513 
     57 N          21.2795  -35.2248  -41.6129 N.am      9 UNK        -0.7519 
     58 O          19.2729  -35.7072  -42.4044 O.2       9 UNK        -0.4960 
     59 C59        18.0449  -33.2320  -41.4311 C.3       10 UNK        -0.0876 
     60 S60        17.0559  -33.1212  -42.9645 S.3       10 UNK        -0.2414 
     61 C61        16.9657  -31.3184  -43.2339 C.3       10 UNK         0.0169 
     62 H62        15.0356  -24.8250  -39.7122 H         1 UNK         0.0903 
     63 H63        16.3369  -23.7282  -40.1784 H         1 UNK         0.0903 
     64 H64        14.8363  -23.7598  -41.1064 H         1 UNK         0.0903 
     65 H65        18.0036  -24.7725  -41.2517 H         1 UNK         0.3096 
     66 H66        17.7384  -27.4180  -42.3358 H         1 UNK         0.1121 
     67 H67        20.2020  -26.8288  -43.1634 H         1 UNK         0.0849 
     68 H68        20.0217  -25.3799  -42.2272 H         1 UNK         0.0849 
     69 H69        21.9626  -28.4151  -41.8125 H         1 UNK         0.0865 
     70 H70        21.1621  -29.4611  -40.6745 H         1 UNK         0.0865 
     71 H71        18.4461  -29.7929  -41.5200 H         1 UNK         0.1346 
     72 H72        18.5746  -31.6063  -45.4032 H         1 UNK         0.1412 
     73 H73        21.9745  -29.4566  -43.9244 H         1 UNK         0.1426 
     74 H74        22.2066  -31.1397  -45.7614 H         1 UNK         0.0716 
     75 H75        20.8129  -32.0044  -46.3331 H         1 UNK         0.0716 
     76 H76        22.8936  -28.4303  -47.6293 H         1 UNK         0.0695 
     77 H77        22.5214  -28.7682  -45.9695 H         1 UNK         0.0695 
     78 H78        21.3190  -26.6919  -47.8336 H         1 UNK         0.0983 
     79 H79        19.8678  -27.6461  -45.4138 H         1 UNK         0.3095 
     80 H80        16.8234  -26.3660  -46.5377 H         1 UNK         0.0454 
     81 H81        15.9513  -28.6997  -46.2964 H         1 UNK         0.0851 
     82 H82        17.5721  -29.3418  -46.5702 H         1 UNK         0.0851 
     83 H83        16.7405  -28.4709  -47.8479 H         1 UNK         0.0851 
     84 H84        17.7173  -28.1404  -44.4085 H         1 UNK         0.2976 
     85 H85        23.8633  -26.9597  -46.4322 H         1 UNK         0.3116 
     86 H86        24.0479  -24.5208  -44.8830 H         1 UNK         0.0646 
     87 H87        25.9692  -25.3851  -46.2315 H         1 UNK         0.0847 
     88 H88        26.4001  -25.3015  -44.5317 H         1 UNK         0.0847 
     89 H89        26.0141  -26.8547  -45.2551 H         1 UNK         0.0847 
     90 H90        24.4293  -24.3523  -42.6562 H         1 UNK         0.3040 
     91 H91        22.8394  -26.0100  -40.9920 H         1 UNK         0.1015 
     92 H92        24.8756  -23.8223  -40.2793 H         1 UNK         0.0786 
     93 H93        23.6427  -24.4508  -39.1965 H         1 UNK         0.0786 
     94 H94        23.1664  -23.5632  -40.6310 H         1 UNK         0.0786 
     95 H95        23.4843  -26.9425  -38.9587 H         1 UNK         0.3172 
     96 H96        24.4914  -28.2751  -37.5604 H         1 UNK         0.0595 
     97 H97        27.1972  -27.5678  -38.7988 H         1 UNK         0.0839 
     98 H98        26.9115  -28.2605  -37.2137 H         1 UNK         0.0839 
     99 H99        26.3765  -26.6247  -37.5545 H         1 UNK         0.0839 
    100 H100       24.2498  -29.0873  -40.7178 H         1 UNK         0.2998 
    101 H101       25.5185  -31.6984  -40.6860 H         1 UNK         0.0822 
    102 H102       25.0838  -30.4376  -42.7984 H         1 UNK         0.0787 
    103 H103       24.2811  -32.0006  -42.8216 H         1 UNK         0.0787 
    104 H104       23.3499  -30.5447  -42.5102 H         1 UNK         0.0787 
    105 H105       22.6881  -30.4941  -39.2418 H         1 UNK         0.3055 
    106 H106       20.9427  -31.2986  -38.1357 H         1 UNK         0.1106 
    107 H107       22.8213  -32.3679  -36.8575 H         1 UNK         0.0828 
    108 H108       21.3422  -33.3055  -36.7591 H         1 UNK         0.0828 
    109 H109       22.6380  -33.8315  -37.8229 H         1 UNK         0.0828 
    110 H110       21.0191  -31.9741  -41.1077 H         1 UNK         0.2931 
    111 H111       19.8072  -32.9125  -42.6394 H         1 UNK         0.0412 
    112 H112       21.9274  -34.5528  -41.2184 H         1 UNK         0.3472 
    113 H113       21.5759  -36.1753  -41.7687 H         1 UNK         0.3472 
    114 H114       17.8532  -32.3294  -40.8494 H         1 UNK         0.0970 
    115 H115       17.6641  -34.0514  -40.8190 H         1 UNK         0.0970 
    116 H116       16.4693  -30.8482  -42.3836 H         1 UNK         0.0612 
    117 H117       16.3405  -31.1201  -44.1055 H         1 UNK         0.0612 
@<TRIPOS>BOND
     1    1    2 1    
     2    1   62 1    
     3    1   63 1    
     4    1   64 1    
     5    2    3 2    
     6    2    4 am   BACKBONE|DICT|INTERRES
     7    4    5 1    
     8    4   65 1    
     9    5    6 1    
    10    5   25 1    
    11    5   66 1    
    12    6    7 1    
    13    6   67 1    
    14    6   68 1    
    15    7    8 1    
    16    8    9 1    
    17    8   69 1    
    18    8   70 1    
    19    9   10 ar   
    20    9   14 ar   
    21   10   11 ar   
    22   10   71 1    
    23   11   12 ar   
    24   11   61 1    
    25   12   13 ar   
    26   12   72 1    
    27   13   14 ar   
    28   13   15 1    
    29   14   73 1    
    30   15   16 1    
    31   15   74 1    
    32   15   75 1    
    33   16   17 1    
    34   17   18 1    
    35   17   76 1    
    36   17   77 1    
    37   18   19 1    
    38   18   27 1    
    39   18   78 1    
    40   19   20 am   BACKBONE|DICT|INTERRES
    41   19   79 1    
    42   20   21 2    
    43   20   22 1    
    44   22   23 1    
    45   22   24 1    
    46   22   80 1    
    47   23   81 1    
    48   23   82 1    
    49   23   83 1    
    50   24   25 am   BACKBONE|DICT|INTERRES
    51   24   84 1    
    52   25   26 2    
    53   27   28 2    
    54   27   29 am   BACKBONE|DICT|INTERRES
    55   29   30 1    
    56   29   85 1    
    57   30   31 1    
    58   30   32 1    
    59   30   86 1    
    60   31   87 1    
    61   31   88 1    
    62   31   89 1    
    63   32   33 2    
    64   32   34 am   BACKBONE|DICT|INTERRES
    65   34   35 1    
    66   34   90 1    
    67   35   36 1    
    68   35   37 1    
    69   35   91 1    
    70   36   92 1    
    71   36   93 1    
    72   36   94 1    
    73   37   38 2    
    74   37   39 am   BACKBONE|DICT|INTERRES
    75   39   40 1    
    76   39   95 1    
    77   40   41 1    
    78   40   42 1    
    79   40   96 1    
    80   41   97 1    
    81   41   98 1    
    82   41   99 1    
    83   42   43 2    
    84   42   44 am   BACKBONE|DICT|INTERRES
    85   44   45 1    
    86   44  100 1    
    87   45   46 1    
    88   45   47 1    
    89   45  101 1    
    90   46  102 1    
    91   46  103 1    
    92   46  104 1    
    93   47   48 2    
    94   47   49 am   BACKBONE|DICT|INTERRES
    95   49   50 1    
    96   49  105 1    
    97   50   51 1    
    98   50   52 1    
    99   50  106 1    
   100   51  107 1    
   101   51  108 1    
   102   51  109 1    
   103   52   53 2    
   104   52   54 am   BACKBONE|DICT|INTERRES
   105   54   55 1    
   106   54  110 1    
   107   55   56 1    
   108   55   59 1    
   109   55  111 1    
   110   56   57 am   BACKBONE|DICT|INTERRES
   111   56   58 2    
   112   57  112 1    
   113   57  113 1    
   114   59   60 1    
   115   59  114 1    
   116   59  115 1    
   117   60   61 1    
   118   61  116 1    
   119   61  117 1    
@<TRIPOS>SUBSTRUCTURE
     1 UNK         1 GROUP             0       ****    0 ROOT    
