@<TRIPOS>MOLECULE
3R8
117   119    1
SMALL
USER_CHARGES


@<TRIPOS>ATOM
      1 CA         23.2027  -27.2135  -48.8403 C.3       0 UNK        -0.2013 
      2 C          22.7805  -28.4258  -48.0244 C.2       0 UNK         0.4866 
      3 O          23.6232  -29.2520  -47.6752 O.2       0 UNK        -0.5176 
      4 N          21.4823  -28.5383  -47.7199 N.am      1 UNK        -0.4884 
      5 CA         20.9121  -29.6095  -46.9006 C.3       1 UNK         0.0853 
      6 C6         19.4251  -29.8939  -47.2182 C.3       10 UNK        -0.0849 
      7 S7         18.2884  -28.4873  -46.9775 S.3       10 UNK        -0.2776 
      8 C8         16.7976  -29.3451  -46.3749 C.3       10 UNK         0.0316 
      9 C9         16.7240  -29.3372  -44.8558 C.ar      10 UNK        -0.0863 
     10 C10        17.4607  -30.2518  -44.0962 C.ar      10 UNK        -0.1009 
     11 C11        17.4107  -30.2133  -42.6995 C.ar      10 UNK        -0.0712 
     12 C12        16.5781  -29.2891  -42.0631 C.ar      10 UNK        -0.0894 
     13 C13        15.8682  -28.3461  -42.8114 C.ar      10 UNK        -0.0745 
     14 C14        15.9336  -28.3850  -44.2068 C.ar      10 UNK        -0.0972 
     15 C15        15.0915  -27.2350  -42.1172 C.3       10 UNK         0.0209 
     16 S16        16.1723  -26.1282  -41.1424 S.3       10 UNK        -0.2568 
     17 C17        17.5575  -25.7799  -42.2877 C.3       10 UNK        -0.0983 
     18 CA         18.8091  -26.6481  -41.9598 C.3       3 UNK         0.0876 
     19 N          19.5598  -27.0964  -43.1365 N.am      3 UNK        -0.4424 
     20 C          20.1388  -26.3224  -44.0633 C.2       2 UNK         0.4918 
     21 O          19.9636  -25.1054  -44.1442 O.2       2 UNK        -0.4875 
     22 CA         21.0949  -27.0064  -45.0603 C.3       2 UNK         0.0481 
     23 CB         22.4356  -26.2493  -45.1125 C.3       2 UNK        -0.1831 
     24 N          21.3652  -28.4002  -44.6904 N.am      2 UNK        -0.4498 
     25 C          21.2206  -29.5442  -45.3816 C.2       1 UNK         0.5027 
     26 O          21.3827  -30.6170  -44.8101 O.2       1 UNK        -0.4969 
     27 C          19.7319  -26.0333  -40.8863 C.2       3 UNK         0.5005 
     28 O          20.9528  -26.0052  -41.0538 O.2       3 UNK        -0.5279 
     29 N          19.1383  -25.6311  -39.7515 N.am      4 UNK        -0.4463 
     30 CA         19.8010  -25.1110  -38.5427 C.3       4 UNK         0.0283 
     31 CB         20.3777  -23.7049  -38.8111 C.3       4 UNK        -0.1875 
     32 C          20.8553  -26.0753  -37.9514 C.2       4 UNK         0.4949 
     33 O          21.8251  -25.6256  -37.3398 O.2       4 UNK        -0.5039 
     34 N          20.6506  -27.3829  -38.1779 N.am      5 UNK        -0.4663 
     35 CA         21.5490  -28.5051  -37.8787 C.3       5 UNK         0.0242 
     36 CB         21.7503  -28.6599  -36.3558 C.3       5 UNK        -0.1982 
     37 C          22.8886  -28.4772  -38.6511 C.2       5 UNK         0.5017 
     38 O          23.8155  -29.1856  -38.2546 O.2       5 UNK        -0.5012 
     39 N          22.9813  -27.6895  -39.7326 N.am      6 UNK        -0.4439 
     40 CA         24.1749  -27.5709  -40.5689 C.3       6 UNK         0.0297 
     41 CB         24.2916  -26.1236  -41.0752 C.3       6 UNK        -0.2006 
     42 C          24.1212  -28.5446  -41.7548 C.2       6 UNK         0.4892 
     43 O          23.0360  -28.8759  -42.2393 O.2       6 UNK        -0.5089 
     44 N          25.3150  -28.9286  -42.2270 N.am      7 UNK        -0.4243 
     45 CA         25.5802  -29.8023  -43.3731 C.3       7 UNK         0.0196 
     46 CB         25.1601  -29.1167  -44.6926 C.3       7 UNK        -0.2007 
     47 C          25.0110  -31.2204  -43.1711 C.2       7 UNK         0.5020 
     48 O          25.3053  -31.8430  -42.1484 O.2       7 UNK        -0.5147 
     49 N          24.2401  -31.7248  -44.1442 N.am      8 UNK        -0.4734 
     50 CA         23.7149  -33.0948  -44.1883 C.3       8 UNK         0.0238 
     51 CB         23.1622  -33.3918  -45.5936 C.3       8 UNK        -0.1912 
     52 C          22.6866  -33.4426  -43.0936 C.2       8 UNK         0.5038 
     53 O          22.3786  -34.6256  -42.9362 O.2       8 UNK        -0.5046 
     54 N          22.2017  -32.4468  -42.3374 N.am      9 UNK        -0.4200 
     55 CA         21.4132  -32.6470  -41.1099 C.3       9 UNK         0.0839 
     56 C          22.1807  -33.3903  -39.9757 C.2       9 UNK         0.5513 
     57 N          23.5099  -33.3881  -39.9624 N.am      9 UNK        -0.7519 
     58 O          21.5558  -33.9722  -39.0931 O.2       9 UNK        -0.4960 
     59 C59        20.8318  -31.3258  -40.5442 C.3       10 UNK        -0.0876 
     60 S60        19.9576  -30.2860  -41.7523 S.3       10 UNK        -0.2414 
     61 C61        18.3349  -31.0944  -41.8772 C.3       10 UNK         0.0169 
     62 H62        23.6101  -27.5310  -49.7997 H         1 UNK         0.0903 
     63 H63        22.3680  -26.5392  -49.0311 H         1 UNK         0.0903 
     64 H64        23.9742  -26.6553  -48.3106 H         1 UNK         0.0903 
     65 H65        20.8266  -27.8348  -48.0294 H         1 UNK         0.3096 
     66 H66        21.4310  -30.5157  -47.2243 H         1 UNK         0.1121 
     67 H67        19.3368  -30.2019  -48.2613 H         1 UNK         0.0849 
     68 H68        19.0856  -30.7549  -46.6412 H         1 UNK         0.0849 
     69 H69        15.9216  -28.8468  -46.7933 H         1 UNK         0.0865 
     70 H70        16.7605  -30.3686  -46.7507 H         1 UNK         0.0865 
     71 H71        18.1092  -30.9654  -44.5841 H         1 UNK         0.1346 
     72 H72        16.5500  -29.2436  -40.9828 H         1 UNK         0.1412 
     73 H73        15.3916  -27.6529  -44.7900 H         1 UNK         0.1426 
     74 H74        14.3439  -27.6757  -41.4564 H         1 UNK         0.0716 
     75 H75        14.5431  -26.6337  -42.8440 H         1 UNK         0.0716 
     76 H76        17.7935  -24.7146  -42.2548 H         1 UNK         0.0695 
     77 H77        17.2171  -25.9646  -43.3073 H         1 UNK         0.0695 
     78 H78        18.4746  -27.5799  -41.5096 H         1 UNK         0.0983 
     79 H79        19.7586  -28.0873  -43.1616 H         1 UNK         0.3095 
     80 H80        20.6015  -26.9380  -46.0261 H         1 UNK         0.0454 
     81 H81        22.8928  -26.1853  -44.1245 H         1 UNK         0.0851 
     82 H82        22.2991  -25.2302  -45.4760 H         1 UNK         0.0851 
     83 H83        23.1538  -26.7336  -45.7708 H         1 UNK         0.0851 
     84 H84        21.6989  -28.5124  -43.7367 H         1 UNK         0.2976 
     85 H85        18.1285  -25.7021  -39.7047 H         1 UNK         0.3116 
     86 H86        19.0232  -25.0113  -37.7843 H         1 UNK         0.0646 
     87 H87        21.2077  -23.7379  -39.5179 H         1 UNK         0.0847 
     88 H88        20.7515  -23.2511  -37.8925 H         1 UNK         0.0847 
     89 H89        19.6194  -23.0346  -39.2155 H         1 UNK         0.0847 
     90 H90        19.8134  -27.6279  -38.6874 H         1 UNK         0.3040 
     91 H91        21.0289  -29.3988  -38.2243 H         1 UNK         0.1015 
     92 H92        20.7963  -28.6869  -35.8293 H         1 UNK         0.0786 
     93 H93        22.3412  -27.8437  -35.9394 H         1 UNK         0.0786 
     94 H94        22.2724  -29.5884  -36.1215 H         1 UNK         0.0786 
     95 H95        22.1680  -27.1678  -40.0503 H         1 UNK         0.3172 
     96 H96        25.0623  -27.7906  -39.9713 H         1 UNK         0.0595 
     97 H97        23.4664  -25.8580  -41.7362 H         1 UNK         0.0839 
     98 H98        25.2149  -25.9776  -41.6370 H         1 UNK         0.0839 
     99 H99        24.2983  -25.4130  -40.2485 H         1 UNK         0.0839 
    100 H100       26.1379  -28.6133  -41.7327 H         1 UNK         0.2998 
    101 H101       26.6634  -29.9276  -43.4091 H         1 UNK         0.0822 
    102 H102       25.6269  -28.1367  -44.7912 H         1 UNK         0.0787 
    103 H103       25.4676  -29.7014  -45.5606 H         1 UNK         0.0787 
    104 H104       24.0831  -28.9713  -44.7554 H         1 UNK         0.0787 
    105 H105       23.9886  -31.1233  -44.9163 H         1 UNK         0.3055 
    106 H106       24.5629  -33.7630  -44.0224 H         1 UNK         0.1106 
    107 H107       22.8551  -34.4351  -45.6779 H         1 UNK         0.0828 
    108 H108       22.2909  -32.7820  -45.8283 H         1 UNK         0.0828 
    109 H109       23.9137  -33.2157  -46.3632 H         1 UNK         0.0828 
    110 H110       22.4480  -31.4935  -42.5695 H         1 UNK         0.2931 
    111 H111       20.5695  -33.2831  -41.3836 H         1 UNK         0.0412 
    112 H112       23.9977  -33.8708  -39.2245 H         1 UNK         0.3472 
    113 H113       24.0327  -32.8998  -40.6791 H         1 UNK         0.3472 
    114 H114       20.1609  -31.5255  -39.7064 H         1 UNK         0.0970 
    115 H115       21.6453  -30.7182  -40.1462 H         1 UNK         0.0970 
    116 H116       17.9233  -31.2598  -40.8804 H         1 UNK         0.0612 
    117 H117       18.4468  -32.0735  -42.3451 H         1 UNK         0.0612 
@<TRIPOS>BOND
     1    1    2 1    
     2    1   62 1    
     3    1   63 1    
     4    1   64 1    
     5    2    3 2    
     6    2    4 am   BACKBONE|DICT|INTERRES
     7    4    5 1    
     8    4   65 1    
     9    5    6 1    
    10    5   25 1    
    11    5   66 1    
    12    6    7 1    
    13    6   67 1    
    14    6   68 1    
    15    7    8 1    
    16    8    9 1    
    17    8   69 1    
    18    8   70 1    
    19    9   10 ar   
    20    9   14 ar   
    21   10   11 ar   
    22   10   71 1    
    23   11   12 ar   
    24   11   61 1    
    25   12   13 ar   
    26   12   72 1    
    27   13   14 ar   
    28   13   15 1    
    29   14   73 1    
    30   15   16 1    
    31   15   74 1    
    32   15   75 1    
    33   16   17 1    
    34   17   18 1    
    35   17   76 1    
    36   17   77 1    
    37   18   19 1    
    38   18   27 1    
    39   18   78 1    
    40   19   20 am   BACKBONE|DICT|INTERRES
    41   19   79 1    
    42   20   21 2    
    43   20   22 1    
    44   22   23 1    
    45   22   24 1    
    46   22   80 1    
    47   23   81 1    
    48   23   82 1    
    49   23   83 1    
    50   24   25 am   BACKBONE|DICT|INTERRES
    51   24   84 1    
    52   25   26 2    
    53   27   28 2    
    54   27   29 am   BACKBONE|DICT|INTERRES
    55   29   30 1    
    56   29   85 1    
    57   30   31 1    
    58   30   32 1    
    59   30   86 1    
    60   31   87 1    
    61   31   88 1    
    62   31   89 1    
    63   32   33 2    
    64   32   34 am   BACKBONE|DICT|INTERRES
    65   34   35 1    
    66   34   90 1    
    67   35   36 1    
    68   35   37 1    
    69   35   91 1    
    70   36   92 1    
    71   36   93 1    
    72   36   94 1    
    73   37   38 2    
    74   37   39 am   BACKBONE|DICT|INTERRES
    75   39   40 1    
    76   39   95 1    
    77   40   41 1    
    78   40   42 1    
    79   40   96 1    
    80   41   97 1    
    81   41   98 1    
    82   41   99 1    
    83   42   43 2    
    84   42   44 am   BACKBONE|DICT|INTERRES
    85   44   45 1    
    86   44  100 1    
    87   45   46 1    
    88   45   47 1    
    89   45  101 1    
    90   46  102 1    
    91   46  103 1    
    92   46  104 1    
    93   47   48 2    
    94   47   49 am   BACKBONE|DICT|INTERRES
    95   49   50 1    
    96   49  105 1    
    97   50   51 1    
    98   50   52 1    
    99   50  106 1    
   100   51  107 1    
   101   51  108 1    
   102   51  109 1    
   103   52   53 2    
   104   52   54 am   BACKBONE|DICT|INTERRES
   105   54   55 1    
   106   54  110 1    
   107   55   56 1    
   108   55   59 1    
   109   55  111 1    
   110   56   57 am   BACKBONE|DICT|INTERRES
   111   56   58 2    
   112   57  112 1    
   113   57  113 1    
   114   59   60 1    
   115   59  114 1    
   116   59  115 1    
   117   60   61 1    
   118   61  116 1    
   119   61  117 1    
@<TRIPOS>SUBSTRUCTURE
     1 UNK         1 GROUP             0       ****    0 ROOT    
