@<TRIPOS>MOLECULE
3R8
117   119    1
SMALL
USER_CHARGES


@<TRIPOS>ATOM
      1 CA         19.4291  -27.6343  -41.7838 C.3       0 UNK        -0.2013 
      2 C          18.3470  -26.6015  -42.0436 C.2       0 UNK         0.4866 
      3 O          18.3878  -25.5141  -41.4690 O.2       0 UNK        -0.5176 
      4 N          17.3767  -26.9321  -42.9076 N.am      1 UNK        -0.4884 
      5 CA         16.2323  -26.0670  -43.2305 C.3       1 UNK         0.0853 
      6 C6         15.0484  -26.8738  -43.8240 C.3       10 UNK        -0.0849 
      7 S7         15.2892  -27.4947  -45.5290 S.3       10 UNK        -0.2776 
      8 C8         15.5602  -29.2802  -45.2919 C.3       10 UNK         0.0316 
      9 C9         17.0390  -29.6195  -45.1718 C.ar      10 UNK        -0.0863 
     10 C10        17.5640  -30.1219  -43.9775 C.ar      10 UNK        -0.1009 
     11 C11        18.9148  -30.4773  -43.8907 C.ar      10 UNK        -0.0712 
     12 C12        19.7429  -30.3190  -45.0070 C.ar      10 UNK        -0.0894 
     13 C13        19.2261  -29.8253  -46.2099 C.ar      10 UNK        -0.0745 
     14 C14        17.8748  -29.4777  -46.2836 C.ar      10 UNK        -0.0972 
     15 C15        20.1077  -29.7121  -47.4478 C.3       10 UNK         0.0209 
     16 S16        20.4464  -27.9831  -47.9126 S.3       10 UNK        -0.2568 
     17 C17        21.5943  -27.4896  -46.5870 C.3       10 UNK        -0.0983 
     18 CA         21.5565  -25.9750  -46.2591 C.3       3 UNK         0.0876 
     19 N          20.1865  -25.5060  -46.0171 N.am      3 UNK        -0.4424 
     20 C          19.8142  -24.2216  -45.9100 C.2       2 UNK         0.4918 
     21 O          20.5979  -23.2741  -45.9587 O.2       2 UNK        -0.4875 
     22 CA         18.3193  -23.9503  -45.6945 C.3       2 UNK         0.0481 
     23 CB         17.5751  -23.8634  -47.0391 C.3       2 UNK        -0.1831 
     24 N          17.7243  -24.9791  -44.8430 N.am      2 UNK        -0.4498 
     25 C          16.6191  -24.8483  -44.1000 C.2       1 UNK         0.5027 
     26 O          15.9242  -23.8311  -44.0698 O.2       1 UNK        -0.4969 
     27 C          22.5174  -25.7165  -45.0806 C.2       3 UNK         0.5005 
     28 O          23.7306  -25.6744  -45.2937 O.2       3 UNK        -0.5279 
     29 N          21.9701  -25.6483  -43.8560 N.am      4 UNK        -0.4463 
     30 CA         22.6382  -25.7175  -42.5473 C.3       4 UNK         0.0283 
     31 CB         23.6734  -24.5928  -42.3482 C.3       4 UNK        -0.1875 
     32 C          23.2406  -27.1082  -42.2753 C.2       4 UNK         0.4949 
     33 O          22.8937  -27.7307  -41.2715 O.2       4 UNK        -0.5039 
     34 N          24.1051  -27.5774  -43.1882 N.am      5 UNK        -0.4663 
     35 CA         24.6811  -28.9275  -43.2877 C.3       5 UNK         0.0242 
     36 CB         23.5962  -29.9153  -43.7688 C.3       5 UNK        -0.1982 
     37 C          25.3870  -29.4200  -42.0085 C.2       5 UNK         0.5017 
     38 O          25.3854  -30.6208  -41.7373 O.2       5 UNK        -0.5012 
     39 N          25.9214  -28.4793  -41.2133 N.am      6 UNK        -0.4439 
     40 CA         26.5039  -28.6701  -39.8763 C.3       6 UNK         0.0297 
     41 CB         27.8500  -29.4182  -39.9814 C.3       6 UNK        -0.2006 
     42 C          25.5446  -29.3338  -38.8597 C.2       6 UNK         0.4892 
     43 O          26.0150  -29.9311  -37.8900 O.2       6 UNK        -0.5089 
     44 N          24.2267  -29.2346  -39.1080 N.am      7 UNK        -0.4243 
     45 CA         23.1320  -29.9071  -38.3988 C.3       7 UNK         0.0196 
     46 CB         22.9696  -29.3352  -36.9742 C.3       7 UNK        -0.2007 
     47 C          23.2425  -31.4481  -38.4230 C.2       7 UNK         0.5020 
     48 O          22.8600  -32.1025  -37.4523 O.2       7 UNK        -0.5147 
     49 N          23.7661  -32.0088  -39.5252 N.am      8 UNK        -0.4734 
     50 CA         23.9986  -33.4491  -39.6951 C.3       8 UNK         0.0238 
     51 CB         24.9348  -33.6740  -40.8935 C.3       8 UNK        -0.1912 
     52 C          22.7216  -34.2962  -39.8499 C.2       8 UNK         0.5038 
     53 O          22.7895  -35.5088  -39.6414 O.2       8 UNK        -0.5046 
     54 N          21.5991  -33.6667  -40.2237 N.am      9 UNK        -0.4200 
     55 CA         20.2773  -34.3015  -40.3434 C.3       9 UNK         0.0839 
     56 C          19.7638  -34.8677  -38.9904 C.2       9 UNK         0.5513 
     57 N          19.1878  -36.0620  -38.9944 N.am      9 UNK        -0.7519 
     58 O          19.8367  -34.2121  -37.9536 O.2       9 UNK        -0.4960 
     59 C59        19.2281  -33.3331  -40.9447 C.3       10 UNK        -0.0876 
     60 S60        19.6013  -32.8575  -42.6679 S.3       10 UNK        -0.2414 
     61 C61        19.4724  -31.0447  -42.5933 C.3       10 UNK         0.0169 
     62 H62        20.2110  -27.2207  -41.1484 H         1 UNK         0.0903 
     63 H63        19.0059  -28.4911  -41.2633 H         1 UNK         0.0903 
     64 H64        19.8866  -27.9702  -42.7137 H         1 UNK         0.0903 
     65 H65        17.3910  -27.8332  -43.3678 H         1 UNK         0.3096 
     66 H66        15.8786  -25.6483  -42.2848 H         1 UNK         0.1121 
     67 H67        14.7974  -27.7022  -43.1601 H         1 UNK         0.0849 
     68 H68        14.1569  -26.2439  -43.8364 H         1 UNK         0.0849 
     69 H69        14.9961  -29.6421  -44.4311 H         1 UNK         0.0865 
     70 H70        15.1528  -29.8078  -46.1557 H         1 UNK         0.0865 
     71 H71        16.9179  -30.2583  -43.1205 H         1 UNK         0.1346 
     72 H72        20.7835  -30.6060  -44.9431 H         1 UNK         0.1412 
     73 H73        17.4692  -29.1047  -47.2147 H         1 UNK         0.1426 
     74 H74        19.6101  -30.2069  -48.2831 H         1 UNK         0.0716 
     75 H75        21.0529  -30.2379  -47.3035 H         1 UNK         0.0716 
     76 H76        22.5993  -27.7904  -46.8906 H         1 UNK         0.0695 
     77 H77        21.3625  -28.0702  -45.6926 H         1 UNK         0.0695 
     78 H78        21.9458  -25.4257  -47.1194 H         1 UNK         0.0983 
     79 H79        19.4766  -26.2192  -46.0869 H         1 UNK         0.3095 
     80 H80        18.2361  -22.9877  -45.1854 H         1 UNK         0.0454 
     81 H81        18.0298  -23.1156  -47.6902 H         1 UNK         0.0851 
     82 H82        16.5327  -23.5772  -46.8990 H         1 UNK         0.0851 
     83 H83        17.5907  -24.8152  -47.5714 H         1 UNK         0.0851 
     84 H84        18.2255  -25.8491  -44.7553 H         1 UNK         0.2976 
     85 H85        20.9626  -25.6857  -43.8166 H         1 UNK         0.3116 
     86 H86        21.8527  -25.5612  -41.8064 H         1 UNK         0.0646 
     87 H87        24.5283  -24.6872  -43.0177 H         1 UNK         0.0847 
     88 H88        23.2270  -23.6125  -42.5144 H         1 UNK         0.0847 
     89 H89        24.0618  -24.6024  -41.3290 H         1 UNK         0.0847 
     90 H90        24.2981  -26.9584  -43.9728 H         1 UNK         0.3040 
     91 H91        25.4541  -28.8809  -44.0564 H         1 UNK         0.1015 
     92 H92        24.0161  -30.9039  -43.9595 H         1 UNK         0.0786 
     93 H93        23.1393  -29.5783  -44.6987 H         1 UNK         0.0786 
     94 H94        22.8048  -30.0344  -43.0283 H         1 UNK         0.0786 
     95 H95        25.8444  -27.5211  -41.5254 H         1 UNK         0.3172 
     96 H96        26.7084  -27.6713  -39.4883 H         1 UNK         0.0595 
     97 H97        27.7129  -30.4521  -40.3003 H         1 UNK         0.0839 
     98 H98        28.3640  -29.4409  -39.0196 H         1 UNK         0.0839 
     99 H99        28.5200  -28.9340  -40.6917 H         1 UNK         0.0839 
    100 H100       23.9373  -28.7064  -39.9278 H         1 UNK         0.2998 
    101 H101       22.2245  -29.6647  -38.9541 H         1 UNK         0.0822 
    102 H102       22.0729  -29.7289  -36.4940 H         1 UNK         0.0787 
    103 H103       22.8755  -28.2495  -36.9914 H         1 UNK         0.0787 
    104 H104       23.8172  -29.5891  -36.3368 H         1 UNK         0.0787 
    105 H105       24.1160  -31.4072  -40.2646 H         1 UNK         0.3055 
    106 H106       24.5071  -33.8104  -38.7982 H         1 UNK         0.1106 
    107 H107       25.8902  -33.1688  -40.7501 H         1 UNK         0.0828 
    108 H108       25.1495  -34.7346  -41.0323 H         1 UNK         0.0828 
    109 H109       24.4965  -33.3049  -41.8217 H         1 UNK         0.0828 
    110 H110       21.6371  -32.6705  -40.3708 H         1 UNK         0.2931 
    111 H111       20.3934  -35.1395  -41.0343 H         1 UNK         0.0412 
    112 H112       18.8316  -36.4384  -38.1293 H         1 UNK         0.3472 
    113 H113       19.1142  -36.6021  -39.8430 H         1 UNK         0.3472 
    114 H114       18.2410  -33.8001  -40.9540 H         1 UNK         0.0970 
    115 H115       19.1326  -32.4490  -40.3121 H         1 UNK         0.0970 
    116 H116       18.8242  -30.7564  -41.7656 H         1 UNK         0.0612 
    117 H117       20.4545  -30.6192  -42.3828 H         1 UNK         0.0612 
@<TRIPOS>BOND
     1    1    2 1    
     2    1   62 1    
     3    1   63 1    
     4    1   64 1    
     5    2    3 2    
     6    2    4 am   BACKBONE|DICT|INTERRES
     7    4    5 1    
     8    4   65 1    
     9    5    6 1    
    10    5   25 1    
    11    5   66 1    
    12    6    7 1    
    13    6   67 1    
    14    6   68 1    
    15    7    8 1    
    16    8    9 1    
    17    8   69 1    
    18    8   70 1    
    19    9   10 ar   
    20    9   14 ar   
    21   10   11 ar   
    22   10   71 1    
    23   11   12 ar   
    24   11   61 1    
    25   12   13 ar   
    26   12   72 1    
    27   13   14 ar   
    28   13   15 1    
    29   14   73 1    
    30   15   16 1    
    31   15   74 1    
    32   15   75 1    
    33   16   17 1    
    34   17   18 1    
    35   17   76 1    
    36   17   77 1    
    37   18   19 1    
    38   18   27 1    
    39   18   78 1    
    40   19   20 am   BACKBONE|DICT|INTERRES
    41   19   79 1    
    42   20   21 2    
    43   20   22 1    
    44   22   23 1    
    45   22   24 1    
    46   22   80 1    
    47   23   81 1    
    48   23   82 1    
    49   23   83 1    
    50   24   25 am   BACKBONE|DICT|INTERRES
    51   24   84 1    
    52   25   26 2    
    53   27   28 2    
    54   27   29 am   BACKBONE|DICT|INTERRES
    55   29   30 1    
    56   29   85 1    
    57   30   31 1    
    58   30   32 1    
    59   30   86 1    
    60   31   87 1    
    61   31   88 1    
    62   31   89 1    
    63   32   33 2    
    64   32   34 am   BACKBONE|DICT|INTERRES
    65   34   35 1    
    66   34   90 1    
    67   35   36 1    
    68   35   37 1    
    69   35   91 1    
    70   36   92 1    
    71   36   93 1    
    72   36   94 1    
    73   37   38 2    
    74   37   39 am   BACKBONE|DICT|INTERRES
    75   39   40 1    
    76   39   95 1    
    77   40   41 1    
    78   40   42 1    
    79   40   96 1    
    80   41   97 1    
    81   41   98 1    
    82   41   99 1    
    83   42   43 2    
    84   42   44 am   BACKBONE|DICT|INTERRES
    85   44   45 1    
    86   44  100 1    
    87   45   46 1    
    88   45   47 1    
    89   45  101 1    
    90   46  102 1    
    91   46  103 1    
    92   46  104 1    
    93   47   48 2    
    94   47   49 am   BACKBONE|DICT|INTERRES
    95   49   50 1    
    96   49  105 1    
    97   50   51 1    
    98   50   52 1    
    99   50  106 1    
   100   51  107 1    
   101   51  108 1    
   102   51  109 1    
   103   52   53 2    
   104   52   54 am   BACKBONE|DICT|INTERRES
   105   54   55 1    
   106   54  110 1    
   107   55   56 1    
   108   55   59 1    
   109   55  111 1    
   110   56   57 am   BACKBONE|DICT|INTERRES
   111   56   58 2    
   112   57  112 1    
   113   57  113 1    
   114   59   60 1    
   115   59  114 1    
   116   59  115 1    
   117   60   61 1    
   118   61  116 1    
   119   61  117 1    
@<TRIPOS>SUBSTRUCTURE
     1 UNK         1 GROUP             0       ****    0 ROOT    
