@<TRIPOS>MOLECULE
3R8
117   119    1
SMALL
USER_CHARGES


@<TRIPOS>ATOM
      1 CA         13.1977  -25.8403  -43.4053 C.3       0 UNK        -0.2013 
      2 C          14.5740  -26.0098  -44.0316 C.2       0 UNK         0.4866 
      3 O          15.5045  -26.4326  -43.3453 O.2       0 UNK        -0.5176 
      4 N          14.6984  -25.6895  -45.3278 N.am      1 UNK        -0.4884 
      5 CA         15.9266  -25.7566  -46.1363 C.3       1 UNK         0.0853 
      6 C6         16.4718  -27.2033  -46.3119 C.3       10 UNK        -0.0849 
      7 S7         15.2606  -28.3605  -47.0413 S.3       10 UNK        -0.2776 
      8 C8         14.9330  -29.5041  -45.6497 C.3       10 UNK         0.0316 
      9 C9         16.1586  -30.2060  -45.0563 C.ar      10 UNK        -0.0863 
     10 C10        16.0672  -30.7310  -43.7631 C.ar      10 UNK        -0.1009 
     11 C11        17.1635  -31.3576  -43.1632 C.ar      10 UNK        -0.0712 
     12 C12        18.3702  -31.4500  -43.8630 C.ar      10 UNK        -0.0894 
     13 C13        18.4825  -30.9240  -45.1521 C.ar      10 UNK        -0.0745 
     14 C14        17.3678  -30.3339  -45.7531 C.ar      10 UNK        -0.0972 
     15 C15        19.8052  -30.9874  -45.9018 C.3       10 UNK         0.0209 
     16 S16        20.5055  -29.3304  -46.1993 S.3       10 UNK        -0.2568 
     17 C17        21.0110  -28.8081  -44.5251 C.3       10 UNK        -0.0983 
     18 CA         21.5208  -27.3440  -44.5276 C.3       3 UNK         0.0876 
     19 N          20.4585  -26.3868  -44.8523 N.am      3 UNK        -0.4424 
     20 C          20.6737  -25.1332  -45.2764 C.2       2 UNK         0.4918 
     21 O          21.7965  -24.6807  -45.5064 O.2       2 UNK        -0.4875 
     22 CA         19.4352  -24.2439  -45.4926 C.3       2 UNK         0.0481 
     23 CB         19.6829  -23.1062  -46.5040 C.3       2 UNK        -0.1831 
     24 N          18.2801  -25.0422  -45.9073 N.am      2 UNK        -0.4498 
     25 C          16.9998  -24.7563  -45.6335 C.2       1 UNK         0.5027 
     26 O          16.6516  -23.7341  -45.0351 O.2       1 UNK        -0.4969 
     27 C          22.1555  -26.9624  -43.1759 C.2       3 UNK         0.5005 
     28 O          21.4264  -26.7109  -42.2123 O.2       3 UNK        -0.5279 
     29 N          23.4936  -26.9036  -43.1350 N.am      4 UNK        -0.4463 
     30 CA         24.2704  -26.6139  -41.9294 C.3       4 UNK         0.0283 
     31 CB         25.6968  -26.1995  -42.3262 C.3       4 UNK        -0.1875 
     32 C          24.3059  -27.8476  -41.0206 C.2       4 UNK         0.4949 
     33 O          24.6120  -28.9360  -41.5098 O.2       4 UNK        -0.5039 
     34 N          24.0370  -27.6495  -39.7224 N.am      5 UNK        -0.4663 
     35 CA         23.8622  -28.7027  -38.7109 C.3       5 UNK         0.0242 
     36 CB         23.5385  -28.0534  -37.3559 C.3       5 UNK        -0.1982 
     37 C          25.0363  -29.6879  -38.5664 C.2       5 UNK         0.5017 
     38 O          24.8143  -30.8407  -38.1955 O.2       5 UNK        -0.5012 
     39 N          26.2544  -29.2253  -38.8789 N.am      6 UNK        -0.4439 
     40 CA         27.4710  -30.0384  -38.9279 C.3       6 UNK         0.0297 
     41 CB         28.6933  -29.1098  -39.0134 C.3       6 UNK        -0.2006 
     42 C          27.4876  -31.0546  -40.0870 C.2       6 UNK         0.4892 
     43 O          28.1826  -32.0657  -39.9773 O.2       6 UNK        -0.5089 
     44 N          26.7445  -30.7743  -41.1668 N.am      7 UNK        -0.4243 
     45 CA         26.6014  -31.6471  -42.3297 C.3       7 UNK         0.0196 
     46 CB         26.5835  -30.8017  -43.6154 C.3       7 UNK        -0.2007 
     47 C          25.3304  -32.4984  -42.2158 C.2       7 UNK         0.5020 
     48 O          25.4097  -33.7160  -42.3824 O.2       7 UNK        -0.5147 
     49 N          24.1868  -31.8608  -41.9320 N.am      8 UNK        -0.4734 
     50 CA         22.8797  -32.5083  -41.8158 C.3       8 UNK         0.0238 
     51 CB         22.3421  -32.8700  -43.2143 C.3       8 UNK        -0.1912 
     52 C          21.8996  -31.5781  -41.0943 C.2       8 UNK         0.5038 
     53 O          22.0465  -30.3601  -41.1761 O.2       8 UNK        -0.5046 
     54 N          20.8881  -32.1659  -40.4442 N.am      9 UNK        -0.4200 
     55 CA         19.8411  -31.4696  -39.6733 C.3       9 UNK         0.0839 
     56 C          20.2996  -30.9257  -38.2858 C.2       9 UNK         0.5513 
     57 N          21.4632  -31.3106  -37.7759 N.am      9 UNK        -0.7519 
     58 O          19.5767  -30.1711  -37.6406 O.2       9 UNK        -0.4960 
     59 C59        19.0498  -30.4202  -40.5203 C.3       10 UNK        -0.0876 
     60 S60        17.2473  -30.6874  -40.4627 S.3       10 UNK        -0.2414 
     61 C61        17.0344  -31.9440  -41.7642 C.3       10 UNK         0.0169 
     62 H62        13.2463  -25.1293  -42.5810 H         1 UNK         0.0903 
     63 H63        12.4630  -25.4772  -44.1237 H         1 UNK         0.0903 
     64 H64        12.8450  -26.7938  -43.0129 H         1 UNK         0.0903 
     65 H65        13.8922  -25.3261  -45.8169 H         1 UNK         0.3096 
     66 H66        15.6478  -25.3933  -47.1268 H         1 UNK         0.1121 
     67 H67        16.8314  -27.5869  -45.3561 H         1 UNK         0.0849 
     68 H68        17.3301  -27.2194  -46.9850 H         1 UNK         0.0849 
     69 H69        14.4232  -28.9421  -44.8659 H         1 UNK         0.0865 
     70 H70        14.2292  -30.2656  -45.9880 H         1 UNK         0.0865 
     71 H71        15.1387  -30.6479  -43.2142 H         1 UNK         0.1346 
     72 H72        19.2238  -31.9255  -43.4005 H         1 UNK         0.1412 
     73 H73        17.4658  -29.9466  -46.7572 H         1 UNK         0.1426 
     74 H74        19.6429  -31.4765  -46.8633 H         1 UNK         0.0716 
     75 H75        20.5328  -31.5985  -45.3682 H         1 UNK         0.0716 
     76 H76        21.7924  -29.4884  -44.1801 H         1 UNK         0.0695 
     77 H77        20.1719  -28.9261  -43.8366 H         1 UNK         0.0695 
     78 H78        22.2918  -27.2622  -45.2977 H         1 UNK         0.0983 
     79 H79        19.5202  -26.6701  -44.6147 H         1 UNK         0.3095 
     80 H80        19.2225  -23.7945  -44.5205 H         1 UNK         0.0454 
     81 H81        18.8077  -22.4646  -46.6050 H         1 UNK         0.0851 
     82 H82        19.9294  -23.4957  -47.4922 H         1 UNK         0.0851 
     83 H83        20.5096  -22.4693  -46.1869 H         1 UNK         0.0851 
     84 H84        18.4943  -25.8774  -46.4349 H         1 UNK         0.2976 
     85 H85        24.0219  -27.1547  -43.9580 H         1 UNK         0.3116 
     86 H86        23.8018  -25.7818  -41.3991 H         1 UNK         0.0646 
     87 H87        26.2184  -26.9971  -42.8574 H         1 UNK         0.0847 
     88 H88        26.2909  -25.9537  -41.4451 H         1 UNK         0.0847 
     89 H89        25.6906  -25.3175  -42.9669 H         1 UNK         0.0847 
     90 H90        23.8195  -26.7098  -39.4220 H         1 UNK         0.3040 
     91 H91        22.9963  -29.2914  -39.0159 H         1 UNK         0.1015 
     92 H92        24.3460  -27.4040  -37.0157 H         1 UNK         0.0786 
     93 H93        23.3828  -28.8113  -36.5866 H         1 UNK         0.0786 
     94 H94        22.6256  -27.4597  -37.4083 H         1 UNK         0.0786 
     95 H95        26.3313  -28.2616  -39.1699 H         1 UNK         0.3172 
     96 H96        27.5365  -30.6031  -37.9954 H         1 UNK         0.0595 
     97 H97        28.6796  -28.5053  -39.9213 H         1 UNK         0.0839 
     98 H98        29.6200  -29.6854  -39.0204 H         1 UNK         0.0839 
     99 H99        28.7412  -28.4345  -38.1589 H         1 UNK         0.0839 
    100 H100       26.1408  -29.9563  -41.1527 H         1 UNK         0.2998 
    101 H101       27.4555  -32.3252  -42.3923 H         1 UNK         0.0822 
    102 H102       27.5027  -30.2255  -43.7212 H         1 UNK         0.0787 
    103 H103       26.4959  -31.4380  -44.4970 H         1 UNK         0.0787 
    104 H104       25.7474  -30.1020  -43.6356 H         1 UNK         0.0787 
    105 H105       24.1851  -30.8527  -41.7792 H         1 UNK         0.3055 
    106 H106       22.9920  -33.4174  -41.2206 H         1 UNK         0.1106 
    107 H107       21.3403  -33.2972  -43.1577 H         1 UNK         0.0828 
    108 H108       22.2918  -31.9905  -43.8562 H         1 UNK         0.0828 
    109 H109       22.9746  -33.6066  -43.7095 H         1 UNK         0.0828 
    110 H110       20.8371  -33.1745  -40.4269 H         1 UNK         0.2931 
    111 H111       19.1561  -32.2768  -39.4122 H         1 UNK         0.0412 
    112 H112       22.0738  -31.9290  -38.2850 H         1 UNK         0.3472 
    113 H113       21.7385  -30.9696  -36.8689 H         1 UNK         0.3472 
    114 H114       19.3624  -30.4261  -41.5626 H         1 UNK         0.0970 
    115 H115       19.2581  -29.4007  -40.1899 H         1 UNK         0.0970 
    116 H116       17.7565  -32.7485  -41.6162 H         1 UNK         0.0612 
    117 H117       16.0488  -32.3981  -41.6514 H         1 UNK         0.0612 
@<TRIPOS>BOND
     1    1    2 1    
     2    1   62 1    
     3    1   63 1    
     4    1   64 1    
     5    2    3 2    
     6    2    4 am   BACKBONE|DICT|INTERRES
     7    4    5 1    
     8    4   65 1    
     9    5    6 1    
    10    5   25 1    
    11    5   66 1    
    12    6    7 1    
    13    6   67 1    
    14    6   68 1    
    15    7    8 1    
    16    8    9 1    
    17    8   69 1    
    18    8   70 1    
    19    9   10 ar   
    20    9   14 ar   
    21   10   11 ar   
    22   10   71 1    
    23   11   12 ar   
    24   11   61 1    
    25   12   13 ar   
    26   12   72 1    
    27   13   14 ar   
    28   13   15 1    
    29   14   73 1    
    30   15   16 1    
    31   15   74 1    
    32   15   75 1    
    33   16   17 1    
    34   17   18 1    
    35   17   76 1    
    36   17   77 1    
    37   18   19 1    
    38   18   27 1    
    39   18   78 1    
    40   19   20 am   BACKBONE|DICT|INTERRES
    41   19   79 1    
    42   20   21 2    
    43   20   22 1    
    44   22   23 1    
    45   22   24 1    
    46   22   80 1    
    47   23   81 1    
    48   23   82 1    
    49   23   83 1    
    50   24   25 am   BACKBONE|DICT|INTERRES
    51   24   84 1    
    52   25   26 2    
    53   27   28 2    
    54   27   29 am   BACKBONE|DICT|INTERRES
    55   29   30 1    
    56   29   85 1    
    57   30   31 1    
    58   30   32 1    
    59   30   86 1    
    60   31   87 1    
    61   31   88 1    
    62   31   89 1    
    63   32   33 2    
    64   32   34 am   BACKBONE|DICT|INTERRES
    65   34   35 1    
    66   34   90 1    
    67   35   36 1    
    68   35   37 1    
    69   35   91 1    
    70   36   92 1    
    71   36   93 1    
    72   36   94 1    
    73   37   38 2    
    74   37   39 am   BACKBONE|DICT|INTERRES
    75   39   40 1    
    76   39   95 1    
    77   40   41 1    
    78   40   42 1    
    79   40   96 1    
    80   41   97 1    
    81   41   98 1    
    82   41   99 1    
    83   42   43 2    
    84   42   44 am   BACKBONE|DICT|INTERRES
    85   44   45 1    
    86   44  100 1    
    87   45   46 1    
    88   45   47 1    
    89   45  101 1    
    90   46  102 1    
    91   46  103 1    
    92   46  104 1    
    93   47   48 2    
    94   47   49 am   BACKBONE|DICT|INTERRES
    95   49   50 1    
    96   49  105 1    
    97   50   51 1    
    98   50   52 1    
    99   50  106 1    
   100   51  107 1    
   101   51  108 1    
   102   51  109 1    
   103   52   53 2    
   104   52   54 am   BACKBONE|DICT|INTERRES
   105   54   55 1    
   106   54  110 1    
   107   55   56 1    
   108   55   59 1    
   109   55  111 1    
   110   56   57 am   BACKBONE|DICT|INTERRES
   111   56   58 2    
   112   57  112 1    
   113   57  113 1    
   114   59   60 1    
   115   59  114 1    
   116   59  115 1    
   117   60   61 1    
   118   61  116 1    
   119   61  117 1    
@<TRIPOS>SUBSTRUCTURE
     1 UNK         1 GROUP             0       ****    0 ROOT    
