@<TRIPOS>MOLECULE
3R8
117   119    1
SMALL
USER_CHARGES


@<TRIPOS>ATOM
      1 CA         15.9453  -22.4022  -43.9611 C.3       0 UNK        -0.2013 
      2 C          16.9233  -23.5630  -44.0564 C.2       0 UNK         0.4866 
      3 O          17.6220  -23.6971  -45.0620 O.2       0 UNK        -0.5176 
      4 N          16.9952  -24.3985  -43.0125 N.am      1 UNK        -0.4884 
      5 CA         17.8441  -25.5955  -42.9219 C.3       1 UNK         0.0853 
      6 C6         17.2790  -26.6203  -41.9044 C.3       10 UNK        -0.0849 
      7 S7         15.6561  -27.2672  -42.4330 S.3       10 UNK        -0.2776 
      8 C8         15.8757  -29.0725  -42.2411 C.3       10 UNK         0.0316 
      9 C9         17.0034  -29.6900  -43.0707 C.ar      10 UNK        -0.0863 
     10 C10        17.6710  -30.8122  -42.5713 C.ar      10 UNK        -0.1009 
     11 C11        18.6937  -31.4244  -43.3011 C.ar      10 UNK        -0.0712 
     12 C12        19.0550  -30.8984  -44.5445 C.ar      10 UNK        -0.0894 
     13 C13        18.4061  -29.7725  -45.0614 C.ar      10 UNK        -0.0745 
     14 C14        17.3651  -29.1895  -44.3277 C.ar      10 UNK        -0.0972 
     15 C15        18.8166  -29.2260  -46.4270 C.3       10 UNK         0.0209 
     16 S16        18.9090  -27.4035  -46.4652 S.3       10 UNK        -0.2568 
     17 C17        20.4956  -27.0933  -47.3243 C.3       10 UNK        -0.0983 
     18 CA         21.6737  -26.7346  -46.3763 C.3       3 UNK         0.0876 
     19 N          21.2628  -25.7354  -45.3923 N.am      3 UNK        -0.4424 
     20 C          22.0486  -25.0200  -44.5793 C.2       2 UNK         0.4918 
     21 O          23.2786  -25.0551  -44.6068 O.2       2 UNK        -0.4875 
     22 CA         21.3350  -24.0918  -43.5756 C.3       2 UNK         0.0481 
     23 CB         21.5234  -22.6203  -43.9771 C.3       2 UNK        -0.1831 
     24 N          19.8991  -24.3809  -43.4974 N.am      2 UNK        -0.4498 
     25 C          19.3245  -25.2413  -42.6482 C.2       1 UNK         0.5027 
     26 O          19.9159  -25.7471  -41.6956 O.2       1 UNK        -0.4969 
     27 C          22.2789  -27.9923  -45.7182 C.2       3 UNK         0.5005 
     28 O          22.0024  -28.2840  -44.5503 O.2       3 UNK        -0.5279 
     29 N          23.0794  -28.7284  -46.5050 N.am      4 UNK        -0.4463 
     30 CA         23.7856  -29.9602  -46.1375 C.3       4 UNK         0.0283 
     31 CB         22.7827  -31.1205  -45.9384 C.3       4 UNK        -0.1875 
     32 C          24.7277  -29.7237  -44.9414 C.2       4 UNK         0.4949 
     33 O          25.6647  -28.9343  -45.0639 O.2       4 UNK        -0.5039 
     34 N          24.4550  -30.3845  -43.8111 N.am      5 UNK        -0.4663 
     35 CA         25.1883  -30.2404  -42.5526 C.3       5 UNK         0.0242 
     36 CB         25.1172  -31.5800  -41.8063 C.3       5 UNK        -0.1982 
     37 C          24.6535  -29.1001  -41.6633 C.2       5 UNK         0.5017 
     38 O          25.1278  -28.9678  -40.5348 O.2       5 UNK        -0.5012 
     39 N          23.6768  -28.3237  -42.1604 N.am      6 UNK        -0.4439 
     40 CA         22.9214  -27.2800  -41.4628 C.3       6 UNK         0.0297 
     41 CB         23.8283  -26.1258  -40.9862 C.3       6 UNK        -0.2006 
     42 C          22.0610  -27.8902  -40.3455 C.2       6 UNK         0.4892 
     43 O          22.3461  -27.7017  -39.1612 O.2       6 UNK        -0.5089 
     44 N          21.0517  -28.6657  -40.7659 N.am      7 UNK        -0.4243 
     45 CA         20.0469  -29.3885  -39.9721 C.3       7 UNK         0.0196 
     46 CB         19.2682  -28.4448  -39.0346 C.3       7 UNK        -0.2007 
     47 C          20.5845  -30.6060  -39.2015 C.2       7 UNK         0.5020 
     48 O          19.8809  -31.6123  -39.1087 O.2       7 UNK        -0.5147 
     49 N          21.8148  -30.5263  -38.6818 N.am      8 UNK        -0.4734 
     50 CA         22.5115  -31.5785  -37.9334 C.3       8 UNK         0.0238 
     51 CB         23.6098  -30.9203  -37.0774 C.3       8 UNK        -0.1912 
     52 C          23.0638  -32.6943  -38.8466 C.2       8 UNK         0.5038 
     53 O          24.2452  -33.0336  -38.7603 O.2       8 UNK        -0.5046 
     54 N          22.2053  -33.2276  -39.7227 N.am      9 UNK        -0.4200 
     55 CA         22.5383  -34.2299  -40.7476 C.3       9 UNK         0.0839 
     56 C          22.7462  -35.6749  -40.2080 C.2       9 UNK         0.5513 
     57 N          22.4376  -35.9700  -38.9509 N.am      9 UNK        -0.7519 
     58 O          23.2000  -36.5450  -40.9467 O.2       9 UNK        -0.4960 
     59 C59        21.5260  -34.2162  -41.9249 C.3       10 UNK        -0.0876 
     60 S60        21.1606  -32.5481  -42.5873 S.3       10 UNK        -0.2414 
     61 C61        19.3535  -32.6912  -42.7714 C.3       10 UNK         0.0169 
     62 H62        15.2229  -22.4540  -44.7752 H         1 UNK         0.0903 
     63 H63        15.3962  -22.4073  -43.0198 H         1 UNK         0.0903 
     64 H64        16.4787  -21.4551  -44.0383 H         1 UNK         0.0903 
     65 H65        16.4071  -24.2298  -42.2084 H         1 UNK         0.3096 
     66 H66        17.8390  -26.0835  -43.8992 H         1 UNK         0.1121 
     67 H67        17.1785  -26.1718  -40.9145 H         1 UNK         0.0849 
     68 H68        17.9668  -27.4599  -41.7896 H         1 UNK         0.0849 
     69 H69        16.0351  -29.2799  -41.1815 H         1 UNK         0.0865 
     70 H70        14.9411  -29.5651  -42.5120 H         1 UNK         0.0865 
     71 H71        17.3822  -31.2226  -41.6128 H         1 UNK         0.1346 
     72 H72        19.8345  -31.3813  -45.1160 H         1 UNK         0.1412 
     73 H73        16.8384  -28.3396  -44.7381 H         1 UNK         0.1426 
     74 H74        18.0965  -29.5594  -47.1750 H         1 UNK         0.0716 
     75 H75        19.7811  -29.6449  -46.7174 H         1 UNK         0.0716 
     76 H76        20.3238  -26.2518  -47.9973 H         1 UNK         0.0695 
     77 H77        20.7421  -27.9307  -47.9796 H         1 UNK         0.0695 
     78 H78        22.4648  -26.2789  -46.9760 H         1 UNK         0.0983 
     79 H79        20.2645  -25.6614  -45.2700 H         1 UNK         0.3095 
     80 H80        21.7970  -24.2412  -42.5978 H         1 UNK         0.0454 
     81 H81        22.5819  -22.3604  -44.0237 H         1 UNK         0.0851 
     82 H82        21.0583  -21.9501  -43.2541 H         1 UNK         0.0851 
     83 H83        21.0919  -22.4092  -44.9564 H         1 UNK         0.0851 
     84 H84        19.3031  -23.9802  -44.2187 H         1 UNK         0.2976 
     85 H85        23.2690  -28.3915  -47.4390 H         1 UNK         0.3116 
     86 H86        24.4245  -30.2188  -46.9833 H         1 UNK         0.0646 
     87 H87        22.1001  -30.9354  -45.1095 H         1 UNK         0.0847 
     88 H88        22.1779  -31.2724  -46.8324 H         1 UNK         0.0847 
     89 H89        23.2989  -32.0611  -45.7408 H         1 UNK         0.0847 
     90 H90        23.6456  -30.9893  -43.7934 H         1 UNK         0.3040 
     91 H91        26.2369  -30.0208  -42.7655 H         1 UNK         0.1015 
     92 H92        25.7181  -31.5618  -40.8959 H         1 UNK         0.0786 
     93 H93        25.4818  -32.4045  -42.4190 H         1 UNK         0.0786 
     94 H94        24.0916  -31.7992  -41.5142 H         1 UNK         0.0786 
     95 H95        23.3352  -28.5277  -43.0963 H         1 UNK         0.3172 
     96 H96        22.2360  -26.8644  -42.2008 H         1 UNK         0.0595 
     97 H97        24.5363  -26.4432  -40.2206 H         1 UNK         0.0839 
     98 H98        23.2289  -25.3224  -40.5565 H         1 UNK         0.0839 
     99 H99        24.3943  -25.7012  -41.8153 H         1 UNK         0.0839 
    100 H100       20.9531  -28.7757  -41.7667 H         1 UNK         0.2998 
    101 H101       19.3382  -29.7759  -40.7022 H         1 UNK         0.0822 
    102 H102       18.4094  -28.9558  -38.5976 H         1 UNK         0.0787 
    103 H103       18.8931  -27.5716  -39.5666 H         1 UNK         0.0787 
    104 H104       19.8863  -28.0894  -38.2097 H         1 UNK         0.0787 
    105 H105       22.3060  -29.6448  -38.7997 H         1 UNK         0.3055 
    106 H106       21.7976  -32.0510  -37.2550 H         1 UNK         0.1106 
    107 H107       23.1933  -30.1710  -36.4041 H         1 UNK         0.0828 
    108 H108       24.1231  -31.6582  -36.4593 H         1 UNK         0.0828 
    109 H109       24.3624  -30.4315  -37.6983 H         1 UNK         0.0828 
    110 H110       21.2523  -32.8788  -39.7212 H         1 UNK         0.2931 
    111 H111       23.5055  -33.9487  -41.1645 H         1 UNK         0.0412 
    112 H112       22.0663  -35.2629  -38.3372 H         1 UNK         0.3472 
    113 H113       22.5803  -36.9092  -38.6132 H         1 UNK         0.3472 
    114 H114       21.9017  -34.8247  -42.7497 H         1 UNK         0.0970 
    115 H115       20.5943  -34.6892  -41.6089 H         1 UNK         0.0970 
    116 H116       18.9277  -32.9629  -41.8039 H         1 UNK         0.0612 
    117 H117       19.1294  -33.5136  -43.4522 H         1 UNK         0.0612 
@<TRIPOS>BOND
     1    1    2 1    
     2    1   62 1    
     3    1   63 1    
     4    1   64 1    
     5    2    3 2    
     6    2    4 am   BACKBONE|DICT|INTERRES
     7    4    5 1    
     8    4   65 1    
     9    5    6 1    
    10    5   25 1    
    11    5   66 1    
    12    6    7 1    
    13    6   67 1    
    14    6   68 1    
    15    7    8 1    
    16    8    9 1    
    17    8   69 1    
    18    8   70 1    
    19    9   10 ar   
    20    9   14 ar   
    21   10   11 ar   
    22   10   71 1    
    23   11   12 ar   
    24   11   61 1    
    25   12   13 ar   
    26   12   72 1    
    27   13   14 ar   
    28   13   15 1    
    29   14   73 1    
    30   15   16 1    
    31   15   74 1    
    32   15   75 1    
    33   16   17 1    
    34   17   18 1    
    35   17   76 1    
    36   17   77 1    
    37   18   19 1    
    38   18   27 1    
    39   18   78 1    
    40   19   20 am   BACKBONE|DICT|INTERRES
    41   19   79 1    
    42   20   21 2    
    43   20   22 1    
    44   22   23 1    
    45   22   24 1    
    46   22   80 1    
    47   23   81 1    
    48   23   82 1    
    49   23   83 1    
    50   24   25 am   BACKBONE|DICT|INTERRES
    51   24   84 1    
    52   25   26 2    
    53   27   28 2    
    54   27   29 am   BACKBONE|DICT|INTERRES
    55   29   30 1    
    56   29   85 1    
    57   30   31 1    
    58   30   32 1    
    59   30   86 1    
    60   31   87 1    
    61   31   88 1    
    62   31   89 1    
    63   32   33 2    
    64   32   34 am   BACKBONE|DICT|INTERRES
    65   34   35 1    
    66   34   90 1    
    67   35   36 1    
    68   35   37 1    
    69   35   91 1    
    70   36   92 1    
    71   36   93 1    
    72   36   94 1    
    73   37   38 2    
    74   37   39 am   BACKBONE|DICT|INTERRES
    75   39   40 1    
    76   39   95 1    
    77   40   41 1    
    78   40   42 1    
    79   40   96 1    
    80   41   97 1    
    81   41   98 1    
    82   41   99 1    
    83   42   43 2    
    84   42   44 am   BACKBONE|DICT|INTERRES
    85   44   45 1    
    86   44  100 1    
    87   45   46 1    
    88   45   47 1    
    89   45  101 1    
    90   46  102 1    
    91   46  103 1    
    92   46  104 1    
    93   47   48 2    
    94   47   49 am   BACKBONE|DICT|INTERRES
    95   49   50 1    
    96   49  105 1    
    97   50   51 1    
    98   50   52 1    
    99   50  106 1    
   100   51  107 1    
   101   51  108 1    
   102   51  109 1    
   103   52   53 2    
   104   52   54 am   BACKBONE|DICT|INTERRES
   105   54   55 1    
   106   54  110 1    
   107   55   56 1    
   108   55   59 1    
   109   55  111 1    
   110   56   57 am   BACKBONE|DICT|INTERRES
   111   56   58 2    
   112   57  112 1    
   113   57  113 1    
   114   59   60 1    
   115   59  114 1    
   116   59  115 1    
   117   60   61 1    
   118   61  116 1    
   119   61  117 1    
@<TRIPOS>SUBSTRUCTURE
     1 UNK         1 GROUP             0       ****    0 ROOT    
