@<TRIPOS>MOLECULE
3R8
117   119    1
SMALL
USER_CHARGES


@<TRIPOS>ATOM
      1 CA         12.9780  -24.3762  -42.7480 C.3       0 UNK        -0.2013 
      2 C          13.8738  -24.9430  -43.8393 C.2       0 UNK         0.4866 
      3 O          14.3811  -24.1870  -44.6678 O.2       0 UNK        -0.5176 
      4 N          14.0681  -26.2689  -43.8488 N.am      1 UNK        -0.4884 
      5 CA         14.9201  -26.9832  -44.8096 C.3       1 UNK         0.0853 
      6 C6         14.6438  -28.5086  -44.7674 C.3       10 UNK        -0.0849 
      7 S7         15.1674  -29.3749  -46.2859 S.3       10 UNK        -0.2776 
      8 C8         16.3221  -30.6346  -45.6423 C.3       10 UNK         0.0316 
      9 C9         17.7278  -30.1027  -45.3756 C.ar      10 UNK        -0.0863 
     10 C10        18.3079  -30.2326  -44.1085 C.ar      10 UNK        -0.1009 
     11 C11        19.6347  -29.8430  -43.8908 C.ar      10 UNK        -0.0712 
     12 C12        20.3760  -29.3019  -44.9445 C.ar      10 UNK        -0.0894 
     13 C13        19.7988  -29.1341  -46.2054 C.ar      10 UNK        -0.0745 
     14 C14        18.4791  -29.5461  -46.4166 C.ar      10 UNK        -0.0972 
     15 C15        20.6060  -28.5385  -47.3500 C.3       10 UNK         0.0209 
     16 S16        20.4619  -26.7229  -47.4179 S.3       10 UNK        -0.2568 
     17 C17        21.6994  -26.1817  -46.1889 C.3       10 UNK        -0.0983 
     18 CA         21.0977  -25.3233  -45.0445 C.3       3 UNK         0.0876 
     19 N          20.0509  -26.0500  -44.3152 N.am      3 UNK        -0.4424 
     20 C          19.0967  -25.4955  -43.5584 C.2       2 UNK         0.4918 
     21 O          18.9525  -24.2827  -43.3987 O.2       2 UNK        -0.4875 
     22 CA         18.1841  -26.4845  -42.8128 C.3       2 UNK         0.0481 
     23 CB         18.1500  -26.1721  -41.3073 C.3       2 UNK        -0.1831 
     24 N          16.8131  -26.5583  -43.3190 N.am      2 UNK        -0.4498 
     25 C          16.4192  -26.6889  -44.5961 C.2       1 UNK         0.5027 
     26 O          17.1613  -26.6067  -45.5738 O.2       1 UNK        -0.4969 
     27 C          22.2272  -24.8056  -44.1197 C.2       3 UNK         0.5005 
     28 O          23.1348  -24.1316  -44.6092 O.2       3 UNK        -0.5279 
     29 N          22.1761  -25.1510  -42.8213 N.am      4 UNK        -0.4463 
     30 CA         23.1849  -24.9016  -41.7812 C.3       4 UNK         0.0283 
     31 CB         23.4099  -23.3911  -41.5539 C.3       4 UNK        -0.1875 
     32 C          24.4930  -25.6820  -42.0232 C.2       4 UNK         0.4949 
     33 O          25.5741  -25.2086  -41.6691 O.2       4 UNK        -0.5039 
     34 N          24.3642  -26.8750  -42.6185 N.am      5 UNK        -0.4663 
     35 CA         25.4523  -27.8239  -42.8446 C.3       5 UNK         0.0242 
     36 CB         25.0069  -28.8346  -43.9159 C.3       5 UNK        -0.1982 
     37 C          25.8278  -28.5575  -41.5470 C.2       5 UNK         0.5017 
     38 O          24.9692  -28.7593  -40.6839 O.2       5 UNK        -0.5012 
     39 N          27.0902  -28.9930  -41.4567 N.am      6 UNK        -0.4439 
     40 CA         27.6026  -29.8476  -40.3845 C.3       6 UNK         0.0297 
     41 CB         29.1235  -29.6399  -40.2576 C.3       6 UNK        -0.2006 
     42 C          27.2285  -31.3128  -40.6702 C.2       6 UNK         0.4892 
     43 O          28.0691  -32.0859  -41.1341 O.2       6 UNK        -0.5089 
     44 N          25.9563  -31.6475  -40.4381 N.am      7 UNK        -0.4243 
     45 CA         25.3566  -32.9493  -40.7104 C.3       7 UNK         0.0196 
     46 CB         24.7808  -32.9495  -42.1387 C.3       7 UNK        -0.2007 
     47 C          24.2710  -33.2460  -39.6695 C.2       7 UNK         0.5020 
     48 O          23.8336  -32.3430  -38.9509 O.2       7 UNK        -0.5147 
     49 N          23.8355  -34.5124  -39.6270 N.am      8 UNK        -0.4734 
     50 CA         22.8433  -35.0478  -38.6837 C.3       8 UNK         0.0238 
     51 CB         22.7671  -36.5746  -38.8533 C.3       8 UNK        -0.1912 
     52 C          21.4370  -34.4255  -38.7869 C.2       8 UNK         0.5038 
     53 O          20.6508  -34.5715  -37.8497 O.2       8 UNK        -0.5046 
     54 N          21.1469  -33.7438  -39.9021 N.am      9 UNK        -0.4200 
     55 CA         19.9380  -32.9340  -40.1048 C.3       9 UNK         0.0839 
     56 C          19.8527  -31.6555  -39.2166 C.2       9 UNK         0.5513 
     57 N          20.9362  -31.1987  -38.5971 N.am      9 UNK        -0.7519 
     58 O          18.7788  -31.0743  -39.0860 O.2       9 UNK        -0.4960 
     59 C59        19.7181  -32.6155  -41.6073 C.3       10 UNK        -0.0876 
     60 S60        21.0706  -31.6307  -42.3468 S.3       10 UNK        -0.2414 
     61 C61        20.2803  -30.0010  -42.5225 C.3       10 UNK         0.0169 
     62 H62        12.5919  -25.1545  -42.0900 H         1 UNK         0.0903 
     63 H63        13.5337  -23.6631  -42.1397 H         1 UNK         0.0903 
     64 H64        12.1292  -23.8565  -43.1919 H         1 UNK         0.0903 
     65 H65        13.6089  -26.8399  -43.1526 H         1 UNK         0.3096 
     66 H66        14.6592  -26.6145  -45.8048 H         1 UNK         0.1121 
     67 H67        13.5714  -28.6865  -44.6705 H         1 UNK         0.0849 
     68 H68        15.0981  -28.9690  -43.8876 H         1 UNK         0.0849 
     69 H69        15.8977  -31.0948  -44.7486 H         1 UNK         0.0865 
     70 H70        16.3983  -31.4349  -46.3797 H         1 UNK         0.0865 
     71 H71        17.7359  -30.6611  -43.2977 H         1 UNK         0.1346 
     72 H72        21.4069  -29.0189  -44.7824 H         1 UNK         0.1412 
     73 H73        18.0341  -29.4382  -47.3965 H         1 UNK         0.1426 
     74 H74        20.2520  -28.9472  -48.2977 H         1 UNK         0.0716 
     75 H75        21.6549  -28.8295  -47.2741 H         1 UNK         0.0716 
     76 H76        22.2269  -27.0464  -45.7842 H         1 UNK         0.0695 
     77 H77        22.4505  -25.6089  -46.7364 H         1 UNK         0.0695 
     78 H78        20.6387  -24.4396  -45.4934 H         1 UNK         0.0983 
     79 H79        20.0206  -27.0483  -44.4689 H         1 UNK         0.3095 
     80 H80        18.6050  -27.4834  -42.9220 H         1 UNK         0.0454 
     81 H81        19.1578  -26.1176  -40.8937 H         1 UNK         0.0851 
     82 H82        17.6637  -25.2168  -41.1048 H         1 UNK         0.0851 
     83 H83        17.6179  -26.9444  -40.7516 H         1 UNK         0.0851 
     84 H84        16.0890  -26.5934  -42.6171 H         1 UNK         0.2976 
     85 H85        21.3769  -25.6931  -42.5278 H         1 UNK         0.3116 
     86 H86        22.7675  -25.3062  -40.8579 H         1 UNK         0.0646 
     87 H87        24.0302  -23.2183  -40.6737 H         1 UNK         0.0847 
     88 H88        22.4673  -22.8685  -41.3920 H         1 UNK         0.0847 
     89 H89        23.9141  -22.9218  -42.3988 H         1 UNK         0.0847 
     90 H90        23.4342  -27.1997  -42.8324 H         1 UNK         0.3040 
     91 H91        26.3242  -27.2763  -43.2102 H         1 UNK         0.1015 
     92 H92        24.7447  -28.3354  -44.8491 H         1 UNK         0.0786 
     93 H93        24.1420  -29.4150  -43.5903 H         1 UNK         0.0786 
     94 H94        25.8047  -29.5432  -44.1427 H         1 UNK         0.0786 
     95 H95        27.7191  -28.8211  -42.2285 H         1 UNK         0.3172 
     96 H96        27.1465  -29.5584  -39.4349 H         1 UNK         0.0595 
     97 H97        29.5374  -30.2716  -39.4704 H         1 UNK         0.0839 
     98 H98        29.3621  -28.6075  -40.0015 H         1 UNK         0.0839 
     99 H99        29.6485  -29.8856  -41.1816 H         1 UNK         0.0839 
    100 H100       25.3260  -30.9580  -40.0420 H         1 UNK         0.2998 
    101 H101       26.1178  -33.7281  -40.6242 H         1 UNK         0.0822 
    102 H102       25.5659  -32.7975  -42.8797 H         1 UNK         0.0787 
    103 H103       24.2938  -33.8959  -42.3763 H         1 UNK         0.0787 
    104 H104       24.0436  -32.1571  -42.2721 H         1 UNK         0.0787 
    105 H105       24.2428  -35.1794  -40.2677 H         1 UNK         0.3055 
    106 H106       23.2034  -34.8332  -37.6750 H         1 UNK         0.1106 
    107 H107       22.4348  -36.8535  -39.8540 H         1 UNK         0.0828 
    108 H108       23.7348  -37.0442  -38.6758 H         1 UNK         0.0828 
    109 H109       22.0641  -37.0133  -38.1434 H         1 UNK         0.0828 
    110 H110       21.8592  -33.6583  -40.6113 H         1 UNK         0.2931 
    111 H111       19.0970  -33.5578  -39.7955 H         1 UNK         0.0412 
    112 H112       20.8653  -30.3738  -38.0234 H         1 UNK         0.3472 
    113 H113       21.8337  -31.6529  -38.7189 H         1 UNK         0.3472 
    114 H114       18.7607  -32.1137  -41.7517 H         1 UNK         0.0970 
    115 H115       19.6390  -33.5473  -42.1693 H         1 UNK         0.0970 
    116 H116       21.0421  -29.2327  -42.3814 H         1 UNK         0.0612 
    117 H117       19.5467  -29.8427  -41.7307 H         1 UNK         0.0612 
@<TRIPOS>BOND
     1    1    2 1    
     2    1   62 1    
     3    1   63 1    
     4    1   64 1    
     5    2    3 2    
     6    2    4 am   BACKBONE|DICT|INTERRES
     7    4    5 1    
     8    4   65 1    
     9    5    6 1    
    10    5   25 1    
    11    5   66 1    
    12    6    7 1    
    13    6   67 1    
    14    6   68 1    
    15    7    8 1    
    16    8    9 1    
    17    8   69 1    
    18    8   70 1    
    19    9   10 ar   
    20    9   14 ar   
    21   10   11 ar   
    22   10   71 1    
    23   11   12 ar   
    24   11   61 1    
    25   12   13 ar   
    26   12   72 1    
    27   13   14 ar   
    28   13   15 1    
    29   14   73 1    
    30   15   16 1    
    31   15   74 1    
    32   15   75 1    
    33   16   17 1    
    34   17   18 1    
    35   17   76 1    
    36   17   77 1    
    37   18   19 1    
    38   18   27 1    
    39   18   78 1    
    40   19   20 am   BACKBONE|DICT|INTERRES
    41   19   79 1    
    42   20   21 2    
    43   20   22 1    
    44   22   23 1    
    45   22   24 1    
    46   22   80 1    
    47   23   81 1    
    48   23   82 1    
    49   23   83 1    
    50   24   25 am   BACKBONE|DICT|INTERRES
    51   24   84 1    
    52   25   26 2    
    53   27   28 2    
    54   27   29 am   BACKBONE|DICT|INTERRES
    55   29   30 1    
    56   29   85 1    
    57   30   31 1    
    58   30   32 1    
    59   30   86 1    
    60   31   87 1    
    61   31   88 1    
    62   31   89 1    
    63   32   33 2    
    64   32   34 am   BACKBONE|DICT|INTERRES
    65   34   35 1    
    66   34   90 1    
    67   35   36 1    
    68   35   37 1    
    69   35   91 1    
    70   36   92 1    
    71   36   93 1    
    72   36   94 1    
    73   37   38 2    
    74   37   39 am   BACKBONE|DICT|INTERRES
    75   39   40 1    
    76   39   95 1    
    77   40   41 1    
    78   40   42 1    
    79   40   96 1    
    80   41   97 1    
    81   41   98 1    
    82   41   99 1    
    83   42   43 2    
    84   42   44 am   BACKBONE|DICT|INTERRES
    85   44   45 1    
    86   44  100 1    
    87   45   46 1    
    88   45   47 1    
    89   45  101 1    
    90   46  102 1    
    91   46  103 1    
    92   46  104 1    
    93   47   48 2    
    94   47   49 am   BACKBONE|DICT|INTERRES
    95   49   50 1    
    96   49  105 1    
    97   50   51 1    
    98   50   52 1    
    99   50  106 1    
   100   51  107 1    
   101   51  108 1    
   102   51  109 1    
   103   52   53 2    
   104   52   54 am   BACKBONE|DICT|INTERRES
   105   54   55 1    
   106   54  110 1    
   107   55   56 1    
   108   55   59 1    
   109   55  111 1    
   110   56   57 am   BACKBONE|DICT|INTERRES
   111   56   58 2    
   112   57  112 1    
   113   57  113 1    
   114   59   60 1    
   115   59  114 1    
   116   59  115 1    
   117   60   61 1    
   118   61  116 1    
   119   61  117 1    
@<TRIPOS>SUBSTRUCTURE
     1 UNK         1 GROUP             0       ****    0 ROOT    
