@<TRIPOS>MOLECULE
3R8
117   119    1
SMALL
USER_CHARGES


@<TRIPOS>ATOM
      1 CA         14.5693  -24.0068  -46.3518 C.3       0 UNK        -0.2013 
      2 C          15.4808  -25.2122  -46.1736 C.2       0 UNK         0.4866 
      3 O          16.3142  -25.4778  -47.0400 O.2       0 UNK        -0.5176 
      4 N          15.3274  -25.9317  -45.0568 N.am      1 UNK        -0.4884 
      5 CA         16.1381  -27.0892  -44.6687 C.3       1 UNK         0.0853 
      6 C6         15.3964  -28.4350  -44.9123 C.3       10 UNK        -0.0849 
      7 S7         15.4730  -28.9327  -46.6652 S.3       10 UNK        -0.2776 
      8 C8         16.7655  -30.2268  -46.6441 C.3       10 UNK         0.0316 
      9 C9         18.0860  -29.7616  -46.0339 C.ar      10 UNK        -0.0863 
     10 C10        18.6819  -30.4996  -45.0047 C.ar      10 UNK        -0.1009 
     11 C11        19.8879  -30.0800  -44.4300 C.ar      10 UNK        -0.0712 
     12 C12        20.4926  -28.9125  -44.9004 C.ar      10 UNK        -0.0894 
     13 C13        19.9097  -28.1594  -45.9214 C.ar      10 UNK        -0.0745 
     14 C14        18.7189  -28.6046  -46.5016 C.ar      10 UNK        -0.0972 
     15 C15        20.5716  -26.8769  -46.4096 C.3       10 UNK         0.0209 
     16 S16        20.3037  -25.4774  -45.2676 S.3       10 UNK        -0.2568 
     17 C17        21.6293  -25.7280  -44.0323 C.3       10 UNK        -0.0983 
     18 CA         21.1202  -25.8702  -42.5714 C.3       3 UNK         0.0876 
     19 N          19.9753  -26.7708  -42.4400 N.am      3 UNK        -0.4424 
     20 C          19.1988  -26.8736  -41.3522 C.2       2 UNK         0.4918 
     21 O          19.3411  -26.1866  -40.3393 O.2       2 UNK        -0.4875 
     22 CA         18.0720  -27.9178  -41.4296 C.3       2 UNK         0.0481 
     23 CB         17.0794  -27.8505  -40.2488 C.3       2 UNK        -0.1831 
     24 N          17.3913  -27.8932  -42.7300 N.am      2 UNK        -0.4498 
     25 C          16.5973  -26.9227  -43.2091 C.2       1 UNK         0.5027 
     26 O          16.2467  -25.9316  -42.5622 O.2       1 UNK        -0.4969 
     27 C          22.2567  -26.3493  -41.6477 C.2       3 UNK         0.5005 
     28 O          22.7643  -27.4591  -41.8427 O.2       3 UNK        -0.5279 
     29 N          22.6479  -25.5104  -40.6780 N.am      4 UNK        -0.4463 
     30 CA         23.6662  -25.8064  -39.6606 C.3       4 UNK         0.0283 
     31 CB         23.6879  -24.6734  -38.6221 C.3       4 UNK        -0.1875 
     32 C          25.0804  -26.0482  -40.2198 C.2       4 UNK         0.4949 
     33 O          25.8941  -26.6784  -39.5456 O.2       4 UNK        -0.5039 
     34 N          25.3429  -25.5676  -41.4431 N.am      5 UNK        -0.4663 
     35 CA         26.5656  -25.8392  -42.2019 C.3       5 UNK         0.0242 
     36 CB         26.6257  -24.8929  -43.4121 C.3       5 UNK        -0.1982 
     37 C          26.6838  -27.3057  -42.6600 C.2       5 UNK         0.5017 
     38 O          27.8040  -27.7725  -42.8700 O.2       5 UNK        -0.5012 
     39 N          25.5438  -27.9966  -42.8073 N.am      6 UNK        -0.4439 
     40 CA         25.4696  -29.4164  -43.1470 C.3       6 UNK         0.0297 
     41 CB         24.3869  -29.6422  -44.2136 C.3       6 UNK        -0.2006 
     42 C          25.1842  -30.2470  -41.8901 C.2       6 UNK         0.4892 
     43 O          25.9368  -31.1791  -41.6093 O.2       6 UNK        -0.5089 
     44 N          24.1045  -29.9017  -41.1681 N.am      7 UNK        -0.4243 
     45 CA         23.6127  -30.4590  -39.8944 C.3       7 UNK         0.0196 
     46 CB         24.6101  -30.1591  -38.7596 C.3       7 UNK        -0.2007 
     47 C          23.2196  -31.9536  -39.8800 C.2       7 UNK         0.5020 
     48 O          22.4042  -32.3428  -39.0434 O.2       7 UNK        -0.5147 
     49 N          23.7831  -32.7666  -40.7827 N.am      8 UNK        -0.4734 
     50 CA         23.6546  -34.2289  -40.8645 C.3       8 UNK         0.0238 
     51 CB         24.5532  -34.7376  -42.0039 C.3       8 UNK        -0.1912 
     52 C          22.2223  -34.7698  -41.0337 C.2       8 UNK         0.5038 
     53 O          21.9862  -35.9419  -40.7374 O.2       8 UNK        -0.5046 
     54 N          21.3001  -33.9175  -41.4930 N.am      9 UNK        -0.4200 
     55 CA         19.8538  -34.1738  -41.5368 C.3       9 UNK         0.0839 
     56 C          19.1655  -34.2591  -40.1405 C.2       9 UNK         0.5513 
     57 N          19.7880  -33.8062  -39.0574 N.am      9 UNK        -0.7519 
     58 O          18.0475  -34.7583  -40.0413 O.2       9 UNK        -0.4960 
     59 C59        19.1328  -33.1698  -42.4749 C.3       10 UNK        -0.0876 
     60 S60        19.4371  -31.4273  -42.0126 S.3       10 UNK        -0.2414 
     61 C61        20.5751  -30.8767  -43.3237 C.3       10 UNK         0.0169 
     62 H62        13.8802  -23.8882  -45.5158 H         1 UNK         0.0903 
     63 H63        15.1629  -23.0966  -46.4338 H         1 UNK         0.0903 
     64 H64        13.9811  -24.1135  -47.2629 H         1 UNK         0.0903 
     65 H65        14.6864  -25.6150  -44.3411 H         1 UNK         0.3096 
     66 H66        17.0632  -27.0694  -45.2426 H         1 UNK         0.1121 
     67 H67        15.8021  -29.2535  -44.3157 H         1 UNK         0.0849 
     68 H68        14.3494  -28.3532  -44.6155 H         1 UNK         0.0849 
     69 H69        16.3773  -31.0954  -46.1097 H         1 UNK         0.0865 
     70 H70        16.9492  -30.5566  -47.6674 H         1 UNK         0.0865 
     71 H71        18.2079  -31.4050  -44.6522 H         1 UNK         0.1346 
     72 H72        21.4251  -28.5891  -44.4679 H         1 UNK         0.1412 
     73 H73        18.2631  -28.0328  -47.2995 H         1 UNK         0.1426 
     74 H74        20.1694  -26.6000  -47.3853 H         1 UNK         0.0716 
     75 H75        21.6394  -27.0392  -46.5637 H         1 UNK         0.0716 
     76 H76        22.2413  -26.5800  -44.3278 H         1 UNK         0.0695 
     77 H77        22.2982  -24.8681  -44.0982 H         1 UNK         0.0695 
     78 H78        20.7887  -24.8827  -42.2425 H         1 UNK         0.0983 
     79 H79        19.7867  -27.3631  -43.2346 H         1 UNK         0.3095 
     80 H80        18.5673  -28.8829  -41.3655 H         1 UNK         0.0454 
     81 H81        17.5914  -28.0352  -39.3038 H         1 UNK         0.0851 
     82 H82        16.2971  -28.6031  -40.3443 H         1 UNK         0.0851 
     83 H83        16.6011  -26.8745  -40.1671 H         1 UNK         0.0851 
     84 H84        17.6215  -28.6633  -43.3440 H         1 UNK         0.2976 
     85 H85        22.1701  -24.6249  -40.5841 H         1 UNK         0.3116 
     86 H86        23.3634  -26.7260  -39.1550 H         1 UNK         0.0646 
     87 H87        23.9604  -23.7177  -39.0717 H         1 UNK         0.0847 
     88 H88        22.7170  -24.5556  -38.1406 H         1 UNK         0.0847 
     89 H89        24.4133  -24.8800  -37.8336 H         1 UNK         0.0847 
     90 H90        24.6241  -25.0334  -41.9086 H         1 UNK         0.3040 
     91 H91        27.4212  -25.6294  -41.5558 H         1 UNK         0.1015 
     92 H92        27.5407  -25.0506  -43.9851 H         1 UNK         0.0786 
     93 H93        26.6176  -23.8482  -43.1006 H         1 UNK         0.0786 
     94 H94        25.7859  -25.0494  -44.0905 H         1 UNK         0.0786 
     95 H95        24.6708  -27.5470  -42.5531 H         1 UNK         0.3172 
     96 H96        26.4193  -29.7565  -43.5655 H         1 UNK         0.0595 
     97 H97        23.4074  -29.3269  -43.8618 H         1 UNK         0.0839 
     98 H98        24.3147  -30.6972  -44.4817 H         1 UNK         0.0839 
     99 H99        24.6086  -29.0892  -45.1264 H         1 UNK         0.0839 
    100 H100       23.5605  -29.1091  -41.5043 H         1 UNK         0.2998 
    101 H101       22.6954  -29.9087  -39.6777 H         1 UNK         0.0822 
    102 H102       24.2184  -30.4879  -37.7960 H         1 UNK         0.0787 
    103 H103       24.8086  -29.0905  -38.6795 H         1 UNK         0.0787 
    104 H104       25.5632  -30.6662  -38.9130 H         1 UNK         0.0787 
    105 H105       24.5096  -32.3472  -41.3570 H         1 UNK         0.3055 
    106 H106       24.0305  -34.6359  -39.9235 H         1 UNK         0.1106 
    107 H107       25.5951  -34.4600  -41.8425 H         1 UNK         0.0828 
    108 H108       24.5180  -35.8256  -42.0768 H         1 UNK         0.0828 
    109 H109       24.2443  -34.3354  -42.9696 H         1 UNK         0.0828 
    110 H110       21.5833  -32.9668  -41.6739 H         1 UNK         0.2931 
    111 H111       19.7275  -35.1626  -41.9823 H         1 UNK         0.0412 
    112 H112       19.3310  -33.8734  -38.1621 H         1 UNK         0.3472 
    113 H113       20.7001  -33.3660  -39.1261 H         1 UNK         0.3472 
    114 H114       19.4490  -33.3394  -43.5049 H         1 UNK         0.0970 
    115 H115       18.0554  -33.3462  -42.4750 H         1 UNK         0.0970 
    116 H116       21.1016  -31.7256  -43.7612 H         1 UNK         0.0612 
    117 H117       21.3388  -30.2639  -42.8420 H         1 UNK         0.0612 
@<TRIPOS>BOND
     1    1    2 1    
     2    1   62 1    
     3    1   63 1    
     4    1   64 1    
     5    2    3 2    
     6    2    4 am   BACKBONE|DICT|INTERRES
     7    4    5 1    
     8    4   65 1    
     9    5    6 1    
    10    5   25 1    
    11    5   66 1    
    12    6    7 1    
    13    6   67 1    
    14    6   68 1    
    15    7    8 1    
    16    8    9 1    
    17    8   69 1    
    18    8   70 1    
    19    9   10 ar   
    20    9   14 ar   
    21   10   11 ar   
    22   10   71 1    
    23   11   12 ar   
    24   11   61 1    
    25   12   13 ar   
    26   12   72 1    
    27   13   14 ar   
    28   13   15 1    
    29   14   73 1    
    30   15   16 1    
    31   15   74 1    
    32   15   75 1    
    33   16   17 1    
    34   17   18 1    
    35   17   76 1    
    36   17   77 1    
    37   18   19 1    
    38   18   27 1    
    39   18   78 1    
    40   19   20 am   BACKBONE|DICT|INTERRES
    41   19   79 1    
    42   20   21 2    
    43   20   22 1    
    44   22   23 1    
    45   22   24 1    
    46   22   80 1    
    47   23   81 1    
    48   23   82 1    
    49   23   83 1    
    50   24   25 am   BACKBONE|DICT|INTERRES
    51   24   84 1    
    52   25   26 2    
    53   27   28 2    
    54   27   29 am   BACKBONE|DICT|INTERRES
    55   29   30 1    
    56   29   85 1    
    57   30   31 1    
    58   30   32 1    
    59   30   86 1    
    60   31   87 1    
    61   31   88 1    
    62   31   89 1    
    63   32   33 2    
    64   32   34 am   BACKBONE|DICT|INTERRES
    65   34   35 1    
    66   34   90 1    
    67   35   36 1    
    68   35   37 1    
    69   35   91 1    
    70   36   92 1    
    71   36   93 1    
    72   36   94 1    
    73   37   38 2    
    74   37   39 am   BACKBONE|DICT|INTERRES
    75   39   40 1    
    76   39   95 1    
    77   40   41 1    
    78   40   42 1    
    79   40   96 1    
    80   41   97 1    
    81   41   98 1    
    82   41   99 1    
    83   42   43 2    
    84   42   44 am   BACKBONE|DICT|INTERRES
    85   44   45 1    
    86   44  100 1    
    87   45   46 1    
    88   45   47 1    
    89   45  101 1    
    90   46  102 1    
    91   46  103 1    
    92   46  104 1    
    93   47   48 2    
    94   47   49 am   BACKBONE|DICT|INTERRES
    95   49   50 1    
    96   49  105 1    
    97   50   51 1    
    98   50   52 1    
    99   50  106 1    
   100   51  107 1    
   101   51  108 1    
   102   51  109 1    
   103   52   53 2    
   104   52   54 am   BACKBONE|DICT|INTERRES
   105   54   55 1    
   106   54  110 1    
   107   55   56 1    
   108   55   59 1    
   109   55  111 1    
   110   56   57 am   BACKBONE|DICT|INTERRES
   111   56   58 2    
   112   57  112 1    
   113   57  113 1    
   114   59   60 1    
   115   59  114 1    
   116   59  115 1    
   117   60   61 1    
   118   61  116 1    
   119   61  117 1    
@<TRIPOS>SUBSTRUCTURE
     1 UNK         1 GROUP             0       ****    0 ROOT    
