@<TRIPOS>MOLECULE
3R8
117   119    1
SMALL
USER_CHARGES


@<TRIPOS>ATOM
      1 CA         15.9966  -23.6966  -41.3859 C.3       0 UNK        -0.2013 
      2 C          16.1594  -24.0244  -42.8624 C.2       0 UNK         0.4866 
      3 O          15.9942  -23.1440  -43.7069 O.2       0 UNK        -0.5176 
      4 N          16.4819  -25.2854  -43.1803 N.am      1 UNK        -0.4884 
      5 CA         16.6625  -25.7866  -44.5517 C.3       1 UNK         0.0853 
      6 C6         16.6440  -27.3316  -44.6112 C.3       10 UNK        -0.0849 
      7 S7         15.1661  -28.0755  -43.8352 S.3       10 UNK        -0.2776 
      8 C8         15.2128  -29.7721  -44.5030 C.3       10 UNK         0.0316 
      9 C9         16.5791  -30.4155  -44.3144 C.ar      10 UNK        -0.0863 
     10 C10        16.9619  -30.9211  -43.0695 C.ar      10 UNK        -0.1009 
     11 C11        18.2365  -31.4669  -42.8893 C.ar      10 UNK        -0.0712 
     12 C12        19.1340  -31.4999  -43.9627 C.ar      10 UNK        -0.0894 
     13 C13        18.7614  -30.9903  -45.2103 C.ar      10 UNK        -0.0745 
     14 C14        17.4767  -30.4695  -45.3833 C.ar      10 UNK        -0.0972 
     15 C15        19.7311  -30.9956  -46.3823 C.3       10 UNK         0.0209 
     16 S16        20.1605  -29.3026  -46.9038 S.3       10 UNK        -0.2568 
     17 C17        21.5586  -28.9222  -45.8026 C.3       10 UNK        -0.0983 
     18 CA         22.0339  -27.4587  -45.9862 C.3       3 UNK         0.0876 
     19 N          21.1082  -26.4878  -45.3823 N.am      3 UNK        -0.4424 
     20 C          21.1466  -25.1667  -45.6138 C.2       2 UNK         0.4918 
     21 O          21.8967  -24.6459  -46.4413 O.2       2 UNK        -0.4875 
     22 CA         20.2298  -24.2754  -44.7503 C.3       2 UNK         0.0481 
     23 CB         20.0123  -22.8728  -45.3581 C.3       2 UNK        -0.1831 
     24 N          18.9470  -24.8908  -44.3905 N.am      2 UNK        -0.4498 
     25 C          17.9513  -25.2529  -45.2163 C.2       1 UNK         0.5027 
     26 O          18.0110  -25.1794  -46.4442 O.2       1 UNK        -0.4969 
     27 C          23.4750  -27.2759  -45.4621 C.2       3 UNK         0.5005 
     28 O          24.4239  -27.4184  -46.2350 O.2       3 UNK        -0.5279 
     29 N          23.6070  -26.9358  -44.1748 N.am      4 UNK        -0.4463 
     30 CA         24.8391  -26.5991  -43.4684 C.3       4 UNK         0.0283 
     31 CB         25.7479  -27.8372  -43.3183 C.3       4 UNK        -0.1875 
     32 C          24.4419  -26.0380  -42.0971 C.2       4 UNK         0.4949 
     33 O          23.2758  -26.1509  -41.7077 O.2       4 UNK        -0.5039 
     34 N          25.4177  -25.4714  -41.3736 N.am      5 UNK        -0.4663 
     35 CA         25.2529  -25.0074  -39.9880 C.3       5 UNK         0.0242 
     36 CB         26.4931  -24.2037  -39.5647 C.3       5 UNK        -0.1982 
     37 C          24.9899  -26.1609  -39.0007 C.2       5 UNK         0.5017 
     38 O          24.2600  -25.9759  -38.0266 O.2       5 UNK        -0.5012 
     39 N          25.5616  -27.3319  -39.3028 N.am      6 UNK        -0.4439 
     40 CA         25.2618  -28.6185  -38.6879 C.3       6 UNK         0.0297 
     41 CB         26.5266  -29.1654  -38.0004 C.3       6 UNK        -0.2006 
     42 C          24.7672  -29.5215  -39.8238 C.2       6 UNK         0.4892 
     43 O          25.5671  -30.2299  -40.4379 O.2       6 UNK        -0.5089 
     44 N          23.4723  -29.3986  -40.1433 N.am      7 UNK        -0.4243 
     45 CA         22.8017  -30.1032  -41.2390 C.3       7 UNK         0.0196 
     46 CB         21.3846  -29.5316  -41.4027 C.3       7 UNK        -0.2007 
     47 C          22.7686  -31.6286  -41.0321 C.2       7 UNK         0.5020 
     48 O          22.7638  -32.1008  -39.8925 O.2       7 UNK        -0.5147 
     49 N          22.7304  -32.3710  -42.1458 N.am      8 UNK        -0.4734 
     50 CA         22.8591  -33.8327  -42.2273 C.3       8 UNK         0.0238 
     51 CB         23.2449  -34.2038  -43.6728 C.3       8 UNK        -0.1912 
     52 C          21.6347  -34.6305  -41.7222 C.2       8 UNK         0.5038 
     53 O          21.1716  -35.5402  -42.4132 O.2       8 UNK        -0.5046 
     54 N          21.1491  -34.2904  -40.5251 N.am      9 UNK        -0.4200 
     55 CA         20.0687  -34.9765  -39.7965 C.3       9 UNK         0.0839 
     56 C          20.5289  -35.5177  -38.4117 C.2       9 UNK         0.5513 
     57 N          21.7959  -35.3977  -38.0306 N.am      9 UNK        -0.7519 
     58 O          19.7247  -36.0782  -37.6715 O.2       9 UNK        -0.4960 
     59 C59        18.8015  -34.0881  -39.6690 C.3       10 UNK        -0.0876 
     60 S60        18.0501  -33.6997  -41.2849 S.3       10 UNK        -0.2414 
     61 C61        18.6458  -32.0024  -41.5280 C.3       10 UNK         0.0169 
     62 H62        16.7057  -22.9227  -41.0930 H         1 UNK         0.0903 
     63 H63        14.9898  -23.3270  -41.1929 H         1 UNK         0.0903 
     64 H64        16.1644  -24.5679  -40.7531 H         1 UNK         0.0903 
     65 H65        16.5653  -25.9790  -42.4498 H         1 UNK         0.3096 
     66 H66        15.8256  -25.4183  -45.1500 H         1 UNK         0.1121 
     67 H67        16.6892  -27.6620  -45.6510 H         1 UNK         0.0849 
     68 H68        17.5277  -27.7434  -44.1187 H         1 UNK         0.0849 
     69 H69        14.4502  -30.3739  -44.0063 H         1 UNK         0.0865 
     70 H70        14.9413  -29.7488  -45.5596 H         1 UNK         0.0865 
     71 H71        16.2718  -30.8792  -42.2376 H         1 UNK         0.1346 
     72 H72        20.1209  -31.9189  -43.8241 H         1 UNK         0.1412 
     73 H73        17.1903  -30.0736  -46.3483 H         1 UNK         0.1426 
     74 H74        19.2644  -31.5124  -47.2220 H         1 UNK         0.0716 
     75 H75        20.6386  -31.5534  -46.1457 H         1 UNK         0.0716 
     76 H76        22.3574  -29.6266  -46.0448 H         1 UNK         0.0695 
     77 H77        21.2754  -29.1182  -44.7668 H         1 UNK         0.0695 
     78 H78        22.0768  -27.2486  -47.0578 H         1 UNK         0.0983 
     79 H79        20.4425  -26.8460  -44.7146 H         1 UNK         0.3095 
     80 H80        20.7628  -24.1368  -43.8085 H         1 UNK         0.0454 
     81 H81        20.9593  -22.3449  -45.4769 H         1 UNK         0.0851 
     82 H82        19.3791  -22.2570  -44.7194 H         1 UNK         0.0851 
     83 H83        19.5454  -22.9255  -46.3420 H         1 UNK         0.0851 
     84 H84        18.7780  -25.0005  -43.4001 H         1 UNK         0.2976 
     85 H85        22.7808  -26.8125  -43.6005 H         1 UNK         0.3116 
     86 H86        25.3616  -25.8188  -44.0252 H         1 UNK         0.0646 
     87 H87        26.6600  -27.5984  -42.7709 H         1 UNK         0.0847 
     88 H88        26.0589  -28.2296  -44.2861 H         1 UNK         0.0847 
     89 H89        25.2481  -28.6420  -42.7811 H         1 UNK         0.0847 
     90 H90        26.3416  -25.3895  -41.7750 H         1 UNK         0.3040 
     91 H91        24.3848  -24.3448  -39.9537 H         1 UNK         0.1015 
     92 H92        26.3852  -23.8295  -38.5455 H         1 UNK         0.0786 
     93 H93        26.6449  -23.3386  -40.2105 H         1 UNK         0.0786 
     94 H94        27.3995  -24.8098  -39.5946 H         1 UNK         0.0786 
     95 H95        26.1230  -27.3730  -40.1416 H         1 UNK         0.3172 
     96 H96        24.4689  -28.5294  -37.9420 H         1 UNK         0.0595 
     97 H97        27.3625  -29.2596  -38.6948 H         1 UNK         0.0839 
     98 H98        26.3413  -30.1527  -37.5755 H         1 UNK         0.0839 
     99 H99        26.8435  -28.5148  -37.1852 H         1 UNK         0.0839 
    100 H100       22.8986  -28.7771  -39.5920 H         1 UNK         0.2998 
    101 H101       23.3618  -29.8958  -42.1524 H         1 UNK         0.0822 
    102 H102       21.4073  -28.4510  -41.5474 H         1 UNK         0.0787 
    103 H103       20.7613  -29.7405  -40.5322 H         1 UNK         0.0787 
    104 H104       20.8881  -29.9571  -42.2741 H         1 UNK         0.0787 
    105 H105       22.7026  -31.8898  -43.0328 H         1 UNK         0.3055 
    106 H106       23.6924  -34.1253  -41.5843 H         1 UNK         0.1106 
    107 H107       22.4535  -33.9497  -44.3790 H         1 UNK         0.0828 
    108 H108       24.1547  -33.6919  -43.9870 H         1 UNK         0.0828 
    109 H109       23.4350  -35.2740  -43.7674 H         1 UNK         0.0828 
    110 H110       21.6037  -33.5204  -40.0396 H         1 UNK         0.2931 
    111 H111       19.7810  -35.8720  -40.3500 H         1 UNK         0.0412 
    112 H112       22.4775  -34.9567  -38.6271 H         1 UNK         0.3472 
    113 H113       22.0748  -35.7618  -37.1327 H         1 UNK         0.3472 
    114 H114       18.0351  -34.5968  -39.0812 H         1 UNK         0.0970 
    115 H115       19.0295  -33.1674  -39.1289 H         1 UNK         0.0970 
    116 H116       19.7305  -31.9874  -41.4267 H         1 UNK         0.0612 
    117 H117       18.2501  -31.3595  -40.7402 H         1 UNK         0.0612 
@<TRIPOS>BOND
     1    1    2 1    
     2    1   62 1    
     3    1   63 1    
     4    1   64 1    
     5    2    3 2    
     6    2    4 am   BACKBONE|DICT|INTERRES
     7    4    5 1    
     8    4   65 1    
     9    5    6 1    
    10    5   25 1    
    11    5   66 1    
    12    6    7 1    
    13    6   67 1    
    14    6   68 1    
    15    7    8 1    
    16    8    9 1    
    17    8   69 1    
    18    8   70 1    
    19    9   10 ar   
    20    9   14 ar   
    21   10   11 ar   
    22   10   71 1    
    23   11   12 ar   
    24   11   61 1    
    25   12   13 ar   
    26   12   72 1    
    27   13   14 ar   
    28   13   15 1    
    29   14   73 1    
    30   15   16 1    
    31   15   74 1    
    32   15   75 1    
    33   16   17 1    
    34   17   18 1    
    35   17   76 1    
    36   17   77 1    
    37   18   19 1    
    38   18   27 1    
    39   18   78 1    
    40   19   20 am   BACKBONE|DICT|INTERRES
    41   19   79 1    
    42   20   21 2    
    43   20   22 1    
    44   22   23 1    
    45   22   24 1    
    46   22   80 1    
    47   23   81 1    
    48   23   82 1    
    49   23   83 1    
    50   24   25 am   BACKBONE|DICT|INTERRES
    51   24   84 1    
    52   25   26 2    
    53   27   28 2    
    54   27   29 am   BACKBONE|DICT|INTERRES
    55   29   30 1    
    56   29   85 1    
    57   30   31 1    
    58   30   32 1    
    59   30   86 1    
    60   31   87 1    
    61   31   88 1    
    62   31   89 1    
    63   32   33 2    
    64   32   34 am   BACKBONE|DICT|INTERRES
    65   34   35 1    
    66   34   90 1    
    67   35   36 1    
    68   35   37 1    
    69   35   91 1    
    70   36   92 1    
    71   36   93 1    
    72   36   94 1    
    73   37   38 2    
    74   37   39 am   BACKBONE|DICT|INTERRES
    75   39   40 1    
    76   39   95 1    
    77   40   41 1    
    78   40   42 1    
    79   40   96 1    
    80   41   97 1    
    81   41   98 1    
    82   41   99 1    
    83   42   43 2    
    84   42   44 am   BACKBONE|DICT|INTERRES
    85   44   45 1    
    86   44  100 1    
    87   45   46 1    
    88   45   47 1    
    89   45  101 1    
    90   46  102 1    
    91   46  103 1    
    92   46  104 1    
    93   47   48 2    
    94   47   49 am   BACKBONE|DICT|INTERRES
    95   49   50 1    
    96   49  105 1    
    97   50   51 1    
    98   50   52 1    
    99   50  106 1    
   100   51  107 1    
   101   51  108 1    
   102   51  109 1    
   103   52   53 2    
   104   52   54 am   BACKBONE|DICT|INTERRES
   105   54   55 1    
   106   54  110 1    
   107   55   56 1    
   108   55   59 1    
   109   55  111 1    
   110   56   57 am   BACKBONE|DICT|INTERRES
   111   56   58 2    
   112   57  112 1    
   113   57  113 1    
   114   59   60 1    
   115   59  114 1    
   116   59  115 1    
   117   60   61 1    
   118   61  116 1    
   119   61  117 1    
@<TRIPOS>SUBSTRUCTURE
     1 UNK         1 GROUP             0       ****    0 ROOT    
