@<TRIPOS>MOLECULE
3R8
117   119    1
SMALL
USER_CHARGES


@<TRIPOS>ATOM
      1 CA         15.2579  -22.4792  -46.9773 C.3       0 UNK        -0.2013 
      2 C          15.4780  -23.4325  -45.8117 C.2       0 UNK         0.4866 
      3 O          15.3306  -23.0241  -44.6592 O.2       0 UNK        -0.5176 
      4 N          15.8227  -24.6928  -46.1132 N.am      1 UNK        -0.4884 
      5 CA         16.1216  -25.7847  -45.1725 C.3       1 UNK         0.0853 
      6 C6         14.9077  -26.1714  -44.2722 C.3       10 UNK        -0.0849 
      7 S7         13.6915  -27.1454  -45.2173 S.3       10 UNK        -0.2776 
      8 C8         13.9596  -28.8229  -44.5434 C.3       10 UNK         0.0316 
      9 C9         15.4136  -29.2840  -44.6205 C.ar      10 UNK        -0.0863 
     10 C10        16.0756  -29.7218  -43.4692 C.ar      10 UNK        -0.1009 
     11 C11        17.3966  -30.1807  -43.5284 C.ar      10 UNK        -0.0712 
     12 C12        18.0608  -30.1851  -44.7618 C.ar      10 UNK        -0.0894 
     13 C13        17.4179  -29.7272  -45.9176 C.ar      10 UNK        -0.0745 
     14 C14        16.0900  -29.2995  -45.8425 C.ar      10 UNK        -0.0972 
     15 C15        18.1359  -29.7101  -47.2592 C.3       10 UNK         0.0209 
     16 S16        19.1348  -28.1995  -47.4730 S.3       10 UNK        -0.2568 
     17 C17        20.7167  -28.7055  -46.7154 C.3       10 UNK        -0.0983 
     18 CA         21.2068  -27.7736  -45.5748 C.3       3 UNK         0.0876 
     19 N          20.1690  -27.5412  -44.5664 N.am      3 UNK        -0.4424 
     20 C          20.2432  -26.7227  -43.5066 C.2       2 UNK         0.4918 
     21 O          21.2456  -26.0728  -43.2025 O.2       2 UNK        -0.4875 
     22 CA         18.9575  -26.5978  -42.6638 C.3       2 UNK         0.0481 
     23 CB         19.0011  -25.4284  -41.6554 C.3       2 UNK        -0.1831 
     24 N          17.7489  -26.5247  -43.4949 N.am      2 UNK        -0.4498 
     25 C          17.4324  -25.5661  -44.3823 C.2       1 UNK         0.5027 
     26 O          18.1490  -24.5894  -44.6173 O.2       1 UNK        -0.4969 
     27 C          22.4909  -28.3399  -44.9347 C.2       3 UNK         0.5005 
     28 O          22.5608  -29.5462  -44.6983 O.2       3 UNK        -0.5279 
     29 N          23.4615  -27.4597  -44.6428 N.am      4 UNK        -0.4463 
     30 CA         24.7148  -27.7403  -43.9282 C.3       4 UNK         0.0283 
     31 CB         25.6499  -28.6274  -44.7786 C.3       4 UNK        -0.1875 
     32 C          24.4771  -28.3110  -42.5150 C.2       4 UNK         0.4949 
     33 O          25.1793  -29.2336  -42.0969 O.2       4 UNK        -0.5039 
     34 N          23.4747  -27.7687  -41.8077 N.am      5 UNK        -0.4663 
     35 CA         23.0697  -28.2148  -40.4730 C.3       5 UNK         0.0242 
     36 CB         21.8608  -27.4003  -39.9935 C.3       5 UNK        -0.1982 
     37 C          24.2115  -28.1627  -39.4419 C.2       5 UNK         0.5017 
     38 O          24.9612  -27.1850  -39.4162 O.2       5 UNK        -0.5012 
     39 N          24.3038  -29.2283  -38.6364 N.am      6 UNK        -0.4439 
     40 CA         25.3264  -29.5720  -37.6382 C.3       6 UNK         0.0297 
     41 CB         25.8629  -28.3701  -36.8341 C.3       6 UNK        -0.2006 
     42 C          26.4554  -30.4366  -38.2221 C.2       6 UNK         0.4892 
     43 O          27.0304  -31.2300  -37.4755 O.2       6 UNK        -0.5089 
     44 N          26.7204  -30.3278  -39.5323 N.am      7 UNK        -0.4243 
     45 CA         27.4784  -31.3296  -40.2877 C.3       7 UNK         0.0196 
     46 CB         28.2481  -30.6631  -41.4408 C.3       7 UNK        -0.2007 
     47 C          26.5095  -32.4068  -40.8002 C.2       7 UNK         0.5020 
     48 O          26.7583  -33.5973  -40.6086 O.2       7 UNK        -0.5147 
     49 N          25.3987  -31.9554  -41.3925 N.am      8 UNK        -0.4734 
     50 CA         24.2207  -32.7439  -41.7440 C.3       8 UNK         0.0238 
     51 CB         23.9151  -32.5070  -43.2333 C.3       8 UNK        -0.1912 
     52 C          23.0416  -32.3348  -40.8382 C.2       8 UNK         0.5038 
     53 O          23.2390  -31.6168  -39.8526 O.2       8 UNK        -0.5046 
     54 N          21.8355  -32.8128  -41.1743 N.am      9 UNK        -0.4200 
     55 CA         20.5746  -32.5854  -40.4402 C.3       9 UNK         0.0839 
     56 C          20.5195  -33.2420  -39.0248 C.2       9 UNK         0.5513 
     57 N          21.3846  -34.1965  -38.7033 N.am      9 UNK        -0.7519 
     58 O          19.6585  -32.9101  -38.2138 O.2       9 UNK        -0.4960 
     59 C59        20.1226  -31.0932  -40.4264 C.3       10 UNK        -0.0876 
     60 S60        19.8341  -30.4043  -42.0944 S.3       10 UNK        -0.2414 
     61 C61        18.0443  -30.7272  -42.2563 C.3       10 UNK         0.0169 
     62 H62        14.2451  -22.0780  -46.9476 H         1 UNK         0.0903 
     63 H63        15.9567  -21.6453  -46.9161 H         1 UNK         0.0903 
     64 H64        15.3992  -22.9698  -47.9402 H         1 UNK         0.0903 
     65 H65        15.9415  -24.9367  -47.0867 H         1 UNK         0.3096 
     66 H66        16.3570  -26.6344  -45.8124 H         1 UNK         0.1121 
     67 H67        14.4110  -25.2889  -43.8690 H         1 UNK         0.0849 
     68 H68        15.1941  -26.7512  -43.3947 H         1 UNK         0.0849 
     69 H69        13.6006  -28.8447  -43.5132 H         1 UNK         0.0865 
     70 H70        13.3372  -29.5278  -45.0963 H         1 UNK         0.0865 
     71 H71        15.5500  -29.7320  -42.5235 H         1 UNK         0.1346 
     72 H72        19.0749  -30.5549  -44.8238 H         1 UNK         0.1412 
     73 H73        15.5810  -28.9653  -46.7369 H         1 UNK         0.1426 
     74 H74        17.4068  -29.7545  -48.0697 H         1 UNK         0.0716 
     75 H75        18.7551  -30.6011  -47.3729 H         1 UNK         0.0716 
     76 H76        21.4636  -28.7387  -47.5108 H         1 UNK         0.0695 
     77 H77        20.6244  -29.7325  -46.3601 H         1 UNK         0.0695 
     78 H78        21.4425  -26.8043  -46.0191 H         1 UNK         0.0983 
     79 H79        19.3035  -28.0360  -44.7236 H         1 UNK         0.3095 
     80 H80        18.8763  -27.5211  -42.0898 H         1 UNK         0.0454 
     81 H81        18.0868  -25.3804  -41.0645 H         1 UNK         0.0851 
     82 H82        19.1298  -24.4666  -42.1522 H         1 UNK         0.0851 
     83 H83        19.8296  -25.5369  -40.9566 H         1 UNK         0.0851 
     84 H84        17.1222  -27.3133  -43.4071 H         1 UNK         0.2976 
     85 H85        23.2777  -26.4818  -44.8251 H         1 UNK         0.3116 
     86 H86        25.2109  -26.7791  -43.7868 H         1 UNK         0.0646 
     87 H87        25.2491  -29.6337  -44.9054 H         1 UNK         0.0847 
     88 H88        26.6278  -28.7276  -44.3062 H         1 UNK         0.0847 
     89 H89        25.8112  -28.2020  -45.7687 H         1 UNK         0.0847 
     90 H90        22.9246  -27.0305  -42.2314 H         1 UNK         0.3040 
     91 H91        22.7495  -29.2493  -40.5880 H         1 UNK         0.1015 
     92 H92        22.0673  -26.3294  -40.0005 H         1 UNK         0.0786 
     93 H93        21.5790  -27.6746  -38.9759 H         1 UNK         0.0786 
     94 H94        20.9935  -27.5881  -40.6247 H         1 UNK         0.0786 
     95 H95        23.6808  -30.0058  -38.8487 H         1 UNK         0.3172 
     96 H96        24.8015  -30.2119  -36.9271 H         1 UNK         0.0595 
     97 H97        26.5103  -27.7313  -37.4354 H         1 UNK         0.0839 
     98 H98        26.4561  -28.7114  -35.9849 H         1 UNK         0.0839 
     99 H99        25.0523  -27.7582  -36.4387 H         1 UNK         0.0839 
    100 H100       26.1951  -29.6550  -40.0766 H         1 UNK         0.2998 
    101 H101       28.2102  -31.8129  -39.6365 H         1 UNK         0.0822 
    102 H102       28.9364  -29.9043  -41.0685 H         1 UNK         0.0787 
    103 H103       28.8407  -31.3995  -41.9851 H         1 UNK         0.0787 
    104 H104       27.5850  -30.1864  -42.1620 H         1 UNK         0.0787 
    105 H105       25.2953  -30.9502  -41.5231 H         1 UNK         0.3055 
    106 H106       24.4105  -33.8070  -41.5819 H         1 UNK         0.1106 
    107 H107       23.0960  -33.1332  -43.5872 H         1 UNK         0.0828 
    108 H108       23.6409  -31.4689  -43.4181 H         1 UNK         0.0828 
    109 H109       24.7810  -32.7347  -43.8551 H         1 UNK         0.0828 
    110 H110       21.7576  -33.4003  -41.9911 H         1 UNK         0.2931 
    111 H111       19.8215  -33.1329  -41.0081 H         1 UNK         0.0412 
    112 H112       22.0896  -34.4922  -39.3586 H         1 UNK         0.3472 
    113 H113       21.3328  -34.6218  -37.7908 H         1 UNK         0.3472 
    114 H114       20.8595  -30.4750  -39.9150 H         1 UNK         0.0970 
    115 H115       19.2048  -30.9735  -39.8485 H         1 UNK         0.0970 
    116 H116       17.5441  -30.3043  -41.3836 H         1 UNK         0.0612 
    117 H117       17.8775  -31.8044  -42.2201 H         1 UNK         0.0612 
@<TRIPOS>BOND
     1    1    2 1    
     2    1   62 1    
     3    1   63 1    
     4    1   64 1    
     5    2    3 2    
     6    2    4 am   BACKBONE|DICT|INTERRES
     7    4    5 1    
     8    4   65 1    
     9    5    6 1    
    10    5   25 1    
    11    5   66 1    
    12    6    7 1    
    13    6   67 1    
    14    6   68 1    
    15    7    8 1    
    16    8    9 1    
    17    8   69 1    
    18    8   70 1    
    19    9   10 ar   
    20    9   14 ar   
    21   10   11 ar   
    22   10   71 1    
    23   11   12 ar   
    24   11   61 1    
    25   12   13 ar   
    26   12   72 1    
    27   13   14 ar   
    28   13   15 1    
    29   14   73 1    
    30   15   16 1    
    31   15   74 1    
    32   15   75 1    
    33   16   17 1    
    34   17   18 1    
    35   17   76 1    
    36   17   77 1    
    37   18   19 1    
    38   18   27 1    
    39   18   78 1    
    40   19   20 am   BACKBONE|DICT|INTERRES
    41   19   79 1    
    42   20   21 2    
    43   20   22 1    
    44   22   23 1    
    45   22   24 1    
    46   22   80 1    
    47   23   81 1    
    48   23   82 1    
    49   23   83 1    
    50   24   25 am   BACKBONE|DICT|INTERRES
    51   24   84 1    
    52   25   26 2    
    53   27   28 2    
    54   27   29 am   BACKBONE|DICT|INTERRES
    55   29   30 1    
    56   29   85 1    
    57   30   31 1    
    58   30   32 1    
    59   30   86 1    
    60   31   87 1    
    61   31   88 1    
    62   31   89 1    
    63   32   33 2    
    64   32   34 am   BACKBONE|DICT|INTERRES
    65   34   35 1    
    66   34   90 1    
    67   35   36 1    
    68   35   37 1    
    69   35   91 1    
    70   36   92 1    
    71   36   93 1    
    72   36   94 1    
    73   37   38 2    
    74   37   39 am   BACKBONE|DICT|INTERRES
    75   39   40 1    
    76   39   95 1    
    77   40   41 1    
    78   40   42 1    
    79   40   96 1    
    80   41   97 1    
    81   41   98 1    
    82   41   99 1    
    83   42   43 2    
    84   42   44 am   BACKBONE|DICT|INTERRES
    85   44   45 1    
    86   44  100 1    
    87   45   46 1    
    88   45   47 1    
    89   45  101 1    
    90   46  102 1    
    91   46  103 1    
    92   46  104 1    
    93   47   48 2    
    94   47   49 am   BACKBONE|DICT|INTERRES
    95   49   50 1    
    96   49  105 1    
    97   50   51 1    
    98   50   52 1    
    99   50  106 1    
   100   51  107 1    
   101   51  108 1    
   102   51  109 1    
   103   52   53 2    
   104   52   54 am   BACKBONE|DICT|INTERRES
   105   54   55 1    
   106   54  110 1    
   107   55   56 1    
   108   55   59 1    
   109   55  111 1    
   110   56   57 am   BACKBONE|DICT|INTERRES
   111   56   58 2    
   112   57  112 1    
   113   57  113 1    
   114   59   60 1    
   115   59  114 1    
   116   59  115 1    
   117   60   61 1    
   118   61  116 1    
   119   61  117 1    
@<TRIPOS>SUBSTRUCTURE
     1 UNK         1 GROUP             0       ****    0 ROOT    
