@<TRIPOS>MOLECULE
3R8
117   119    1
SMALL
USER_CHARGES


@<TRIPOS>ATOM
      1 CA         20.3447  -32.5883  -45.7981 C.3       0 UNK        -0.2013 
      2 C          19.7007  -31.2114  -45.7645 C.2       0 UNK         0.4866 
      3 O          19.9978  -30.4156  -44.8749 O.2       0 UNK        -0.5176 
      4 N          18.8330  -30.9037  -46.7376 N.am      1 UNK        -0.4884 
      5 CA         18.0617  -29.6556  -46.8375 C.3       1 UNK         0.0853 
      6 C6         16.7568  -29.8789  -47.6456 C.3       10 UNK        -0.0849 
      7 S7         15.4637  -28.6248  -47.3401 S.3       10 UNK        -0.2776 
      8 C8         14.6709  -29.2268  -45.8136 C.3       10 UNK         0.0316 
      9 C9         15.3375  -28.6654  -44.5639 C.ar      10 UNK        -0.0863 
     10 C10        16.0570  -29.4996  -43.7013 C.ar      10 UNK        -0.1009 
     11 C11        16.6272  -28.9834  -42.5337 C.ar      10 UNK        -0.0712 
     12 C12        16.4546  -27.6329  -42.2213 C.ar      10 UNK        -0.0894 
     13 C13        15.7835  -26.7761  -43.0982 C.ar      10 UNK        -0.0745 
     14 C14        15.2143  -27.3047  -44.2609 C.ar      10 UNK        -0.0972 
     15 C15        15.6580  -25.2845  -42.7962 C.3       10 UNK         0.0209 
     16 S16        17.2129  -24.5120  -42.2203 S.3       10 UNK        -0.2568 
     17 C17        18.3440  -24.7929  -43.6268 C.3       10 UNK        -0.0983 
     18 CA         19.3847  -25.9113  -43.3311 C.3       3 UNK         0.0876 
     19 N          19.8272  -26.6101  -44.5395 N.am      3 UNK        -0.4424 
     20 C          20.5196  -26.0891  -45.5656 C.2       2 UNK         0.4918 
     21 O          20.8719  -24.9119  -45.6344 O.2       2 UNK        -0.4875 
     22 CA         20.8832  -27.0432  -46.7195 C.3       2 UNK         0.0481 
     23 CB         22.3727  -27.4134  -46.6546 C.3       2 UNK        -0.1831 
     24 N          20.0763  -28.2644  -46.6718 N.am      2 UNK        -0.4498 
     25 C          18.9103  -28.4449  -47.3038 C.2       1 UNK         0.5027 
     26 O          18.5033  -27.6958  -48.1934 O.2       1 UNK        -0.4969 
     27 C          20.5880  -25.4746  -42.4655 C.2       3 UNK         0.5005 
     28 O          20.7491  -24.2907  -42.1601 O.2       3 UNK        -0.5279 
     29 N          21.4297  -26.4528  -42.1051 N.am      4 UNK        -0.4463 
     30 CA         22.6120  -26.2798  -41.2675 C.3       4 UNK         0.0283 
     31 CB         23.8546  -26.0949  -42.1551 C.3       4 UNK        -0.1875 
     32 C          22.7424  -27.5153  -40.3740 C.2       4 UNK         0.4949 
     33 O          22.8845  -28.6225  -40.8972 O.2       4 UNK        -0.5039 
     34 N          22.6734  -27.3136  -39.0526 N.am      5 UNK        -0.4663 
     35 CA         22.7880  -28.3646  -38.0374 C.3       5 UNK         0.0242 
     36 CB         22.4615  -27.7742  -36.6566 C.3       5 UNK        -0.1982 
     37 C          24.1829  -29.0065  -38.0326 C.2       5 UNK         0.5017 
     38 O          25.1797  -28.2836  -38.0974 O.2       5 UNK        -0.5012 
     39 N          24.2237  -30.3445  -37.9737 N.am      6 UNK        -0.4439 
     40 CA         25.3924  -31.2373  -37.9868 C.3       6 UNK         0.0297 
     41 CB         26.3524  -30.9464  -36.8166 C.3       6 UNK        -0.2006 
     42 C          26.1435  -31.2787  -39.3300 C.2       6 UNK         0.4892 
     43 O          26.5773  -32.3560  -39.7390 O.2       6 UNK        -0.5089 
     44 N          26.2711  -30.1257  -39.9978 N.am      7 UNK        -0.4243 
     45 CA         26.8707  -29.9721  -41.3226 C.3       7 UNK         0.0196 
     46 CB         27.0861  -28.4778  -41.6073 C.3       7 UNK        -0.2007 
     47 C          26.0357  -30.6178  -42.4408 C.2       7 UNK         0.5020 
     48 O          26.6166  -31.1096  -43.4089 O.2       7 UNK        -0.5147 
     49 N          24.7041  -30.6090  -42.2953 N.am      8 UNK        -0.4734 
     50 CA         23.7690  -31.1978  -43.2530 C.3       8 UNK         0.0238 
     51 CB         23.2982  -30.1219  -44.2445 C.3       8 UNK        -0.1912 
     52 C          22.5907  -31.8685  -42.5368 C.2       8 UNK         0.5038 
     53 O          22.3232  -33.0429  -42.7938 O.2       8 UNK        -0.5046 
     54 N          21.9199  -31.1257  -41.6486 N.am      9 UNK        -0.4200 
     55 CA         20.7907  -31.6033  -40.8426 C.3       9 UNK         0.0839 
     56 C          21.3005  -32.4410  -39.6436 C.2       9 UNK         0.5513 
     57 N          20.8960  -33.6982  -39.5369 N.am      9 UNK        -0.7519 
     58 O          22.0265  -31.9392  -38.7872 O.2       9 UNK        -0.4960 
     59 C59        19.8999  -30.4353  -40.3478 C.3       10 UNK        -0.0876 
     60 S60        19.2115  -29.4344  -41.7050 S.3       10 UNK        -0.2414 
     61 C61        17.4464  -29.8666  -41.6072 C.3       10 UNK         0.0169 
     62 H62        21.4136  -32.5003  -45.9886 H         1 UNK         0.0903 
     63 H63        20.2122  -33.0842  -44.8367 H         1 UNK         0.0903 
     64 H64        19.9107  -33.2233  -46.5700 H         1 UNK         0.0903 
     65 H65        18.6653  -31.5767  -47.4727 H         1 UNK         0.3096 
     66 H66        17.7615  -29.4020  -45.8204 H         1 UNK         0.1121 
     67 H67        16.9698  -29.9069  -48.7159 H         1 UNK         0.0849 
     68 H68        16.3304  -30.8552  -47.4095 H         1 UNK         0.0849 
     69 H69        13.6253  -28.9153  -45.8204 H         1 UNK         0.0865 
     70 H70        14.6571  -30.3176  -45.7989 H         1 UNK         0.0865 
     71 H71        16.1761  -30.5481  -43.9385 H         1 UNK         0.1346 
     72 H72        16.8876  -27.2395  -41.3117 H         1 UNK         0.1412 
     73 H73        14.6723  -26.6574  -44.9374 H         1 UNK         0.1426 
     74 H74        14.8955  -25.1486  -42.0284 H         1 UNK         0.0716 
     75 H75        15.3095  -24.7417  -43.6763 H         1 UNK         0.0716 
     76 H76        18.8307  -23.8536  -43.8947 H         1 UNK         0.0695 
     77 H77        17.7406  -25.0645  -44.4945 H         1 UNK         0.0695 
     78 H78        18.8816  -26.6784  -42.7464 H         1 UNK         0.0983 
     79 H79        19.5952  -27.5920  -44.5774 H         1 UNK         0.3095 
     80 H80        20.7053  -26.5178  -47.6599 H         1 UNK         0.0454 
     81 H81        22.6385  -27.8438  -45.6906 H         1 UNK         0.0851 
     82 H82        22.9973  -26.5304  -46.7954 H         1 UNK         0.0851 
     83 H83        22.6420  -28.1286  -47.4319 H         1 UNK         0.0851 
     84 H84        20.3295  -28.9665  -45.9791 H         1 UNK         0.2976 
     85 H85        21.2177  -27.4102  -42.3552 H         1 UNK         0.3116 
     86 H86        22.4973  -25.3969  -40.6348 H         1 UNK         0.0646 
     87 H87        24.0324  -26.9637  -42.7905 H         1 UNK         0.0847 
     88 H88        24.7463  -25.9419  -41.5464 H         1 UNK         0.0847 
     89 H89        23.7518  -25.2241  -42.8027 H         1 UNK         0.0847 
     90 H90        22.5812  -26.3682  -38.7099 H         1 UNK         0.3040 
     91 H91        22.0507  -29.1359  -38.2600 H         1 UNK         0.1015 
     92 H92        21.4529  -27.3613  -36.6288 H         1 UNK         0.0786 
     93 H93        23.1584  -26.9812  -36.3815 H         1 UNK         0.0786 
     94 H94        22.5179  -28.5402  -35.8818 H         1 UNK         0.0786 
     95 H95        23.3366  -30.8432  -38.0344 H         1 UNK         0.3172 
     96 H96        24.9859  -32.2380  -37.8313 H         1 UNK         0.0595 
     97 H97        26.8337  -29.9727  -36.9116 H         1 UNK         0.0839 
     98 H98        27.1460  -31.6935  -36.7731 H         1 UNK         0.0839 
     99 H99        25.8311  -30.9717  -35.8598 H         1 UNK         0.0839 
    100 H100       25.9149  -29.2884  -39.5456 H         1 UNK         0.2998 
    101 H101       27.8453  -30.4647  -41.3104 H         1 UNK         0.0822 
    102 H102       27.7450  -28.0232  -40.8672 H         1 UNK         0.0787 
    103 H103       27.5440  -28.3274  -42.5860 H         1 UNK         0.0787 
    104 H104       26.1437  -27.9305  -41.5989 H         1 UNK         0.0787 
    105 H105       24.3000  -30.1595  -41.4819 H         1 UNK         0.3055 
    106 H106       24.2756  -31.9827  -43.8198 H         1 UNK         0.1106 
    107 H107       22.6592  -30.5549  -45.0129 H         1 UNK         0.0828 
    108 H108       22.7306  -29.3347  -43.7470 H         1 UNK         0.0828 
    109 H109       24.1425  -29.6576  -44.7540 H         1 UNK         0.0828 
    110 H110       22.2186  -30.1704  -41.4668 H         1 UNK         0.2931 
    111 H111       20.1687  -32.2393  -41.4767 H         1 UNK         0.0412 
    112 H112       20.3038  -34.1150  -40.2387 H         1 UNK         0.3472 
    113 H113       21.2075  -34.2485  -38.7519 H         1 UNK         0.3472 
    114 H114       19.0849  -30.8173  -39.7304 H         1 UNK         0.0970 
    115 H115       20.4675  -29.7631  -39.7063 H         1 UNK         0.0970 
    116 H116       17.0916  -29.7382  -40.5835 H         1 UNK         0.0612 
    117 H117       17.3200  -30.9211  -41.8573 H         1 UNK         0.0612 
@<TRIPOS>BOND
     1    1    2 1    
     2    1   62 1    
     3    1   63 1    
     4    1   64 1    
     5    2    3 2    
     6    2    4 am   BACKBONE|DICT|INTERRES
     7    4    5 1    
     8    4   65 1    
     9    5    6 1    
    10    5   25 1    
    11    5   66 1    
    12    6    7 1    
    13    6   67 1    
    14    6   68 1    
    15    7    8 1    
    16    8    9 1    
    17    8   69 1    
    18    8   70 1    
    19    9   10 ar   
    20    9   14 ar   
    21   10   11 ar   
    22   10   71 1    
    23   11   12 ar   
    24   11   61 1    
    25   12   13 ar   
    26   12   72 1    
    27   13   14 ar   
    28   13   15 1    
    29   14   73 1    
    30   15   16 1    
    31   15   74 1    
    32   15   75 1    
    33   16   17 1    
    34   17   18 1    
    35   17   76 1    
    36   17   77 1    
    37   18   19 1    
    38   18   27 1    
    39   18   78 1    
    40   19   20 am   BACKBONE|DICT|INTERRES
    41   19   79 1    
    42   20   21 2    
    43   20   22 1    
    44   22   23 1    
    45   22   24 1    
    46   22   80 1    
    47   23   81 1    
    48   23   82 1    
    49   23   83 1    
    50   24   25 am   BACKBONE|DICT|INTERRES
    51   24   84 1    
    52   25   26 2    
    53   27   28 2    
    54   27   29 am   BACKBONE|DICT|INTERRES
    55   29   30 1    
    56   29   85 1    
    57   30   31 1    
    58   30   32 1    
    59   30   86 1    
    60   31   87 1    
    61   31   88 1    
    62   31   89 1    
    63   32   33 2    
    64   32   34 am   BACKBONE|DICT|INTERRES
    65   34   35 1    
    66   34   90 1    
    67   35   36 1    
    68   35   37 1    
    69   35   91 1    
    70   36   92 1    
    71   36   93 1    
    72   36   94 1    
    73   37   38 2    
    74   37   39 am   BACKBONE|DICT|INTERRES
    75   39   40 1    
    76   39   95 1    
    77   40   41 1    
    78   40   42 1    
    79   40   96 1    
    80   41   97 1    
    81   41   98 1    
    82   41   99 1    
    83   42   43 2    
    84   42   44 am   BACKBONE|DICT|INTERRES
    85   44   45 1    
    86   44  100 1    
    87   45   46 1    
    88   45   47 1    
    89   45  101 1    
    90   46  102 1    
    91   46  103 1    
    92   46  104 1    
    93   47   48 2    
    94   47   49 am   BACKBONE|DICT|INTERRES
    95   49   50 1    
    96   49  105 1    
    97   50   51 1    
    98   50   52 1    
    99   50  106 1    
   100   51  107 1    
   101   51  108 1    
   102   51  109 1    
   103   52   53 2    
   104   52   54 am   BACKBONE|DICT|INTERRES
   105   54   55 1    
   106   54  110 1    
   107   55   56 1    
   108   55   59 1    
   109   55  111 1    
   110   56   57 am   BACKBONE|DICT|INTERRES
   111   56   58 2    
   112   57  112 1    
   113   57  113 1    
   114   59   60 1    
   115   59  114 1    
   116   59  115 1    
   117   60   61 1    
   118   61  116 1    
   119   61  117 1    
@<TRIPOS>SUBSTRUCTURE
     1 UNK         1 GROUP             0       ****    0 ROOT    
