@<TRIPOS>MOLECULE
3R8
117   119    1
SMALL
USER_CHARGES


@<TRIPOS>ATOM
      1 CA         22.2018  -32.1345  -46.5326 C.3       0 UNK        -0.2013 
      2 C          21.2347  -31.0974  -45.9842 C.2       0 UNK         0.4866 
      3 O          21.1879  -30.8773  -44.7713 O.2       0 UNK        -0.5176 
      4 N          20.4807  -30.4402  -46.8763 N.am      1 UNK        -0.4884 
      5 CA         19.5290  -29.3626  -46.5777 C.3       1 UNK         0.0853 
      6 C6         18.4363  -29.2296  -47.6769 C.3       10 UNK        -0.0849 
      7 S7         17.2198  -30.5892  -47.8392 S.3       10 UNK        -0.2776 
      8 C8         17.0204  -31.3127  -46.1688 C.3       10 UNK         0.0316 
      9 C9         16.6170  -30.3572  -45.0397 C.ar      10 UNK        -0.0863 
     10 C10        16.7928  -30.7968  -43.7252 C.ar      10 UNK        -0.1009 
     11 C11        16.5349  -29.9518  -42.6429 C.ar      10 UNK        -0.0712 
     12 C12        16.0642  -28.6588  -42.8757 C.ar      10 UNK        -0.0894 
     13 C13        15.8745  -28.2029  -44.1811 C.ar      10 UNK        -0.0745 
     14 C14        16.1264  -29.0616  -45.2573 C.ar      10 UNK        -0.0972 
     15 C15        15.4333  -26.7701  -44.4312 C.3       10 UNK         0.0209 
     16 S16        16.8678  -25.6806  -44.7073 S.3       10 UNK        -0.2568 
     17 C17        17.4218  -25.2708  -43.0109 C.3       10 UNK        -0.0983 
     18 CA         18.6708  -26.0634  -42.5367 C.3       3 UNK         0.0876 
     19 N          19.7398  -26.0673  -43.5378 N.am      3 UNK        -0.4424 
     20 C          20.9220  -26.6861  -43.4313 C.2       2 UNK         0.4918 
     21 O          21.3253  -27.2529  -42.4153 O.2       2 UNK        -0.4875 
     22 CA         21.7136  -26.8129  -44.7370 C.3       2 UNK         0.0481 
     23 CB         23.2265  -26.9577  -44.5171 C.3       2 UNK        -0.1831 
     24 N          21.1961  -28.0150  -45.3811 N.am      2 UNK        -0.4498 
     25 C          20.2427  -28.0161  -46.3178 C.2       1 UNK         0.5027 
     26 O          19.9053  -27.0027  -46.9332 O.2       1 UNK        -0.4969 
     27 C          19.1703  -25.5597  -41.1645 C.2       3 UNK         0.5005 
     28 O          19.4642  -24.3703  -41.0245 O.2       3 UNK        -0.5279 
     29 N          19.2794  -26.4854  -40.2001 N.am      4 UNK        -0.4463 
     30 CA         19.7734  -26.2986  -38.8308 C.3       4 UNK         0.0283 
     31 CB         18.8428  -25.3609  -38.0315 C.3       4 UNK        -0.1875 
     32 C          21.2615  -25.8942  -38.7323 C.2       4 UNK         0.4949 
     33 O          21.6495  -25.2734  -37.7406 O.2       4 UNK        -0.5039 
     34 N          22.0756  -26.2677  -39.7304 N.am      5 UNK        -0.4663 
     35 CA         23.5346  -26.1254  -39.7158 C.3       5 UNK         0.0242 
     36 CB         24.0107  -25.6678  -41.1069 C.3       5 UNK        -0.1982 
     37 C          24.1715  -27.4461  -39.2389 C.2       5 UNK         0.5017 
     38 O          23.7357  -27.9836  -38.2176 O.2       5 UNK        -0.5012 
     39 N          25.1731  -27.9601  -39.9666 N.am      6 UNK        -0.4439 
     40 CA         25.8518  -29.2245  -39.6726 C.3       6 UNK         0.0297 
     41 CB         26.9670  -28.9952  -38.6313 C.3       6 UNK        -0.2006 
     42 C          26.3538  -29.9028  -40.9603 C.2       6 UNK         0.4892 
     43 O          27.4943  -30.3681  -40.9990 O.2       6 UNK        -0.5089 
     44 N          25.5025  -29.9469  -41.9949 N.am      7 UNK        -0.4243 
     45 CA         25.7719  -30.6757  -43.2440 C.3       7 UNK         0.0196 
     46 CB         25.1373  -29.9396  -44.4344 C.3       7 UNK        -0.2007 
     47 C          25.2383  -32.1137  -43.1673 C.2       7 UNK         0.5020 
     48 O          25.9326  -33.0530  -43.5543 O.2       7 UNK        -0.5147 
     49 N          24.0161  -32.2444  -42.6475 N.am      8 UNK        -0.4734 
     50 CA         23.3059  -33.4862  -42.3451 C.3       8 UNK         0.0238 
     51 CB         22.7933  -34.1926  -43.6138 C.3       8 UNK        -0.1912 
     52 C          22.1662  -33.0933  -41.4063 C.2       8 UNK         0.5038 
     53 O          22.1063  -33.5816  -40.2779 O.2       8 UNK        -0.5046 
     54 N          21.3703  -32.1102  -41.8521 N.am      9 UNK        -0.4200 
     55 CA         20.7144  -31.1478  -40.9623 C.3       9 UNK         0.0839 
     56 C          21.7753  -30.1840  -40.3633 C.2       9 UNK         0.5513 
     57 N          21.5791  -29.7224  -39.1376 N.am      9 UNK        -0.7519 
     58 O          22.7708  -29.8603  -41.0129 O.2       9 UNK        -0.4960 
     59 C59        19.6100  -30.3743  -41.7178 C.3       10 UNK        -0.0876 
     60 S60        18.3556  -29.6707  -40.5913 S.3       10 UNK        -0.2414 
     61 C61        16.8191  -30.4150  -41.2233 C.3       10 UNK         0.0169 
     62 H62        22.4566  -31.9346  -47.5731 H         1 UNK         0.0903 
     63 H63        23.1266  -32.1321  -45.9560 H         1 UNK         0.0903 
     64 H64        21.7611  -33.1290  -46.4744 H         1 UNK         0.0903 
     65 H65        20.5787  -30.6643  -47.8567 H         1 UNK         0.3096 
     66 H66        19.0461  -29.5915  -45.6287 H         1 UNK         0.1121 
     67 H67        18.9073  -29.0863  -48.6511 H         1 UNK         0.0849 
     68 H68        17.8433  -28.3277  -47.5154 H         1 UNK         0.0849 
     69 H69        16.2672  -32.0991  -46.2317 H         1 UNK         0.0865 
     70 H70        17.9541  -31.8124  -45.9053 H         1 UNK         0.0865 
     71 H71        17.1691  -31.7946  -43.5436 H         1 UNK         0.1346 
     72 H72        15.8795  -27.9976  -42.0400 H         1 UNK         0.1412 
     73 H73        15.9664  -28.6977  -46.2614 H         1 UNK         0.1426 
     74 H74        14.8278  -26.3964  -43.6041 H         1 UNK         0.0716 
     75 H75        14.7931  -26.7352  -45.3140 H         1 UNK         0.0716 
     76 H76        16.5947  -25.4181  -42.3144 H         1 UNK         0.0695 
     77 H77        17.6302  -24.1992  -43.0018 H         1 UNK         0.0695 
     78 H78        18.3686  -27.1059  -42.4245 H         1 UNK         0.0983 
     79 H79        19.4865  -25.6678  -44.4305 H         1 UNK         0.3095 
     80 H80        21.5443  -25.9268  -45.3524 H         1 UNK         0.0454 
     81 H81        23.4596  -27.7335  -43.7890 H         1 UNK         0.0851 
     82 H82        23.6517  -26.0228  -44.1523 H         1 UNK         0.0851 
     83 H83        23.7403  -27.2028  -45.4466 H         1 UNK         0.0851 
     84 H84        21.3888  -28.8978  -44.9161 H         1 UNK         0.2976 
     85 H85        19.0512  -27.4439  -40.4363 H         1 UNK         0.3116 
     86 H86        19.7126  -27.2835  -38.3656 H         1 UNK         0.0646 
     87 H87        18.9015  -24.3321  -38.3877 H         1 UNK         0.0847 
     88 H88        19.1091  -25.3523  -36.9739 H         1 UNK         0.0847 
     89 H89        17.8032  -25.6813  -38.0976 H         1 UNK         0.0847 
     90 H90        21.6863  -26.7759  -40.5202 H         1 UNK         0.3040 
     91 H91        23.8274  -25.3567  -38.9975 H         1 UNK         0.1015 
     92 H92        23.4673  -24.7821  -41.4374 H         1 UNK         0.0786 
     93 H93        23.8583  -26.4456  -41.8519 H         1 UNK         0.0786 
     94 H94        25.0700  -25.4082  -41.1007 H         1 UNK         0.0786 
     95 H95        25.4677  -27.4788  -40.8051 H         1 UNK         0.3172 
     96 H96        25.1278  -29.9204  -39.2426 H         1 UNK         0.0595 
     97 H97        27.7306  -28.3126  -39.0058 H         1 UNK         0.0839 
     98 H98        27.4621  -29.9318  -38.3717 H         1 UNK         0.0839 
     99 H99        26.5689  -28.5781  -37.7063 H         1 UNK         0.0839 
    100 H100       24.5556  -29.6123  -41.8377 H         1 UNK         0.2998 
    101 H101       26.8489  -30.7246  -43.4200 H         1 UNK         0.0822 
    102 H102       25.5151  -28.9205  -44.5148 H         1 UNK         0.0787 
    103 H103       25.3730  -30.4449  -45.3720 H         1 UNK         0.0787 
    104 H104       24.0503  -29.8999  -44.3557 H         1 UNK         0.0787 
    105 H105       23.5623  -31.4051  -42.3031 H         1 UNK         0.3055 
    106 H106       23.9842  -34.1547  -41.8102 H         1 UNK         0.1106 
    107 H107       22.3333  -35.1484  -43.3607 H         1 UNK         0.0828 
    108 H108       22.0398  -33.6016  -44.1317 H         1 UNK         0.0828 
    109 H109       23.6013  -34.3996  -44.3154 H         1 UNK         0.0828 
    110 H110       21.4836  -31.7948  -42.8091 H         1 UNK         0.2931 
    111 H111       20.2524  -31.7128  -40.1497 H         1 UNK         0.0412 
    112 H112       20.7672  -29.9893  -38.6043 H         1 UNK         0.3472 
    113 H113       22.2800  -29.1100  -38.7323 H         1 UNK         0.3472 
    114 H114       20.0265  -29.5828  -42.3432 H         1 UNK         0.0970 
    115 H115       19.1184  -31.0562  -42.4091 H         1 UNK         0.0970 
    116 H116       15.9912  -30.1303  -40.5723 H         1 UNK         0.0612 
    117 H117       16.8938  -31.5024  -41.1722 H         1 UNK         0.0612 
@<TRIPOS>BOND
     1    1    2 1    
     2    1   62 1    
     3    1   63 1    
     4    1   64 1    
     5    2    3 2    
     6    2    4 am   BACKBONE|DICT|INTERRES
     7    4    5 1    
     8    4   65 1    
     9    5    6 1    
    10    5   25 1    
    11    5   66 1    
    12    6    7 1    
    13    6   67 1    
    14    6   68 1    
    15    7    8 1    
    16    8    9 1    
    17    8   69 1    
    18    8   70 1    
    19    9   10 ar   
    20    9   14 ar   
    21   10   11 ar   
    22   10   71 1    
    23   11   12 ar   
    24   11   61 1    
    25   12   13 ar   
    26   12   72 1    
    27   13   14 ar   
    28   13   15 1    
    29   14   73 1    
    30   15   16 1    
    31   15   74 1    
    32   15   75 1    
    33   16   17 1    
    34   17   18 1    
    35   17   76 1    
    36   17   77 1    
    37   18   19 1    
    38   18   27 1    
    39   18   78 1    
    40   19   20 am   BACKBONE|DICT|INTERRES
    41   19   79 1    
    42   20   21 2    
    43   20   22 1    
    44   22   23 1    
    45   22   24 1    
    46   22   80 1    
    47   23   81 1    
    48   23   82 1    
    49   23   83 1    
    50   24   25 am   BACKBONE|DICT|INTERRES
    51   24   84 1    
    52   25   26 2    
    53   27   28 2    
    54   27   29 am   BACKBONE|DICT|INTERRES
    55   29   30 1    
    56   29   85 1    
    57   30   31 1    
    58   30   32 1    
    59   30   86 1    
    60   31   87 1    
    61   31   88 1    
    62   31   89 1    
    63   32   33 2    
    64   32   34 am   BACKBONE|DICT|INTERRES
    65   34   35 1    
    66   34   90 1    
    67   35   36 1    
    68   35   37 1    
    69   35   91 1    
    70   36   92 1    
    71   36   93 1    
    72   36   94 1    
    73   37   38 2    
    74   37   39 am   BACKBONE|DICT|INTERRES
    75   39   40 1    
    76   39   95 1    
    77   40   41 1    
    78   40   42 1    
    79   40   96 1    
    80   41   97 1    
    81   41   98 1    
    82   41   99 1    
    83   42   43 2    
    84   42   44 am   BACKBONE|DICT|INTERRES
    85   44   45 1    
    86   44  100 1    
    87   45   46 1    
    88   45   47 1    
    89   45  101 1    
    90   46  102 1    
    91   46  103 1    
    92   46  104 1    
    93   47   48 2    
    94   47   49 am   BACKBONE|DICT|INTERRES
    95   49   50 1    
    96   49  105 1    
    97   50   51 1    
    98   50   52 1    
    99   50  106 1    
   100   51  107 1    
   101   51  108 1    
   102   51  109 1    
   103   52   53 2    
   104   52   54 am   BACKBONE|DICT|INTERRES
   105   54   55 1    
   106   54  110 1    
   107   55   56 1    
   108   55   59 1    
   109   55  111 1    
   110   56   57 am   BACKBONE|DICT|INTERRES
   111   56   58 2    
   112   57  112 1    
   113   57  113 1    
   114   59   60 1    
   115   59  114 1    
   116   59  115 1    
   117   60   61 1    
   118   61  116 1    
   119   61  117 1    
@<TRIPOS>SUBSTRUCTURE
     1 UNK         1 GROUP             0       ****    0 ROOT    
