@<TRIPOS>MOLECULE
3R8
117   119    1
SMALL
USER_CHARGES


@<TRIPOS>ATOM
      1 CA         21.3403  -31.5662  -48.7840 C.3       0 UNK        -0.2013 
      2 C          20.6331  -30.3104  -48.2967 C.2       0 UNK         0.4866 
      3 O          20.6252  -29.3017  -49.0031 O.2       0 UNK        -0.5176 
      4 N          20.0473  -30.3724  -47.0949 N.am      1 UNK        -0.4884 
      5 CA         19.3896  -29.2722  -46.3806 C.3       1 UNK         0.0853 
      6 C6         18.1267  -28.7018  -47.0892 C.3       10 UNK        -0.0849 
      7 S7         16.8054  -29.9541  -47.1869 S.3       10 UNK        -0.2776 
      8 C8         15.4693  -29.1741  -46.2165 C.3       10 UNK         0.0316 
      9 C9         15.8021  -28.9968  -44.7366 C.ar      10 UNK        -0.0863 
     10 C10        16.1550  -30.1000  -43.9508 C.ar      10 UNK        -0.1009 
     11 C11        16.3824  -29.9499  -42.5794 C.ar      10 UNK        -0.0712 
     12 C12        16.2301  -28.6936  -41.9889 C.ar      10 UNK        -0.0894 
     13 C13        15.9177  -27.5759  -42.7646 C.ar      10 UNK        -0.0745 
     14 C14        15.7005  -27.7341  -44.1382 C.ar      10 UNK        -0.0972 
     15 C15        15.7980  -26.2052  -42.1105 C.3       10 UNK         0.0209 
     16 S16        17.2757  -25.1753  -42.3899 S.3       10 UNK        -0.2568 
     17 C17        18.5182  -25.8794  -41.2405 C.3       10 UNK        -0.0983 
     18 CA         19.3361  -27.0589  -41.8438 C.3       3 UNK         0.0876 
     19 N          19.7744  -26.8214  -43.2164 N.am      3 UNK        -0.4424 
     20 C          20.6691  -25.9440  -43.6865 C.2       2 UNK         0.4918 
     21 O          21.3723  -25.2201  -42.9803 O.2       2 UNK        -0.4875 
     22 CA         20.7152  -25.8152  -45.2297 C.3       2 UNK         0.0481 
     23 CB         22.1237  -25.5349  -45.7931 C.3       2 UNK        -0.1831 
     24 N          20.0524  -26.9309  -45.9299 N.am      2 UNK        -0.4498 
     25 C          20.4256  -28.2220  -45.9228 C.2       1 UNK         0.5027 
     26 O          21.5034  -28.6130  -45.4744 O.2       1 UNK        -0.4969 
     27 C          20.4408  -27.6197  -40.9221 C.2       3 UNK         0.5005 
     28 O          21.4713  -28.0987  -41.4030 O.2       3 UNK        -0.5279 
     29 N          20.1776  -27.6264  -39.6061 N.am      4 UNK        -0.4463 
     30 CA         20.9797  -28.3067  -38.5817 C.3       4 UNK         0.0283 
     31 CB         20.3263  -28.1149  -37.2045 C.3       4 UNK        -0.1875 
     32 C          22.4581  -27.8867  -38.5376 C.2       4 UNK         0.4949 
     33 O          23.3214  -28.7327  -38.3000 O.2       4 UNK        -0.5039 
     34 N          22.7168  -26.6001  -38.8078 N.am      5 UNK        -0.4663 
     35 CA         24.0522  -26.0033  -38.8746 C.3       5 UNK         0.0242 
     36 CB         23.9146  -24.4787  -39.0129 C.3       5 UNK        -0.1982 
     37 C          24.9308  -26.5661  -40.0056 C.2       5 UNK         0.5017 
     38 O          26.1543  -26.5668  -39.8658 O.2       5 UNK        -0.5012 
     39 N          24.3125  -27.0634  -41.0858 N.am      6 UNK        -0.4439 
     40 CA         24.9898  -27.6830  -42.2247 C.3       6 UNK         0.0297 
     41 CB         24.1800  -27.4007  -43.4988 C.3       6 UNK        -0.2006 
     42 C          25.2086  -29.1857  -41.9800 C.2       6 UNK         0.4892 
     43 O          24.7751  -30.0111  -42.7848 O.2       6 UNK        -0.5089 
     44 N          25.8703  -29.5059  -40.8576 N.am      7 UNK        -0.4243 
     45 CA         26.2344  -30.8490  -40.3902 C.3       7 UNK         0.0196 
     46 CB         27.3894  -31.4111  -41.2463 C.3       7 UNK        -0.2007 
     47 C          25.0287  -31.8069  -40.3073 C.2       7 UNK         0.5020 
     48 O          25.1040  -32.9315  -40.8049 O.2       7 UNK        -0.5147 
     49 N          23.9395  -31.3291  -39.6861 N.am      8 UNK        -0.4734 
     50 CA         22.6465  -32.0053  -39.5372 C.3       8 UNK         0.0238 
     51 CB         22.7766  -33.2830  -38.6781 C.3       8 UNK        -0.1912 
     52 C          21.9487  -32.2484  -40.8902 C.2       8 UNK         0.5038 
     53 O          21.6734  -33.3981  -41.2407 O.2       8 UNK        -0.5046 
     54 N          21.6480  -31.1534  -41.6041 N.am      9 UNK        -0.4200 
     55 CA         20.8452  -31.1305  -42.8414 C.3       9 UNK         0.0839 
     56 C          21.5580  -31.7483  -44.0820 C.2       9 UNK         0.5513 
     57 N          22.8825  -31.7479  -44.1514 N.am      9 UNK        -0.7519 
     58 O          20.9027  -32.2193  -45.0103 O.2       9 UNK        -0.4960 
     59 C59        19.3989  -31.6855  -42.6497 C.3       10 UNK        -0.0876 
     60 S60        18.5262  -31.0069  -41.1950 S.3       10 UNK        -0.2414 
     61 C61        16.7876  -31.1353  -41.7190 C.3       10 UNK         0.0169 
     62 H62        22.3903  -31.3525  -48.9819 H         1 UNK         0.0903 
     63 H63        21.2915  -32.3708  -48.0500 H         1 UNK         0.0903 
     64 H64        20.8832  -31.9204  -49.7076 H         1 UNK         0.0903 
     65 H65        20.1823  -31.2094  -46.5338 H         1 UNK         0.3096 
     66 H66        19.0447  -29.7150  -45.4446 H         1 UNK         0.1121 
     67 H67        18.3590  -28.3513  -48.0957 H         1 UNK         0.0849 
     68 H68        17.7219  -27.8415  -46.5554 H         1 UNK         0.0849 
     69 H69        15.2121  -28.2183  -46.6761 H         1 UNK         0.0865 
     70 H70        14.5762  -29.7953  -46.2965 H         1 UNK         0.0865 
     71 H71        16.2426  -31.0763  -44.4081 H         1 UNK         0.1346 
     72 H72        16.3927  -28.5826  -40.9253 H         1 UNK         0.1412 
     73 H73        15.4339  -26.8721  -44.7350 H         1 UNK         0.1426 
     74 H74        14.9308  -25.6877  -42.5234 H         1 UNK         0.0716 
     75 H75        15.6118  -26.2970  -41.0393 H         1 UNK         0.0716 
     76 H76        18.0017  -26.1832  -40.3289 H         1 UNK         0.0695 
     77 H77        19.1922  -25.0693  -40.9560 H         1 UNK         0.0695 
     78 H78        18.6615  -27.9039  -41.9404 H         1 UNK         0.0983 
     79 H79        19.2633  -27.3457  -43.9070 H         1 UNK         0.3095 
     80 H80        20.1102  -24.9349  -45.4512 H         1 UNK         0.0454 
     81 H81        22.0770  -25.2845  -46.8526 H         1 UNK         0.0851 
     82 H82        22.7890  -26.3896  -45.6886 H         1 UNK         0.0851 
     83 H83        22.5927  -24.6919  -45.2846 H         1 UNK         0.0851 
     84 H84        19.1649  -26.6975  -46.3533 H         1 UNK         0.2976 
     85 H85        19.3105  -27.2177  -39.2892 H         1 UNK         0.3116 
     86 H86        20.9476  -29.3693  -38.8201 H         1 UNK         0.0646 
     87 H87        19.3137  -28.5181  -37.1838 H         1 UNK         0.0847 
     88 H88        20.8927  -28.6324  -36.4286 H         1 UNK         0.0847 
     89 H89        20.2763  -27.0623  -36.9226 H         1 UNK         0.0847 
     90 H90        21.9359  -25.9922  -39.0085 H         1 UNK         0.3040 
     91 H91        24.5609  -26.2204  -37.9326 H         1 UNK         0.1015 
     92 H92        23.3913  -24.2026  -39.9296 H         1 UNK         0.0786 
     93 H93        24.8943  -23.9991  -39.0399 H         1 UNK         0.0786 
     94 H94        23.3700  -24.0503  -38.1713 H         1 UNK         0.0786 
     95 H95        23.2982  -27.1138  -41.0933 H         1 UNK         0.3172 
     96 H96        25.9743  -27.2294  -42.3570 H         1 UNK         0.0595 
     97 H97        23.1871  -27.8498  -43.4533 H         1 UNK         0.0839 
     98 H98        24.6783  -27.8042  -44.3810 H         1 UNK         0.0839 
     99 H99        24.0578  -26.3290  -43.6527 H         1 UNK         0.0839 
    100 H100       26.1586  -28.7369  -40.2638 H         1 UNK         0.2998 
    101 H101       26.6037  -30.7341  -39.3699 H         1 UNK         0.0822 
    102 H102       27.7393  -32.3668  -40.8538 H         1 UNK         0.0787 
    103 H103       27.0817  -31.5759  -42.2797 H         1 UNK         0.0787 
    104 H104       28.2433  -30.7338  -41.2549 H         1 UNK         0.0787 
    105 H105       23.9763  -30.3852  -39.3106 H         1 UNK         0.3055 
    106 H106       22.0046  -31.3249  -38.9800 H         1 UNK         0.1106 
    107 H107       21.7956  -33.7158  -38.4785 H         1 UNK         0.0828 
    108 H108       23.3718  -34.0523  -39.1705 H         1 UNK         0.0828 
    109 H109       23.2372  -33.0678  -37.7141 H         1 UNK         0.0828 
    110 H110       21.9400  -30.2412  -41.2764 H         1 UNK         0.2931 
    111 H111       20.7402  -30.0742  -43.0893 H         1 UNK         0.0412 
    112 H112       23.3304  -32.1439  -44.9609 H         1 UNK         0.3472 
    113 H113       23.4439  -31.2675  -43.4541 H         1 UNK         0.3472 
    114 H114       19.4162  -32.7725  -42.5556 H         1 UNK         0.0970 
    115 H115       18.8041  -31.4738  -43.5395 H         1 UNK         0.0970 
    116 H116       16.1550  -31.1650  -40.8307 H         1 UNK         0.0612 
    117 H117       16.6267  -32.0793  -42.2422 H         1 UNK         0.0612 
@<TRIPOS>BOND
     1    1    2 1    
     2    1   62 1    
     3    1   63 1    
     4    1   64 1    
     5    2    3 2    
     6    2    4 am   BACKBONE|DICT|INTERRES
     7    4    5 1    
     8    4   65 1    
     9    5    6 1    
    10    5   25 1    
    11    5   66 1    
    12    6    7 1    
    13    6   67 1    
    14    6   68 1    
    15    7    8 1    
    16    8    9 1    
    17    8   69 1    
    18    8   70 1    
    19    9   10 ar   
    20    9   14 ar   
    21   10   11 ar   
    22   10   71 1    
    23   11   12 ar   
    24   11   61 1    
    25   12   13 ar   
    26   12   72 1    
    27   13   14 ar   
    28   13   15 1    
    29   14   73 1    
    30   15   16 1    
    31   15   74 1    
    32   15   75 1    
    33   16   17 1    
    34   17   18 1    
    35   17   76 1    
    36   17   77 1    
    37   18   19 1    
    38   18   27 1    
    39   18   78 1    
    40   19   20 am   BACKBONE|DICT|INTERRES
    41   19   79 1    
    42   20   21 2    
    43   20   22 1    
    44   22   23 1    
    45   22   24 1    
    46   22   80 1    
    47   23   81 1    
    48   23   82 1    
    49   23   83 1    
    50   24   25 am   BACKBONE|DICT|INTERRES
    51   24   84 1    
    52   25   26 2    
    53   27   28 2    
    54   27   29 am   BACKBONE|DICT|INTERRES
    55   29   30 1    
    56   29   85 1    
    57   30   31 1    
    58   30   32 1    
    59   30   86 1    
    60   31   87 1    
    61   31   88 1    
    62   31   89 1    
    63   32   33 2    
    64   32   34 am   BACKBONE|DICT|INTERRES
    65   34   35 1    
    66   34   90 1    
    67   35   36 1    
    68   35   37 1    
    69   35   91 1    
    70   36   92 1    
    71   36   93 1    
    72   36   94 1    
    73   37   38 2    
    74   37   39 am   BACKBONE|DICT|INTERRES
    75   39   40 1    
    76   39   95 1    
    77   40   41 1    
    78   40   42 1    
    79   40   96 1    
    80   41   97 1    
    81   41   98 1    
    82   41   99 1    
    83   42   43 2    
    84   42   44 am   BACKBONE|DICT|INTERRES
    85   44   45 1    
    86   44  100 1    
    87   45   46 1    
    88   45   47 1    
    89   45  101 1    
    90   46  102 1    
    91   46  103 1    
    92   46  104 1    
    93   47   48 2    
    94   47   49 am   BACKBONE|DICT|INTERRES
    95   49   50 1    
    96   49  105 1    
    97   50   51 1    
    98   50   52 1    
    99   50  106 1    
   100   51  107 1    
   101   51  108 1    
   102   51  109 1    
   103   52   53 2    
   104   52   54 am   BACKBONE|DICT|INTERRES
   105   54   55 1    
   106   54  110 1    
   107   55   56 1    
   108   55   59 1    
   109   55  111 1    
   110   56   57 am   BACKBONE|DICT|INTERRES
   111   56   58 2    
   112   57  112 1    
   113   57  113 1    
   114   59   60 1    
   115   59  114 1    
   116   59  115 1    
   117   60   61 1    
   118   61  116 1    
   119   61  117 1    
@<TRIPOS>SUBSTRUCTURE
     1 UNK         1 GROUP             0       ****    0 ROOT    
