@<TRIPOS>MOLECULE
3R8
117   119    1
SMALL
USER_CHARGES


@<TRIPOS>ATOM
      1 CA         20.5746  -27.0335  -49.6512 C.3       0 UNK        -0.2013 
      2 C          19.8660  -26.5005  -48.4148 C.2       0 UNK         0.4866 
      3 O          19.8501  -25.2886  -48.1974 O.2       0 UNK        -0.5176 
      4 N          19.2790  -27.3984  -47.6115 N.am      1 UNK        -0.4884 
      5 CA         18.5975  -27.1123  -46.3437 C.3       1 UNK         0.0853 
      6 C6         17.3079  -26.2595  -46.5313 C.3       10 UNK        -0.0849 
      7 S7         16.1518  -26.2682  -45.1128 S.3       10 UNK        -0.2776 
      8 C8         15.2114  -27.8102  -45.3496 C.3       10 UNK         0.0316 
      9 C9         15.8468  -28.9745  -44.6016 C.ar      10 UNK        -0.0863 
     10 C10        16.5597  -29.9588  -45.2909 C.ar      10 UNK        -0.1009 
     11 C11        17.1432  -31.0264  -44.6031 C.ar      10 UNK        -0.0712 
     12 C12        16.9778  -31.1270  -43.2178 C.ar      10 UNK        -0.0894 
     13 C13        16.2688  -30.1483  -42.5150 C.ar      10 UNK        -0.0745 
     14 C14        15.7065  -29.0746  -43.2137 C.ar      10 UNK        -0.0972 
     15 C15        16.0911  -30.2583  -41.0045 C.3       10 UNK         0.0209 
     16 S16        17.6601  -30.1057  -40.0846 S.3       10 UNK        -0.2568 
     17 C17        18.2431  -28.4491  -40.5775 C.3       10 UNK        -0.0983 
     18 CA         19.5835  -28.5367  -41.3609 C.3       3 UNK         0.0876 
     19 N          19.7389  -27.4355  -42.3089 N.am      3 UNK        -0.4424 
     20 C          19.9457  -26.1397  -42.0397 C.2       2 UNK         0.4918 
     21 O          20.1480  -25.7020  -40.9062 O.2       2 UNK        -0.4875 
     22 CA         19.8598  -25.1468  -43.2205 C.3       2 UNK         0.0481 
     23 CB         21.2356  -24.5485  -43.5687 C.3       2 UNK        -0.1831 
     24 N          19.1812  -25.6772  -44.4152 N.am      2 UNK        -0.4498 
     25 C          19.5975  -26.6214  -45.2713 C.2       1 UNK         0.5027 
     26 O          20.6958  -27.1721  -45.1862 O.2       1 UNK        -0.4969 
     27 C          20.8478  -28.7004  -40.4920 C.2       3 UNK         0.5005 
     28 O          21.9013  -29.0376  -41.0359 O.2       3 UNK        -0.5279 
     29 N          20.7480  -28.4459  -39.1788 N.am      4 UNK        -0.4463 
     30 CA         21.8383  -28.5094  -38.1984 C.3       4 UNK         0.0283 
     31 CB         21.3087  -28.0922  -36.8181 C.3       4 UNK        -0.1875 
     32 C          23.0723  -27.6702  -38.5740 C.2       4 UNK         0.4949 
     33 O          24.1951  -28.1172  -38.3419 O.2       4 UNK        -0.5039 
     34 N          22.8481  -26.5074  -39.2025 N.am      5 UNK        -0.4663 
     35 CA         23.9018  -25.6213  -39.7075 C.3       5 UNK         0.0242 
     36 CB         23.3052  -24.2313  -39.9753 C.3       5 UNK        -0.1982 
     37 C          24.6319  -26.1638  -40.9528 C.2       5 UNK         0.5017 
     38 O          25.7136  -25.6679  -41.2677 O.2       5 UNK        -0.5012 
     39 N          24.0604  -27.1795  -41.6151 N.am      6 UNK        -0.4439 
     40 CA         24.6660  -27.9303  -42.7168 C.3       6 UNK         0.0297 
     41 CB         23.6606  -28.0187  -43.8800 C.3       6 UNK        -0.2006 
     42 C          25.1274  -29.3236  -42.2460 C.2       6 UNK         0.4892 
     43 O          25.1503  -30.2542  -43.0516 O.2       6 UNK        -0.5089 
     44 N          25.4752  -29.4470  -40.9536 N.am      7 UNK        -0.4243 
     45 CA         25.9037  -30.6674  -40.2584 C.3       7 UNK         0.0196 
     46 CB         27.2638  -31.1630  -40.7953 C.3       7 UNK        -0.2007 
     47 C          24.8109  -31.7512  -40.2798 C.2       7 UNK         0.5020 
     48 O          25.0519  -32.8722  -40.7308 O.2       7 UNK        -0.5147 
     49 N          23.6111  -31.3662  -39.8205 N.am      8 UNK        -0.4734 
     50 CA         22.3752  -32.1633  -39.7850 C.3       8 UNK         0.0238 
     51 CB         22.5022  -33.3285  -38.7808 C.3       8 UNK        -0.1912 
     52 C          21.9239  -32.6186  -41.1866 C.2       8 UNK         0.5038 
     53 O          21.4535  -33.7460  -41.3486 O.2       8 UNK        -0.5046 
     54 N          22.0879  -31.7246  -42.1713 N.am      9 UNK        -0.4200 
     55 CA         21.8207  -31.9457  -43.6002 C.3       9 UNK         0.0839 
     56 C          22.7812  -32.9694  -44.2868 C.2       9 UNK         0.5513 
     57 N          23.9038  -33.3404  -43.6814 N.am      9 UNK        -0.7519 
     58 O          22.5224  -33.4255  -45.3973 O.2       9 UNK        -0.4960 
     59 C59        20.3123  -32.2294  -43.8603 C.3       10 UNK        -0.0876 
     60 S60        19.7093  -31.5961  -45.4604 S.3       10 UNK        -0.2414 
     61 C61        17.9523  -32.0647  -45.3651 C.3       10 UNK         0.0169 
     62 H62        21.6304  -26.7655  -49.6224 H         1 UNK         0.0903 
     63 H63        20.5025  -28.1183  -49.7285 H         1 UNK         0.0903 
     64 H64        20.1374  -26.6002  -50.5504 H         1 UNK         0.0903 
     65 H65        19.3690  -28.3804  -47.8338 H         1 UNK         0.3096 
     66 H66        18.2881  -28.0889  -45.9791 H         1 UNK         0.1121 
     67 H67        16.7614  -26.6109  -47.4079 H         1 UNK         0.0849 
     68 H68        17.5671  -25.2230  -46.7545 H         1 UNK         0.0849 
     69 H69        14.1973  -27.6603  -44.9760 H         1 UNK         0.0865 
     70 H70        15.1078  -28.0336  -46.4125 H         1 UNK         0.0865 
     71 H71        16.6728  -29.8893  -46.3644 H         1 UNK         0.1346 
     72 H72        17.4093  -31.9602  -42.6806 H         1 UNK         0.1412 
     73 H73        15.1545  -28.3133  -42.6790 H         1 UNK         0.1426 
     74 H74        15.3950  -29.5014  -40.6395 H         1 UNK         0.0716 
     75 H75        15.6402  -31.2235  -40.7702 H         1 UNK         0.0716 
     76 H76        18.2987  -27.7945  -39.7070 H         1 UNK         0.0695 
     77 H77        17.4795  -27.9943  -41.2096 H         1 UNK         0.0695 
     78 H78        19.5451  -29.4282  -41.9896 H         1 UNK         0.0983 
     79 H79        19.6926  -27.6930  -43.2846 H         1 UNK         0.3095 
     80 H80        19.2278  -24.3259  -42.8789 H         1 UNK         0.0454 
     81 H81        21.9818  -25.3203  -43.7499 H         1 UNK         0.0851 
     82 H82        21.6039  -23.9251  -42.7554 H         1 UNK         0.0851 
     83 H83        21.1833  -23.9170  -44.4554 H         1 UNK         0.0851 
     84 H84        18.2301  -25.3514  -44.5421 H         1 UNK         0.2976 
     85 H85        19.8432  -28.1716  -38.8237 H         1 UNK         0.3116 
     86 H86        22.1578  -29.5495  -38.1298 H         1 UNK         0.0646 
     87 H87        20.5008  -28.7451  -36.4874 H         1 UNK         0.0847 
     88 H88        22.0957  -28.1489  -36.0645 H         1 UNK         0.0847 
     89 H89        20.9342  -27.0677  -36.8205 H         1 UNK         0.0847 
     90 H90        21.8916  -26.2365  -39.3980 H         1 UNK         0.3040 
     91 H91        24.6574  -25.5159  -38.9254 H         1 UNK         0.1015 
     92 H92        22.4892  -24.2774  -40.6940 H         1 UNK         0.0786 
     93 H93        24.0568  -23.5481  -40.3734 H         1 UNK         0.0786 
     94 H94        22.9168  -23.7856  -39.0595 H         1 UNK         0.0786 
     95 H95        23.1913  -27.5688  -41.2600 H         1 UNK         0.3172 
     96 H96        25.5560  -27.4164  -43.0847 H         1 UNK         0.0595 
     97 H97        22.7314  -28.5038  -43.5794 H         1 UNK         0.0839 
     98 H98        24.0678  -28.5849  -44.7184 H         1 UNK         0.0839 
     99 H99        23.4134  -27.0302  -44.2629 H         1 UNK         0.0839 
    100 H100       25.3830  -28.6282  -40.3665 H         1 UNK         0.2998 
    101 H101       26.0447  -30.3935  -39.2114 H         1 UNK         0.0822 
    102 H102       27.6262  -32.0102  -40.2119 H         1 UNK         0.0787 
    103 H103       27.1984  -31.4902  -41.8335 H         1 UNK         0.0787 
    104 H104       28.0214  -30.3816  -40.7372 H         1 UNK         0.0787 
    105 H105       23.5159  -30.3995  -39.5404 H         1 UNK         0.3055 
    106 H106       21.5843  -31.5065  -39.4212 H         1 UNK         0.1106 
    107 H107       21.5494  -33.8452  -38.6592 H         1 UNK         0.0828 
    108 H108       23.2323  -34.0692  -39.1088 H         1 UNK         0.0828 
    109 H109       22.8038  -32.9727  -37.7958 H         1 UNK         0.0828 
    110 H110       22.4543  -30.8114  -41.9266 H         1 UNK         0.2931 
    111 H111       22.0614  -30.9862  -44.0596 H         1 UNK         0.0412 
    112 H112       24.5185  -33.9929  -44.1407 H         1 UNK         0.3472 
    113 H113       24.1522  -32.9676  -42.7739 H         1 UNK         0.3472 
    114 H114       19.7142  -31.7481  -43.0871 H         1 UNK         0.0970 
    115 H115       20.0972  -33.2968  -43.7824 H         1 UNK         0.0970 
    116 H116       17.5629  -32.1653  -46.3793 H         1 UNK         0.0612 
    117 H117       17.8502  -33.0476  -44.9026 H         1 UNK         0.0612 
@<TRIPOS>BOND
     1    1    2 1    
     2    1   62 1    
     3    1   63 1    
     4    1   64 1    
     5    2    3 2    
     6    2    4 am   BACKBONE|DICT|INTERRES
     7    4    5 1    
     8    4   65 1    
     9    5    6 1    
    10    5   25 1    
    11    5   66 1    
    12    6    7 1    
    13    6   67 1    
    14    6   68 1    
    15    7    8 1    
    16    8    9 1    
    17    8   69 1    
    18    8   70 1    
    19    9   10 ar   
    20    9   14 ar   
    21   10   11 ar   
    22   10   71 1    
    23   11   12 ar   
    24   11   61 1    
    25   12   13 ar   
    26   12   72 1    
    27   13   14 ar   
    28   13   15 1    
    29   14   73 1    
    30   15   16 1    
    31   15   74 1    
    32   15   75 1    
    33   16   17 1    
    34   17   18 1    
    35   17   76 1    
    36   17   77 1    
    37   18   19 1    
    38   18   27 1    
    39   18   78 1    
    40   19   20 am   BACKBONE|DICT|INTERRES
    41   19   79 1    
    42   20   21 2    
    43   20   22 1    
    44   22   23 1    
    45   22   24 1    
    46   22   80 1    
    47   23   81 1    
    48   23   82 1    
    49   23   83 1    
    50   24   25 am   BACKBONE|DICT|INTERRES
    51   24   84 1    
    52   25   26 2    
    53   27   28 2    
    54   27   29 am   BACKBONE|DICT|INTERRES
    55   29   30 1    
    56   29   85 1    
    57   30   31 1    
    58   30   32 1    
    59   30   86 1    
    60   31   87 1    
    61   31   88 1    
    62   31   89 1    
    63   32   33 2    
    64   32   34 am   BACKBONE|DICT|INTERRES
    65   34   35 1    
    66   34   90 1    
    67   35   36 1    
    68   35   37 1    
    69   35   91 1    
    70   36   92 1    
    71   36   93 1    
    72   36   94 1    
    73   37   38 2    
    74   37   39 am   BACKBONE|DICT|INTERRES
    75   39   40 1    
    76   39   95 1    
    77   40   41 1    
    78   40   42 1    
    79   40   96 1    
    80   41   97 1    
    81   41   98 1    
    82   41   99 1    
    83   42   43 2    
    84   42   44 am   BACKBONE|DICT|INTERRES
    85   44   45 1    
    86   44  100 1    
    87   45   46 1    
    88   45   47 1    
    89   45  101 1    
    90   46  102 1    
    91   46  103 1    
    92   46  104 1    
    93   47   48 2    
    94   47   49 am   BACKBONE|DICT|INTERRES
    95   49   50 1    
    96   49  105 1    
    97   50   51 1    
    98   50   52 1    
    99   50  106 1    
   100   51  107 1    
   101   51  108 1    
   102   51  109 1    
   103   52   53 2    
   104   52   54 am   BACKBONE|DICT|INTERRES
   105   54   55 1    
   106   54  110 1    
   107   55   56 1    
   108   55   59 1    
   109   55  111 1    
   110   56   57 am   BACKBONE|DICT|INTERRES
   111   56   58 2    
   112   57  112 1    
   113   57  113 1    
   114   59   60 1    
   115   59  114 1    
   116   59  115 1    
   117   60   61 1    
   118   61  116 1    
   119   61  117 1    
@<TRIPOS>SUBSTRUCTURE
     1 UNK         1 GROUP             0       ****    0 ROOT    
