@<TRIPOS>MOLECULE
3R8
117   119    1
SMALL
USER_CHARGES


@<TRIPOS>ATOM
      1 CA         14.5551  -22.6790  -41.8504 C.3       0 UNK        -0.2013 
      2 C          15.2877  -22.8641  -43.1706 C.2       0 UNK         0.4866 
      3 O          15.5019  -21.8917  -43.8946 O.2       0 UNK        -0.5176 
      4 N          15.6760  -24.1055  -43.4901 N.am      1 UNK        -0.4884 
      5 CA         16.4028  -24.4707  -44.7140 C.3       1 UNK         0.0853 
      6 C6         16.2346  -25.9726  -45.0562 C.3       10 UNK        -0.0849 
      7 S7         16.7131  -27.1088  -43.7060 S.3       10 UNK        -0.2776 
      8 C8         16.2305  -28.7095  -44.4304 C.3       10 UNK         0.0316 
      9 C9         17.4468  -29.5554  -44.7754 C.ar      10 UNK        -0.0863 
     10 C10        17.7035  -30.7333  -44.0687 C.ar      10 UNK        -0.1009 
     11 C11        18.8199  -31.5177  -44.3723 C.ar      10 UNK        -0.0712 
     12 C12        19.6818  -31.1144  -45.3983 C.ar      10 UNK        -0.0894 
     13 C13        19.4398  -29.9351  -46.1109 C.ar      10 UNK        -0.0745 
     14 C14        18.3101  -29.1699  -45.8050 C.ar      10 UNK        -0.0972 
     15 C15        20.3817  -29.5054  -47.2296 C.3       10 UNK         0.0209 
     16 S16        21.8426  -28.6013  -46.6136 S.3       10 UNK        -0.2568 
     17 C17        21.1374  -26.9670  -46.1768 C.3       10 UNK        -0.0983 
     18 CA         21.6369  -26.3106  -44.8548 C.3       3 UNK         0.0876 
     19 N          20.7407  -25.2263  -44.4503 N.am      3 UNK        -0.4424 
     20 C          20.9324  -24.3427  -43.4635 C.2       2 UNK         0.4918 
     21 O          21.9496  -24.2979  -42.7720 O.2       2 UNK        -0.4875 
     22 CA         19.8056  -23.3258  -43.1850 C.3       2 UNK         0.0481 
     23 CB         20.1126  -21.9744  -43.8588 C.3       2 UNK        -0.1831 
     24 N          18.4392  -23.7765  -43.5006 N.am      2 UNK        -0.4498 
     25 C          17.8906  -24.0593  -44.6933 C.2       1 UNK         0.5027 
     26 O          18.5169  -24.0353  -45.7535 O.2       1 UNK        -0.4969 
     27 C          21.8621  -27.3001  -43.6938 C.2       3 UNK         0.5005 
     28 O          22.9758  -27.3840  -43.1710 O.2       3 UNK        -0.5279 
     29 N          20.8092  -28.0538  -43.3390 N.am      4 UNK        -0.4463 
     30 CA         20.7823  -29.0971  -42.3034 C.3       4 UNK         0.0283 
     31 CB         20.7875  -28.4518  -40.9033 C.3       4 UNK        -0.1875 
     32 C          21.8756  -30.1806  -42.4600 C.2       4 UNK         0.4949 
     33 O          22.3048  -30.7656  -41.4637 O.2       4 UNK        -0.5039 
     34 N          22.3338  -30.4037  -43.7018 N.am      5 UNK        -0.4663 
     35 CA         23.4695  -31.2483  -44.0933 C.3       5 UNK         0.0242 
     36 CB         23.1430  -32.7412  -43.8713 C.3       5 UNK        -0.1982 
     37 C          24.7959  -30.8050  -43.4382 C.2       5 UNK         0.5017 
     38 O          25.6134  -31.6521  -43.0793 O.2       5 UNK        -0.5012 
     39 N          24.9679  -29.4816  -43.2844 N.am      6 UNK        -0.4439 
     40 CA         26.0301  -28.7980  -42.5368 C.3       6 UNK         0.0297 
     41 CB         27.4323  -29.1069  -43.1056 C.3       6 UNK        -0.2006 
     42 C          25.9046  -29.0522  -41.0222 C.2       6 UNK         0.4892 
     43 O          26.9007  -29.3462  -40.3591 O.2       6 UNK        -0.5089 
     44 N          24.6655  -28.9278  -40.5197 N.am      7 UNK        -0.4243 
     45 CA         24.2267  -29.1610  -39.1373 C.3       7 UNK         0.0196 
     46 CB         24.8114  -28.0911  -38.1906 C.3       7 UNK        -0.2007 
     47 C          24.4932  -30.6039  -38.6648 C.2       7 UNK         0.5020 
     48 O          25.0275  -30.8076  -37.5728 O.2       7 UNK        -0.5147 
     49 N          24.1211  -31.5769  -39.5054 N.am      8 UNK        -0.4734 
     50 CA         24.3315  -33.0067  -39.2735 C.3       8 UNK         0.0238 
     51 CB         25.2053  -33.5860  -40.3967 C.3       8 UNK        -0.1912 
     52 C          23.0164  -33.7902  -39.1638 C.2       8 UNK         0.5038 
     53 O          22.9814  -34.7542  -38.3972 O.2       8 UNK        -0.5046 
     54 N          21.9684  -33.3956  -39.9062 N.am      9 UNK        -0.4200 
     55 CA         20.6559  -34.0720  -39.8655 C.3       9 UNK         0.0839 
     56 C          19.7236  -33.6105  -38.7064 C.2       9 UNK         0.5513 
     57 N          20.0837  -32.5981  -37.9260 N.am      9 UNK        -0.7519 
     58 O          18.6642  -34.1970  -38.4988 O.2       9 UNK        -0.4960 
     59 C59        19.9484  -34.0965  -41.2478 C.3       10 UNK        -0.0876 
     60 S60        19.3711  -32.4697  -41.8273 S.3       10 UNK        -0.2414 
     61 C61        19.0858  -32.8006  -43.5946 C.3       10 UNK         0.0169 
     62 H62        13.5640  -22.2621  -42.0271 H         1 UNK         0.0903 
     63 H63        14.4360  -23.6203  -41.3141 H         1 UNK         0.0903 
     64 H64        15.1049  -21.9905  -41.2093 H         1 UNK         0.0903 
     65 H65        15.4749  -24.8747  -42.8648 H         1 UNK         0.3096 
     66 H66        15.9586  -23.9056  -45.5371 H         1 UNK         0.1121 
     67 H67        15.1874  -26.1611  -45.2988 H         1 UNK         0.0849 
     68 H68        16.7937  -26.2300  -45.9580 H         1 UNK         0.0849 
     69 H69        15.5901  -29.2307  -43.7170 H         1 UNK         0.0865 
     70 H70        15.6245  -28.5653  -45.3260 H         1 UNK         0.0865 
     71 H71        17.0390  -31.0422  -43.2730 H         1 UNK         0.1346 
     72 H72        20.5462  -31.7164  -45.6425 H         1 UNK         0.1412 
     73 H73        18.1008  -28.2691  -46.3645 H         1 UNK         0.1426 
     74 H74        19.8556  -28.8895  -47.9607 H         1 UNK         0.0716 
     75 H75        20.7234  -30.3882  -47.7722 H         1 UNK         0.0716 
     76 H76        20.0530  -27.0610  -46.1440 H         1 UNK         0.0695 
     77 H77        21.3353  -26.2898  -47.0090 H         1 UNK         0.0695 
     78 H78        22.6099  -25.8604  -45.0633 H         1 UNK         0.0983 
     79 H79        19.8992  -25.1020  -45.0037 H         1 UNK         0.3095 
     80 H80        19.8088  -23.1582  -42.1069 H         1 UNK         0.0454 
     81 H81        21.0782  -21.5870  -43.5314 H         1 UNK         0.0851 
     82 H82        19.3617  -21.2257  -43.6064 H         1 UNK         0.0851 
     83 H83        20.1509  -22.0582  -44.9452 H         1 UNK         0.0851 
     84 H84        17.8303  -23.8783  -42.7005 H         1 UNK         0.2976 
     85 H85        19.9450  -27.9313  -43.8495 H         1 UNK         0.3116 
     86 H86        19.8289  -29.6107  -42.4202 H         1 UNK         0.0646 
     87 H87        20.6906  -29.2047  -40.1200 H         1 UNK         0.0847 
     88 H88        21.7057  -27.8950  -40.7179 H         1 UNK         0.0847 
     89 H89        19.9522  -27.7614  -40.7871 H         1 UNK         0.0847 
     90 H90        21.9117  -29.8675  -44.4494 H         1 UNK         0.3040 
     91 H91        23.6097  -31.1009  -45.1654 H         1 UNK         0.1015 
     92 H92        23.9715  -33.3786  -44.1821 H         1 UNK         0.0786 
     93 H93        22.2752  -33.0438  -44.4549 H         1 UNK         0.0786 
     94 H94        22.9334  -32.9638  -42.8258 H         1 UNK         0.0786 
     95 H95        24.2022  -28.8733  -43.5631 H         1 UNK         0.3172 
     96 H96        25.8535  -27.7306  -42.6783 H         1 UNK         0.0595 
     97 H97        27.7292  -30.1406  -42.9271 H         1 UNK         0.0839 
     98 H98        28.1866  -28.4725  -42.6387 H         1 UNK         0.0839 
     99 H99        27.4750  -28.9246  -44.1792 H         1 UNK         0.0839 
    100 H100       23.9288  -28.7017  -41.1747 H         1 UNK         0.2998 
    101 H101       23.1429  -29.0432  -39.1320 H         1 UNK         0.0822 
    102 H102       24.4019  -28.1938  -37.1850 H         1 UNK         0.0787 
    103 H103       24.5736  -27.0847  -38.5351 H         1 UNK         0.0787 
    104 H104       25.8960  -28.1705  -38.1091 H         1 UNK         0.0787 
    105 H105       23.6305  -31.3093  -40.3576 H         1 UNK         0.3055 
    106 H106       24.8651  -33.1587  -38.3325 H         1 UNK         0.1106 
    107 H107       26.1524  -33.0519  -40.4773 H         1 UNK         0.0828 
    108 H108       25.4376  -34.6351  -40.2096 H         1 UNK         0.0828 
    109 H109       24.7098  -33.5307  -41.3651 H         1 UNK         0.0828 
    110 H110       22.0342  -32.5702  -40.4917 H         1 UNK         0.2931 
    111 H111       20.8479  -35.1237  -39.6440 H         1 UNK         0.0412 
    112 H112       19.4767  -32.3125  -37.1737 H         1 UNK         0.3472 
    113 H113       20.9521  -32.1150  -38.0885 H         1 UNK         0.3472 
    114 H114       20.6276  -34.5160  -41.9914 H         1 UNK         0.0970 
    115 H115       19.0903  -34.7706  -41.2187 H         1 UNK         0.0970 
    116 H116       19.9483  -33.3250  -44.0065 H         1 UNK         0.0612 
    117 H117       18.2326  -33.4718  -43.7008 H         1 UNK         0.0612 
@<TRIPOS>BOND
     1    1    2 1    
     2    1   62 1    
     3    1   63 1    
     4    1   64 1    
     5    2    3 2    
     6    2    4 am   BACKBONE|DICT|INTERRES
     7    4    5 1    
     8    4   65 1    
     9    5    6 1    
    10    5   25 1    
    11    5   66 1    
    12    6    7 1    
    13    6   67 1    
    14    6   68 1    
    15    7    8 1    
    16    8    9 1    
    17    8   69 1    
    18    8   70 1    
    19    9   10 ar   
    20    9   14 ar   
    21   10   11 ar   
    22   10   71 1    
    23   11   12 ar   
    24   11   61 1    
    25   12   13 ar   
    26   12   72 1    
    27   13   14 ar   
    28   13   15 1    
    29   14   73 1    
    30   15   16 1    
    31   15   74 1    
    32   15   75 1    
    33   16   17 1    
    34   17   18 1    
    35   17   76 1    
    36   17   77 1    
    37   18   19 1    
    38   18   27 1    
    39   18   78 1    
    40   19   20 am   BACKBONE|DICT|INTERRES
    41   19   79 1    
    42   20   21 2    
    43   20   22 1    
    44   22   23 1    
    45   22   24 1    
    46   22   80 1    
    47   23   81 1    
    48   23   82 1    
    49   23   83 1    
    50   24   25 am   BACKBONE|DICT|INTERRES
    51   24   84 1    
    52   25   26 2    
    53   27   28 2    
    54   27   29 am   BACKBONE|DICT|INTERRES
    55   29   30 1    
    56   29   85 1    
    57   30   31 1    
    58   30   32 1    
    59   30   86 1    
    60   31   87 1    
    61   31   88 1    
    62   31   89 1    
    63   32   33 2    
    64   32   34 am   BACKBONE|DICT|INTERRES
    65   34   35 1    
    66   34   90 1    
    67   35   36 1    
    68   35   37 1    
    69   35   91 1    
    70   36   92 1    
    71   36   93 1    
    72   36   94 1    
    73   37   38 2    
    74   37   39 am   BACKBONE|DICT|INTERRES
    75   39   40 1    
    76   39   95 1    
    77   40   41 1    
    78   40   42 1    
    79   40   96 1    
    80   41   97 1    
    81   41   98 1    
    82   41   99 1    
    83   42   43 2    
    84   42   44 am   BACKBONE|DICT|INTERRES
    85   44   45 1    
    86   44  100 1    
    87   45   46 1    
    88   45   47 1    
    89   45  101 1    
    90   46  102 1    
    91   46  103 1    
    92   46  104 1    
    93   47   48 2    
    94   47   49 am   BACKBONE|DICT|INTERRES
    95   49   50 1    
    96   49  105 1    
    97   50   51 1    
    98   50   52 1    
    99   50  106 1    
   100   51  107 1    
   101   51  108 1    
   102   51  109 1    
   103   52   53 2    
   104   52   54 am   BACKBONE|DICT|INTERRES
   105   54   55 1    
   106   54  110 1    
   107   55   56 1    
   108   55   59 1    
   109   55  111 1    
   110   56   57 am   BACKBONE|DICT|INTERRES
   111   56   58 2    
   112   57  112 1    
   113   57  113 1    
   114   59   60 1    
   115   59  114 1    
   116   59  115 1    
   117   60   61 1    
   118   61  116 1    
   119   61  117 1    
@<TRIPOS>SUBSTRUCTURE
     1 UNK         1 GROUP             0       ****    0 ROOT    
