@<TRIPOS>MOLECULE
3R8
117   119    1
SMALL
USER_CHARGES


@<TRIPOS>ATOM
      1 CA         19.8959  -23.8579  -39.7443 C.3       0 UNK        -0.2013 
      2 C          19.1325  -24.0915  -41.0397 C.2       0 UNK         0.4866 
      3 O          18.2437  -23.3019  -41.3620 O.2       0 UNK        -0.5176 
      4 N          19.4692  -25.1529  -41.7827 N.am      1 UNK        -0.4884 
      5 CA         18.8800  -25.4720  -43.0882 C.3       1 UNK         0.0853 
      6 C6         18.3163  -26.9153  -43.1803 C.3       10 UNK        -0.0849 
      7 S7         17.3006  -27.4518  -41.7597 S.3       10 UNK        -0.2776 
      8 C8         16.3573  -28.8658  -42.4303 C.3       10 UNK         0.0316 
      9 C9         17.2139  -29.8341  -43.2391 C.ar      10 UNK        -0.0863 
     10 C10        17.9896  -30.8146  -42.6098 C.ar      10 UNK        -0.1009 
     11 C11        18.7798  -31.6892  -43.3676 C.ar      10 UNK        -0.0712 
     12 C12        18.7841  -31.5710  -44.7643 C.ar      10 UNK        -0.0894 
     13 C13        18.0277  -30.5853  -45.4043 C.ar      10 UNK        -0.0745 
     14 C14        17.2244  -29.7408  -44.6330 C.ar      10 UNK        -0.0972 
     15 C15        18.0658  -30.4536  -46.9249 C.3       10 UNK         0.0209 
     16 S16        18.1976  -28.7174  -47.4833 S.3       10 UNK        -0.2568 
     17 C17        19.7906  -28.6692  -48.3832 C.3       10 UNK        -0.0983 
     18 CA         20.9581  -27.9959  -47.6073 C.3       3 UNK         0.0876 
     19 N          20.5382  -26.7198  -47.0224 N.am      3 UNK        -0.4424 
     20 C          21.2324  -25.5777  -47.0434 C.2       2 UNK         0.4918 
     21 O          22.3468  -25.4594  -47.5529 O.2       2 UNK        -0.4875 
     22 CA         20.5675  -24.3529  -46.3832 C.3       2 UNK         0.0481 
     23 CB         19.8444  -23.5069  -47.4433 C.3       2 UNK        -0.1831 
     24 N          19.6290  -24.6738  -45.2970 N.am      2 UNK        -0.4498 
     25 C          19.9777  -25.2721  -44.1489 C.2       1 UNK         0.5027 
     26 O          21.1155  -25.6919  -43.9273 O.2       1 UNK        -0.4969 
     27 C          21.6066  -28.9489  -46.5774 C.2       3 UNK         0.5005 
     28 O          21.8852  -30.0961  -46.9332 O.2       3 UNK        -0.5279 
     29 N          21.8385  -28.4911  -45.3383 N.am      4 UNK        -0.4463 
     30 CA         22.3314  -29.3148  -44.2341 C.3       4 UNK         0.0283 
     31 CB         21.3205  -29.2264  -43.0827 C.3       4 UNK        -0.1875 
     32 C          23.6915  -28.8452  -43.7166 C.2       4 UNK         0.4949 
     33 O          24.0945  -27.7031  -43.9454 O.2       4 UNK        -0.5039 
     34 N          24.3255  -29.7286  -42.9354 N.am      5 UNK        -0.4663 
     35 CA         25.3088  -29.3558  -41.9223 C.3       5 UNK         0.0242 
     36 CB         26.2306  -30.5504  -41.6234 C.3       5 UNK        -0.1982 
     37 C          24.5134  -28.9329  -40.6785 C.2       5 UNK         0.5017 
     38 O          23.8205  -29.7766  -40.0961 O.2       5 UNK        -0.5012 
     39 N          24.5633  -27.6322  -40.3538 N.am      6 UNK        -0.4439 
     40 CA         23.7137  -26.9421  -39.3756 C.3       6 UNK         0.0297 
     41 CB         24.0564  -27.3869  -37.9340 C.3       6 UNK        -0.2006 
     42 C          22.2307  -27.1046  -39.7627 C.2       6 UNK         0.4892 
     43 O          21.8232  -26.5841  -40.8000 O.2       6 UNK        -0.5089 
     44 N          21.4711  -27.8512  -38.9586 N.am      7 UNK        -0.4243 
     45 CA         20.1501  -28.3820  -39.2985 C.3       7 UNK         0.0196 
     46 CB         19.0744  -27.5797  -38.5429 C.3       7 UNK        -0.2007 
     47 C          20.0818  -29.8861  -38.9715 C.2       7 UNK         0.5020 
     48 O          18.9836  -30.4305  -38.8546 O.2       7 UNK        -0.5147 
     49 N          21.2457  -30.5245  -38.7772 N.am      8 UNK        -0.4734 
     50 CA         21.3669  -31.8797  -38.2384 C.3       8 UNK         0.0238 
     51 CB         22.3896  -31.8650  -37.0894 C.3       8 UNK        -0.1912 
     52 C          21.7851  -32.9047  -39.2977 C.2       8 UNK         0.5038 
     53 O          21.3655  -34.0580  -39.1963 O.2       8 UNK        -0.5046 
     54 N          22.6113  -32.4862  -40.2685 N.am      9 UNK        -0.4200 
     55 CA         23.2202  -33.3542  -41.2955 C.3       9 UNK         0.0839 
     56 C          24.2399  -34.3931  -40.7320 C.2       9 UNK         0.5513 
     57 N          24.8064  -34.1824  -39.5495 N.am      9 UNK        -0.7519 
     58 O          24.5521  -35.3865  -41.3836 O.2       9 UNK        -0.4960 
     59 C59        22.1776  -33.9845  -42.2663 C.3       10 UNK        -0.0876 
     60 S60        21.3622  -32.7170  -43.2846 S.3       10 UNK        -0.2414 
     61 C61        19.6430  -32.7442  -42.6785 C.3       10 UNK         0.0169 
     62 H62        20.6437  -24.6257  -39.5610 H         1 UNK         0.0903 
     63 H63        20.4038  -22.8946  -39.7776 H         1 UNK         0.0903 
     64 H64        19.2071  -23.8506  -38.9002 H         1 UNK         0.0903 
     65 H65        20.2674  -25.7277  -41.5151 H         1 UNK         0.3096 
     66 H66        18.0608  -24.7841  -43.3078 H         1 UNK         0.1121 
     67 H67        19.1202  -27.6395  -43.2808 H         1 UNK         0.0849 
     68 H68        17.7176  -27.0061  -44.0878 H         1 UNK         0.0849 
     69 H69        15.5395  -28.4828  -43.0428 H         1 UNK         0.0865 
     70 H70        15.8868  -29.3984  -41.6026 H         1 UNK         0.0865 
     71 H71        17.9870  -30.8852  -41.5301 H         1 UNK         0.1346 
     72 H72        19.3990  -32.2375  -45.3534 H         1 UNK         0.1412 
     73 H73        16.6188  -28.9896  -45.1211 H         1 UNK         0.1426 
     74 H74        17.1496  -30.8817  -47.3332 H         1 UNK         0.0716 
     75 H75        18.8881  -31.0404  -47.3361 H         1 UNK         0.0716 
     76 H76        19.6092  -28.0941  -49.2924 H         1 UNK         0.0695 
     77 H77        20.0598  -29.6654  -48.7378 H         1 UNK         0.0695 
     78 H78        21.7461  -27.8015  -48.3383 H         1 UNK         0.0983 
     79 H79        19.6242  -26.7236  -46.5935 H         1 UNK         0.3095 
     80 H80        21.3670  -23.7446  -45.9550 H         1 UNK         0.0454 
     81 H81        19.4562  -22.5814  -47.0178 H         1 UNK         0.0851 
     82 H82        19.0106  -24.0476  -47.8929 H         1 UNK         0.0851 
     83 H83        20.5236  -23.2280  -48.2504 H         1 UNK         0.0851 
     84 H84        18.6748  -24.3651  -45.4211 H         1 UNK         0.2976 
     85 H85        21.6835  -27.5126  -45.1232 H         1 UNK         0.3116 
     86 H86        22.4274  -30.3563  -44.5433 H         1 UNK         0.0646 
     87 H87        20.3316  -29.5226  -43.4185 H         1 UNK         0.0847 
     88 H88        21.2533  -28.2127  -42.6911 H         1 UNK         0.0847 
     89 H89        21.5900  -29.8778  -42.2506 H         1 UNK         0.0847 
     90 H90        23.8935  -30.6323  -42.8091 H         1 UNK         0.3040 
     91 H91        25.9211  -28.5252  -42.2810 H         1 UNK         0.1015 
     92 H92        26.7364  -30.8959  -42.5251 H         1 UNK         0.0786 
     93 H93        25.6900  -31.3955  -41.1978 H         1 UNK         0.0786 
     94 H94        27.0029  -30.2698  -40.9062 H         1 UNK         0.0786 
     95 H95        25.1173  -27.0233  -40.9405 H         1 UNK         0.3172 
     96 H96        23.9379  -25.8775  -39.4571 H         1 UNK         0.0595 
     97 H97        23.9041  -28.4545  -37.7726 H         1 UNK         0.0839 
     98 H98        23.4533  -26.8484  -37.2016 H         1 UNK         0.0839 
     99 H99        25.0995  -27.1717  -37.7019 H         1 UNK         0.0839 
    100 H100       21.8838  -28.2113  -38.1096 H         1 UNK         0.2998 
    101 H101       19.9673  -28.2909  -40.3715 H         1 UNK         0.0822 
    102 H102       19.1046  -26.5259  -38.8153 H         1 UNK         0.0787 
    103 H103       18.0732  -27.9407  -38.7814 H         1 UNK         0.0787 
    104 H104       19.2012  -27.6532  -37.4624 H         1 UNK         0.0787 
    105 H105       22.1110  -30.0505  -39.0154 H         1 UNK         0.3055 
    106 H106       20.4098  -32.2124  -37.8295 H         1 UNK         0.1106 
    107 H107       23.3702  -31.5220  -37.4220 H         1 UNK         0.0828 
    108 H108       22.0641  -31.2111  -36.2803 H         1 UNK         0.0828 
    109 H109       22.5174  -32.8622  -36.6654 H         1 UNK         0.0828 
    110 H110       22.9397  -31.5265  -40.2488 H         1 UNK         0.2931 
    111 H111       23.8404  -32.6889  -41.8956 H         1 UNK         0.0412 
    112 H112       24.5782  -33.3639  -39.0094 H         1 UNK         0.3472 
    113 H113       25.4725  -34.8515  -39.1963 H         1 UNK         0.3472 
    114 H114       21.4382  -34.5821  -41.7326 H         1 UNK         0.0970 
    115 H115       22.6626  -34.6693  -42.9639 H         1 UNK         0.0970 
    116 H116       19.2123  -33.7303  -42.8557 H         1 UNK         0.0612 
    117 H117       19.6504  -32.5883  -41.5985 H         1 UNK         0.0612 
@<TRIPOS>BOND
     1    1    2 1    
     2    1   62 1    
     3    1   63 1    
     4    1   64 1    
     5    2    3 2    
     6    2    4 am   BACKBONE|DICT|INTERRES
     7    4    5 1    
     8    4   65 1    
     9    5    6 1    
    10    5   25 1    
    11    5   66 1    
    12    6    7 1    
    13    6   67 1    
    14    6   68 1    
    15    7    8 1    
    16    8    9 1    
    17    8   69 1    
    18    8   70 1    
    19    9   10 ar   
    20    9   14 ar   
    21   10   11 ar   
    22   10   71 1    
    23   11   12 ar   
    24   11   61 1    
    25   12   13 ar   
    26   12   72 1    
    27   13   14 ar   
    28   13   15 1    
    29   14   73 1    
    30   15   16 1    
    31   15   74 1    
    32   15   75 1    
    33   16   17 1    
    34   17   18 1    
    35   17   76 1    
    36   17   77 1    
    37   18   19 1    
    38   18   27 1    
    39   18   78 1    
    40   19   20 am   BACKBONE|DICT|INTERRES
    41   19   79 1    
    42   20   21 2    
    43   20   22 1    
    44   22   23 1    
    45   22   24 1    
    46   22   80 1    
    47   23   81 1    
    48   23   82 1    
    49   23   83 1    
    50   24   25 am   BACKBONE|DICT|INTERRES
    51   24   84 1    
    52   25   26 2    
    53   27   28 2    
    54   27   29 am   BACKBONE|DICT|INTERRES
    55   29   30 1    
    56   29   85 1    
    57   30   31 1    
    58   30   32 1    
    59   30   86 1    
    60   31   87 1    
    61   31   88 1    
    62   31   89 1    
    63   32   33 2    
    64   32   34 am   BACKBONE|DICT|INTERRES
    65   34   35 1    
    66   34   90 1    
    67   35   36 1    
    68   35   37 1    
    69   35   91 1    
    70   36   92 1    
    71   36   93 1    
    72   36   94 1    
    73   37   38 2    
    74   37   39 am   BACKBONE|DICT|INTERRES
    75   39   40 1    
    76   39   95 1    
    77   40   41 1    
    78   40   42 1    
    79   40   96 1    
    80   41   97 1    
    81   41   98 1    
    82   41   99 1    
    83   42   43 2    
    84   42   44 am   BACKBONE|DICT|INTERRES
    85   44   45 1    
    86   44  100 1    
    87   45   46 1    
    88   45   47 1    
    89   45  101 1    
    90   46  102 1    
    91   46  103 1    
    92   46  104 1    
    93   47   48 2    
    94   47   49 am   BACKBONE|DICT|INTERRES
    95   49   50 1    
    96   49  105 1    
    97   50   51 1    
    98   50   52 1    
    99   50  106 1    
   100   51  107 1    
   101   51  108 1    
   102   51  109 1    
   103   52   53 2    
   104   52   54 am   BACKBONE|DICT|INTERRES
   105   54   55 1    
   106   54  110 1    
   107   55   56 1    
   108   55   59 1    
   109   55  111 1    
   110   56   57 am   BACKBONE|DICT|INTERRES
   111   56   58 2    
   112   57  112 1    
   113   57  113 1    
   114   59   60 1    
   115   59  114 1    
   116   59  115 1    
   117   60   61 1    
   118   61  116 1    
   119   61  117 1    
@<TRIPOS>SUBSTRUCTURE
     1 UNK         1 GROUP             0       ****    0 ROOT    
