@<TRIPOS>MOLECULE
3R8
117   119    1
SMALL
USER_CHARGES


@<TRIPOS>ATOM
      1 CA         24.4317  -26.6793  -45.2824 C.3       0 UNK        -0.2013 
      2 C          23.1628  -27.2698  -45.8777 C.2       0 UNK         0.4866 
      3 O          23.2376  -28.2180  -46.6580 O.2       0 UNK        -0.5176 
      4 N          22.0050  -26.7058  -45.5216 N.am      1 UNK        -0.4884 
      5 CA         20.6752  -27.1331  -45.9525 C.3       1 UNK         0.0853 
      6 C6         20.3624  -26.7759  -47.4427 C.3       10 UNK        -0.0849 
      7 S7         20.1195  -28.2398  -48.5057 S.3       10 UNK        -0.2776 
      8 C8         18.4046  -28.7716  -48.1419 C.3       10 UNK         0.0316 
      9 C9         18.2545  -29.5964  -46.8607 C.ar      10 UNK        -0.0863 
     10 C10        19.2595  -30.4767  -46.4447 C.ar      10 UNK        -0.1009 
     11 C11        19.1144  -31.2320  -45.2812 C.ar      10 UNK        -0.0712 
     12 C12        17.9323  -31.1344  -44.5415 C.ar      10 UNK        -0.0894 
     13 C13        16.9033  -30.2706  -44.9429 C.ar      10 UNK        -0.0745 
     14 C14        17.0757  -29.5123  -46.1084 C.ar      10 UNK        -0.0972 
     15 C15        15.5797  -30.1561  -44.1740 C.3       10 UNK         0.0209 
     16 S16        15.6287  -30.6968  -42.4246 S.3       10 UNK        -0.2568 
     17 C17        16.0110  -29.1812  -41.4745 C.3       10 UNK        -0.0983 
     18 CA         17.4373  -28.6264  -41.7522 C.3       3 UNK         0.0876 
     19 N          17.5050  -27.8519  -42.9957 N.am      3 UNK        -0.4424 
     20 C          16.9437  -26.6568  -43.2307 C.2       2 UNK         0.4918 
     21 O          16.2484  -26.0518  -42.4139 O.2       2 UNK        -0.4875 
     22 CA         17.2032  -26.0328  -44.6159 C.3       2 UNK         0.0481 
     23 CB         17.2994  -24.4940  -44.5499 C.3       2 UNK        -0.1831 
     24 N          18.3628  -26.5915  -45.3269 N.am      2 UNK        -0.4498 
     25 C          19.6511  -26.5568  -44.9536 C.2       1 UNK         0.5027 
     26 O          20.0346  -26.1036  -43.8708 O.2       1 UNK        -0.4969 
     27 C          18.0999  -27.8804  -40.5651 C.2       3 UNK         0.5005 
     28 O          17.7217  -28.0813  -39.4089 O.2       3 UNK        -0.5279 
     29 N          19.1036  -27.0444  -40.8751 N.am      4 UNK        -0.4463 
     30 CA         20.0075  -26.4132  -39.9140 C.3       4 UNK         0.0283 
     31 CB         20.6525  -25.1886  -40.5863 C.3       4 UNK        -0.1875 
     32 C          21.0876  -27.4071  -39.4532 C.2       4 UNK         0.4949 
     33 O          21.2488  -28.4659  -40.0581 O.2       4 UNK        -0.5039 
     34 N          21.8447  -27.0346  -38.4124 N.am      5 UNK        -0.4663 
     35 CA         22.9491  -27.8373  -37.8660 C.3       5 UNK         0.0242 
     36 CB         23.4279  -27.2063  -36.5486 C.3       5 UNK        -0.1982 
     37 C          24.1351  -28.0273  -38.8338 C.2       5 UNK         0.5017 
     38 O          24.8907  -28.9890  -38.6793 O.2       5 UNK        -0.5012 
     39 N          24.2744  -27.1166  -39.8085 N.am      6 UNK        -0.4439 
     40 CA         25.2577  -27.1667  -40.8916 C.3       6 UNK         0.0297 
     41 CB         25.1204  -25.9017  -41.7533 C.3       6 UNK        -0.2006 
     42 C          25.0941  -28.4295  -41.7551 C.2       6 UNK         0.4892 
     43 O          23.9655  -28.8165  -42.0615 O.2       6 UNK        -0.5089 
     44 N          26.2280  -29.0524  -42.1082 N.am      7 UNK        -0.4243 
     45 CA         26.3482  -30.3180  -42.8516 C.3       7 UNK         0.0196 
     46 CB         25.8496  -30.1521  -44.3037 C.3       7 UNK        -0.2007 
     47 C          25.7007  -31.5319  -42.1473 C.2       7 UNK         0.5020 
     48 O          25.4494  -32.5455  -42.8000 O.2       7 UNK        -0.5147 
     49 N          25.4524  -31.4132  -40.8326 N.am      8 UNK        -0.4734 
     50 CA         24.7713  -32.3765  -39.9591 C.3       8 UNK         0.0238 
     51 CB         25.6031  -33.6683  -39.8041 C.3       8 UNK        -0.1912 
     52 C          23.3067  -32.6493  -40.3629 C.2       8 UNK         0.5038 
     53 O          22.7971  -33.7386  -40.0928 O.2       8 UNK        -0.5046 
     54 N          22.6484  -31.6585  -40.9808 N.am      9 UNK        -0.4200 
     55 CA         21.2352  -31.7152  -41.3889 C.3       9 UNK         0.0839 
     56 C          20.2049  -31.5906  -40.2253 C.2       9 UNK         0.5513 
     57 N          20.6128  -31.4151  -38.9741 N.am      9 UNK        -0.7519 
     58 O          19.0037  -31.6834  -40.4635 O.2       9 UNK        -0.4960 
     59 C59        20.9399  -30.7143  -42.5371 C.3       10 UNK        -0.0876 
     60 S60        21.6467  -31.2551  -44.1264 S.3       10 UNK        -0.2414 
     61 C61        20.2363  -32.1639  -44.8416 C.3       10 UNK         0.0169 
     62 H62        25.1814  -26.5337  -46.0596 H         1 UNK         0.0903 
     63 H63        24.2473  -25.7158  -44.8081 H         1 UNK         0.0903 
     64 H64        24.8419  -27.3563  -44.5356 H         1 UNK         0.0903 
     65 H65        21.9812  -25.9771  -44.8178 H         1 UNK         0.3096 
     66 H66        20.6410  -28.2145  -45.8120 H         1 UNK         0.1121 
     67 H67        21.1956  -26.2189  -47.8746 H         1 UNK         0.0849 
     68 H68        19.5117  -26.1045  -47.5695 H         1 UNK         0.0849 
     69 H69        17.7518  -27.8977  -48.1264 H         1 UNK         0.0865 
     70 H70        18.0602  -29.3878  -48.9735 H         1 UNK         0.0865 
     71 H71        20.1704  -30.5748  -47.0194 H         1 UNK         0.1346 
     72 H72        17.8204  -31.7425  -43.6548 H         1 UNK         0.1412 
     73 H73        16.2781  -28.8592  -46.4371 H         1 UNK         0.1426 
     74 H74        14.8436  -30.7721  -44.6917 H         1 UNK         0.0716 
     75 H75        15.2024  -29.1334  -44.2168 H         1 UNK         0.0716 
     76 H76        15.2415  -28.4307  -41.6581 H         1 UNK         0.0695 
     77 H77        15.8975  -29.4649  -40.4273 H         1 UNK         0.0695 
     78 H78        18.0859  -29.4879  -41.8989 H         1 UNK         0.0983 
     79 H79        18.0314  -28.2761  -43.7454 H         1 UNK         0.3095 
     80 H80        16.3313  -26.2820  -45.2223 H         1 UNK         0.0454 
     81 H81        18.1095  -24.1666  -43.8974 H         1 UNK         0.0851 
     82 H82        16.3772  -24.0582  -44.1637 H         1 UNK         0.0851 
     83 H83        17.4681  -24.0632  -45.5366 H         1 UNK         0.0851 
     84 H84        18.1510  -27.0185  -46.2168 H         1 UNK         0.2976 
     85 H85        19.3563  -26.9392  -41.8500 H         1 UNK         0.3116 
     86 H86        19.4354  -26.0851  -39.0438 H         1 UNK         0.0646 
     87 H87        21.2832  -25.4767  -41.4287 H         1 UNK         0.0847 
     88 H88        21.2760  -24.6321  -39.8859 H         1 UNK         0.0847 
     89 H89        19.8961  -24.4980  -40.9603 H         1 UNK         0.0847 
     90 H90        21.6563  -26.1511  -37.9597 H         1 UNK         0.3040 
     91 H91        22.5578  -28.8333  -37.6465 H         1 UNK         0.1015 
     92 H92        23.8119  -26.1966  -36.7001 H         1 UNK         0.0786 
     93 H93        24.2300  -27.7960  -36.1020 H         1 UNK         0.0786 
     94 H94        22.6218  -27.1545  -35.8164 H         1 UNK         0.0786 
     95 H95        23.5775  -26.3901  -39.8629 H         1 UNK         0.3172 
     96 H96        26.2499  -27.1724  -40.4355 H         1 UNK         0.0595 
     97 H97        25.8594  -25.8930  -42.5556 H         1 UNK         0.0839 
     98 H98        25.2766  -24.9984  -41.1633 H         1 UNK         0.0839 
     99 H99        24.1342  -25.8355  -42.2151 H         1 UNK         0.0839 
    100 H100       27.1034  -28.6533  -41.7966 H         1 UNK         0.2998 
    101 H101       27.4154  -30.5404  -42.8966 H         1 UNK         0.0822 
    102 H102       26.0586  -31.0437  -44.8959 H         1 UNK         0.0787 
    103 H103       24.7726  -29.9834  -44.3465 H         1 UNK         0.0787 
    104 H104       26.3424  -29.3167  -44.8004 H         1 UNK         0.0787 
    105 H105       25.6775  -30.5285  -40.3946 H         1 UNK         0.3055 
    106 H106       24.7195  -31.9033  -38.9769 H         1 UNK         0.1106 
    107 H107       25.1797  -34.3170  -39.0362 H         1 UNK         0.0828 
    108 H108       25.6365  -34.2433  -40.7299 H         1 UNK         0.0828 
    109 H109       26.6286  -33.4477  -39.5081 H         1 UNK         0.0828 
    110 H110       23.1310  -30.7906  -41.1804 H         1 UNK         0.2931 
    111 H111       21.0616  -32.7163  -41.7884 H         1 UNK         0.0412 
    112 H112       21.5928  -31.3184  -38.7693 H         1 UNK         0.3472 
    113 H113       19.9285  -31.3415  -38.2387 H         1 UNK         0.3472 
    114 H114       21.3390  -29.7270  -42.3013 H         1 UNK         0.0970 
    115 H115       19.8713  -30.5722  -42.6753 H         1 UNK         0.0970 
    116 H116       20.5885  -32.7333  -45.7029 H         1 UNK         0.0612 
    117 H117       19.8736  -32.8969  -44.1193 H         1 UNK         0.0612 
@<TRIPOS>BOND
     1    1    2 1    
     2    1   62 1    
     3    1   63 1    
     4    1   64 1    
     5    2    3 2    
     6    2    4 am   BACKBONE|DICT|INTERRES
     7    4    5 1    
     8    4   65 1    
     9    5    6 1    
    10    5   25 1    
    11    5   66 1    
    12    6    7 1    
    13    6   67 1    
    14    6   68 1    
    15    7    8 1    
    16    8    9 1    
    17    8   69 1    
    18    8   70 1    
    19    9   10 ar   
    20    9   14 ar   
    21   10   11 ar   
    22   10   71 1    
    23   11   12 ar   
    24   11   61 1    
    25   12   13 ar   
    26   12   72 1    
    27   13   14 ar   
    28   13   15 1    
    29   14   73 1    
    30   15   16 1    
    31   15   74 1    
    32   15   75 1    
    33   16   17 1    
    34   17   18 1    
    35   17   76 1    
    36   17   77 1    
    37   18   19 1    
    38   18   27 1    
    39   18   78 1    
    40   19   20 am   BACKBONE|DICT|INTERRES
    41   19   79 1    
    42   20   21 2    
    43   20   22 1    
    44   22   23 1    
    45   22   24 1    
    46   22   80 1    
    47   23   81 1    
    48   23   82 1    
    49   23   83 1    
    50   24   25 am   BACKBONE|DICT|INTERRES
    51   24   84 1    
    52   25   26 2    
    53   27   28 2    
    54   27   29 am   BACKBONE|DICT|INTERRES
    55   29   30 1    
    56   29   85 1    
    57   30   31 1    
    58   30   32 1    
    59   30   86 1    
    60   31   87 1    
    61   31   88 1    
    62   31   89 1    
    63   32   33 2    
    64   32   34 am   BACKBONE|DICT|INTERRES
    65   34   35 1    
    66   34   90 1    
    67   35   36 1    
    68   35   37 1    
    69   35   91 1    
    70   36   92 1    
    71   36   93 1    
    72   36   94 1    
    73   37   38 2    
    74   37   39 am   BACKBONE|DICT|INTERRES
    75   39   40 1    
    76   39   95 1    
    77   40   41 1    
    78   40   42 1    
    79   40   96 1    
    80   41   97 1    
    81   41   98 1    
    82   41   99 1    
    83   42   43 2    
    84   42   44 am   BACKBONE|DICT|INTERRES
    85   44   45 1    
    86   44  100 1    
    87   45   46 1    
    88   45   47 1    
    89   45  101 1    
    90   46  102 1    
    91   46  103 1    
    92   46  104 1    
    93   47   48 2    
    94   47   49 am   BACKBONE|DICT|INTERRES
    95   49   50 1    
    96   49  105 1    
    97   50   51 1    
    98   50   52 1    
    99   50  106 1    
   100   51  107 1    
   101   51  108 1    
   102   51  109 1    
   103   52   53 2    
   104   52   54 am   BACKBONE|DICT|INTERRES
   105   54   55 1    
   106   54  110 1    
   107   55   56 1    
   108   55   59 1    
   109   55  111 1    
   110   56   57 am   BACKBONE|DICT|INTERRES
   111   56   58 2    
   112   57  112 1    
   113   57  113 1    
   114   59   60 1    
   115   59  114 1    
   116   59  115 1    
   117   60   61 1    
   118   61  116 1    
   119   61  117 1    
@<TRIPOS>SUBSTRUCTURE
     1 UNK         1 GROUP             0       ****    0 ROOT    
