@<TRIPOS>MOLECULE
3R8
117   119    1
SMALL
USER_CHARGES


@<TRIPOS>ATOM
      1 CA         15.8734  -22.0688  -41.3374 C.3       0 UNK        -0.2013 
      2 C          16.1206  -22.5508  -42.7588 C.2       0 UNK         0.4866 
      3 O          16.1629  -21.7378  -43.6823 O.2       0 UNK        -0.5176 
      4 N          16.2823  -23.8679  -42.9418 N.am      1 UNK        -0.4884 
      5 CA         16.5619  -24.5133  -44.2321 C.3       1 UNK         0.0853 
      6 C6         16.2553  -26.0301  -44.1943 C.3       10 UNK        -0.0849 
      7 S7         17.0616  -26.9248  -42.8163 S.3       10 UNK        -0.2776 
      8 C8         16.4289  -28.6177  -43.0687 C.3       10 UNK         0.0316 
      9 C9         17.4551  -29.5197  -43.7429 C.ar      10 UNK        -0.0863 
     10 C10        17.9016  -30.6833  -43.1080 C.ar      10 UNK        -0.1009 
     11 C11        18.8508  -31.5132  -43.7186 C.ar      10 UNK        -0.0712 
     12 C12        19.3598  -31.1574  -44.9734 C.ar      10 UNK        -0.0894 
     13 C13        18.9147  -30.0023  -45.6242 C.ar      10 UNK        -0.0745 
     14 C14        17.9488  -29.2036  -45.0101 C.ar      10 UNK        -0.0972 
     15 C15        19.4634  -29.6205  -46.9958 C.3       10 UNK         0.0209 
     16 S16        20.0252  -27.8841  -47.0791 S.3       10 UNK        -0.2568 
     17 C17        21.3709  -27.9177  -45.8572 C.3       10 UNK        -0.0983 
     18 CA         21.9845  -26.5228  -45.5841 C.3       3 UNK         0.0876 
     19 N          21.0191  -25.5824  -45.0005 N.am      3 UNK        -0.4424 
     20 C          21.2132  -24.2577  -44.9598 C.2       2 UNK         0.4918 
     21 O          22.1314  -23.6955  -45.5607 O.2       2 UNK        -0.4875 
     22 CA         20.2715  -23.4189  -44.0693 C.3       2 UNK         0.0481 
     23 CB         20.1670  -21.9530  -44.5429 C.3       2 UNK        -0.1831 
     24 N          18.9312  -23.9766  -43.8482 N.am      2 UNK        -0.4498 
     25 C          17.9802  -24.2084  -44.7670 C.2       1 UNK         0.5027 
     26 O          18.1647  -24.1425  -45.9829 O.2       1 UNK        -0.4969 
     27 C          23.1845  -26.6865  -44.6316 C.2       3 UNK         0.5005 
     28 O          23.0109  -26.5980  -43.4140 O.2       3 UNK        -0.5279 
     29 N          24.3604  -27.0218  -45.1811 N.am      4 UNK        -0.4463 
     30 CA         25.5416  -27.4110  -44.3975 C.3       4 UNK         0.0283 
     31 CB         26.7574  -27.5474  -45.3278 C.3       4 UNK        -0.1875 
     32 C          25.3233  -28.7112  -43.5982 C.2       4 UNK         0.4949 
     33 O          25.8740  -28.8587  -42.5075 O.2       4 UNK        -0.5039 
     34 N          24.4948  -29.6123  -44.1452 N.am      5 UNK        -0.4663 
     35 CA         24.0816  -30.8662  -43.5155 C.3       5 UNK         0.0242 
     36 CB         23.4542  -31.7793  -44.5815 C.3       5 UNK        -0.1982 
     37 C          23.1006  -30.6810  -42.3462 C.2       5 UNK         0.5017 
     38 O          23.0502  -31.5567  -41.4834 O.2       5 UNK        -0.5012 
     39 N          22.3516  -29.5652  -42.3186 N.am      6 UNK        -0.4439 
     40 CA         21.2541  -29.3019  -41.3739 C.3       6 UNK         0.0297 
     41 CB         20.5007  -28.0262  -41.7835 C.3       6 UNK        -0.2006 
     42 C          21.6655  -29.2351  -39.8911 C.2       6 UNK         0.4892 
     43 O          20.7973  -29.3078  -39.0209 O.2       6 UNK        -0.5089 
     44 N          22.9727  -29.1169  -39.6256 N.am      7 UNK        -0.4243 
     45 CA         23.5732  -29.1770  -38.2947 C.3       7 UNK         0.0196 
     46 CB         25.0342  -28.7077  -38.3924 C.3       7 UNK        -0.2007 
     47 C          23.4999  -30.5686  -37.6343 C.2       7 UNK         0.5020 
     48 O          23.6503  -30.6421  -36.4139 O.2       7 UNK        -0.5147 
     49 N          23.2923  -31.6396  -38.4167 N.am      8 UNK        -0.4734 
     50 CA         23.2419  -33.0149  -37.9058 C.3       8 UNK         0.0238 
     51 CB         24.6638  -33.6024  -37.8382 C.3       8 UNK        -0.1912 
     52 C          22.3136  -33.9405  -38.7052 C.2       8 UNK         0.5038 
     53 O          21.6575  -34.7859  -38.0946 O.2       8 UNK        -0.5046 
     54 N          22.2800  -33.7869  -40.0357 N.am      9 UNK        -0.4200 
     55 CA         21.5680  -34.6468  -40.9964 C.3       9 UNK         0.0839 
     56 C          22.0525  -36.1314  -40.9747 C.2       9 UNK         0.5513 
     57 N          21.2743  -37.0743  -41.4910 N.am      9 UNK        -0.7519 
     58 O          23.1640  -36.4379  -40.5468 O.2       9 UNK        -0.4960 
     59 C59        20.0219  -34.4708  -40.9290 C.3       10 UNK        -0.0876 
     60 S60        19.5066  -32.7540  -41.2679 S.3       10 UNK        -0.2414 
     61 C61        19.2903  -32.8288  -43.0781 C.3       10 UNK         0.0169 
     62 H62        14.9173  -21.5495  -41.2784 H         1 UNK         0.0903 
     63 H63        15.8561  -22.8927  -40.6241 H         1 UNK         0.0903 
     64 H64        16.6574  -21.3750  -41.0351 H         1 UNK         0.0903 
     65 H65        16.2330  -24.4964  -42.1510 H         1 UNK         0.3096 
     66 H66        15.8773  -24.0718  -44.9606 H         1 UNK         0.1121 
     67 H67        16.5129  -26.4899  -45.1480 H         1 UNK         0.0849 
     68 H68        15.1777  -26.1670  -44.0897 H         1 UNK         0.0849 
     69 H69        16.1494  -29.0227  -42.0950 H         1 UNK         0.0865 
     70 H70        15.5138  -28.6004  -43.6622 H         1 UNK         0.0865 
     71 H71        17.5002  -30.9504  -42.1403 H         1 UNK         0.1346 
     72 H72        20.0894  -31.7938  -45.4551 H         1 UNK         0.1412 
     73 H73        17.6001  -28.3201  -45.5210 H         1 UNK         0.1426 
     74 H74        18.6819  -29.7735  -47.7411 H         1 UNK         0.0716 
     75 H75        20.2923  -30.2717  -47.2777 H         1 UNK         0.0716 
     76 H76        22.1281  -28.6065  -46.2368 H         1 UNK         0.0695 
     77 H77        20.9956  -28.3571  -44.9323 H         1 UNK         0.0695 
     78 H78        22.3462  -26.1098  -46.5287 H         1 UNK         0.0983 
     79 H79        20.2562  -25.9799  -44.4741 H         1 UNK         0.3095 
     80 H80        20.7437  -23.4050  -43.0861 H         1 UNK         0.0454 
     81 H81        19.7629  -21.8841  -45.5533 H         1 UNK         0.0851 
     82 H82        21.1444  -21.4690  -44.5500 H         1 UNK         0.0851 
     83 H83        19.5245  -21.3674  -43.8853 H         1 UNK         0.0851 
     84 H84        18.6632  -24.0947  -42.8810 H         1 UNK         0.2976 
     85 H85        24.4417  -27.0724  -46.1874 H         1 UNK         0.3116 
     86 H86        25.7479  -26.6137  -43.6800 H         1 UNK         0.0646 
     87 H87        26.6078  -28.3210  -46.0820 H         1 UNK         0.0847 
     88 H88        27.6515  -27.8138  -44.7623 H         1 UNK         0.0847 
     89 H89        26.9709  -26.6108  -45.8432 H         1 UNK         0.0847 
     90 H90        24.1148  -29.4157  -45.0589 H         1 UNK         0.3040 
     91 H91        24.9712  -31.3603  -43.1178 H         1 UNK         0.1015 
     92 H92        22.5709  -31.3257  -45.0329 H         1 UNK         0.0786 
     93 H93        23.1450  -32.7317  -44.1478 H         1 UNK         0.0786 
     94 H94        24.1626  -32.0042  -45.3790 H         1 UNK         0.0786 
     95 H95        22.5309  -28.8478  -43.0075 H         1 UNK         0.3172 
     96 H96        20.5545  -30.1315  -41.4659 H         1 UNK         0.0595 
     97 H97        21.1317  -27.1405  -41.7155 H         1 UNK         0.0839 
     98 H98        19.6410  -27.8591  -41.1331 H         1 UNK         0.0839 
     99 H99        20.1135  -28.0983  -42.7990 H         1 UNK         0.0839 
    100 H100       23.6080  -29.0612  -40.4091 H         1 UNK         0.2998 
    101 H101       23.0311  -28.4826  -37.6492 H         1 UNK         0.0822 
    102 H102       25.1000  -27.6910  -38.7805 H         1 UNK         0.0787 
    103 H103       25.5129  -28.7101  -37.4120 H         1 UNK         0.0787 
    104 H104       25.6225  -29.3548  -39.0446 H         1 UNK         0.0787 
    105 H105       23.1469  -31.5018  -39.4114 H         1 UNK         0.3055 
    106 H106       22.8360  -32.9975  -36.8913 H         1 UNK         0.1106 
    107 H107       25.1425  -33.6086  -38.8181 H         1 UNK         0.0828 
    108 H108       24.6457  -34.6317  -37.4770 H         1 UNK         0.0828 
    109 H109       25.2980  -33.0334  -37.1583 H         1 UNK         0.0828 
    110 H110       22.8120  -33.0387  -40.4700 H         1 UNK         0.2931 
    111 H111       21.8890  -34.2839  -41.9734 H         1 UNK         0.0412 
    112 H112       20.3702  -36.8592  -41.8795 H         1 UNK         0.3472 
    113 H113       21.6036  -38.0275  -41.4940 H         1 UNK         0.3472 
    114 H114       19.6477  -34.7594  -39.9457 H         1 UNK         0.0970 
    115 H115       19.5127  -35.1180  -41.6433 H         1 UNK         0.0970 
    116 H116       20.2319  -33.1615  -43.5179 H         1 UNK         0.0612 
    117 H117       18.5459  -33.5896  -43.3161 H         1 UNK         0.0612 
@<TRIPOS>BOND
     1    1    2 1    
     2    1   62 1    
     3    1   63 1    
     4    1   64 1    
     5    2    3 2    
     6    2    4 am   BACKBONE|DICT|INTERRES
     7    4    5 1    
     8    4   65 1    
     9    5    6 1    
    10    5   25 1    
    11    5   66 1    
    12    6    7 1    
    13    6   67 1    
    14    6   68 1    
    15    7    8 1    
    16    8    9 1    
    17    8   69 1    
    18    8   70 1    
    19    9   10 ar   
    20    9   14 ar   
    21   10   11 ar   
    22   10   71 1    
    23   11   12 ar   
    24   11   61 1    
    25   12   13 ar   
    26   12   72 1    
    27   13   14 ar   
    28   13   15 1    
    29   14   73 1    
    30   15   16 1    
    31   15   74 1    
    32   15   75 1    
    33   16   17 1    
    34   17   18 1    
    35   17   76 1    
    36   17   77 1    
    37   18   19 1    
    38   18   27 1    
    39   18   78 1    
    40   19   20 am   BACKBONE|DICT|INTERRES
    41   19   79 1    
    42   20   21 2    
    43   20   22 1    
    44   22   23 1    
    45   22   24 1    
    46   22   80 1    
    47   23   81 1    
    48   23   82 1    
    49   23   83 1    
    50   24   25 am   BACKBONE|DICT|INTERRES
    51   24   84 1    
    52   25   26 2    
    53   27   28 2    
    54   27   29 am   BACKBONE|DICT|INTERRES
    55   29   30 1    
    56   29   85 1    
    57   30   31 1    
    58   30   32 1    
    59   30   86 1    
    60   31   87 1    
    61   31   88 1    
    62   31   89 1    
    63   32   33 2    
    64   32   34 am   BACKBONE|DICT|INTERRES
    65   34   35 1    
    66   34   90 1    
    67   35   36 1    
    68   35   37 1    
    69   35   91 1    
    70   36   92 1    
    71   36   93 1    
    72   36   94 1    
    73   37   38 2    
    74   37   39 am   BACKBONE|DICT|INTERRES
    75   39   40 1    
    76   39   95 1    
    77   40   41 1    
    78   40   42 1    
    79   40   96 1    
    80   41   97 1    
    81   41   98 1    
    82   41   99 1    
    83   42   43 2    
    84   42   44 am   BACKBONE|DICT|INTERRES
    85   44   45 1    
    86   44  100 1    
    87   45   46 1    
    88   45   47 1    
    89   45  101 1    
    90   46  102 1    
    91   46  103 1    
    92   46  104 1    
    93   47   48 2    
    94   47   49 am   BACKBONE|DICT|INTERRES
    95   49   50 1    
    96   49  105 1    
    97   50   51 1    
    98   50   52 1    
    99   50  106 1    
   100   51  107 1    
   101   51  108 1    
   102   51  109 1    
   103   52   53 2    
   104   52   54 am   BACKBONE|DICT|INTERRES
   105   54   55 1    
   106   54  110 1    
   107   55   56 1    
   108   55   59 1    
   109   55  111 1    
   110   56   57 am   BACKBONE|DICT|INTERRES
   111   56   58 2    
   112   57  112 1    
   113   57  113 1    
   114   59   60 1    
   115   59  114 1    
   116   59  115 1    
   117   60   61 1    
   118   61  116 1    
   119   61  117 1    
@<TRIPOS>SUBSTRUCTURE
     1 UNK         1 GROUP             0       ****    0 ROOT    
