@<TRIPOS>MOLECULE
3R8
117   119    1
SMALL
USER_CHARGES


@<TRIPOS>ATOM
      1 CA         14.8899  -22.5936  -45.3080 C.3       0 UNK        -0.2013 
      2 C          15.6133  -23.7054  -46.0532 C.2       0 UNK         0.4866 
      3 O          15.3595  -23.9139  -47.2399 O.2       0 UNK        -0.5176 
      4 N          16.5129  -24.4178  -45.3689 N.am      1 UNK        -0.4884 
      5 CA         17.3419  -25.4937  -45.9093 C.3       1 UNK         0.0853 
      6 C6         16.5521  -26.8198  -46.0680 C.3       10 UNK        -0.0849 
      7 S7         17.2989  -27.9506  -47.2959 S.3       10 UNK        -0.2776 
      8 C8         16.7902  -29.5888  -46.6775 C.3       10 UNK         0.0316 
      9 C9         17.5669  -29.9909  -45.4325 C.ar      10 UNK        -0.0863 
     10 C10        18.8202  -30.6002  -45.5437 C.ar      10 UNK        -0.1009 
     11 C11        19.5400  -30.9526  -44.3975 C.ar      10 UNK        -0.0712 
     12 C12        19.0095  -30.6733  -43.1347 C.ar      10 UNK        -0.0894 
     13 C13        17.7706  -30.0391  -43.0140 C.ar      10 UNK        -0.0745 
     14 C14        17.0385  -29.7391  -44.1647 C.ar      10 UNK        -0.0972 
     15 C15        17.2262  -29.6296  -41.6550 C.3       10 UNK         0.0209 
     16 S16        17.1905  -27.8115  -41.5048 S.3       10 UNK        -0.2568 
     17 C17        18.7052  -27.4482  -40.5569 C.3       10 UNK        -0.0983 
     18 CA         20.0454  -27.7383  -41.2883 C.3       3 UNK         0.0876 
     19 N          20.1198  -27.0733  -42.5925 N.am      3 UNK        -0.4424 
     20 C          20.9065  -27.4599  -43.6018 C.2       2 UNK         0.4918 
     21 O          21.6388  -28.4458  -43.5512 O.2       2 UNK        -0.4875 
     22 CA         20.8956  -26.5919  -44.8774 C.3       2 UNK         0.0481 
     23 CB         21.8347  -27.1465  -45.9667 C.3       2 UNK        -0.1831 
     24 N          19.5651  -26.4222  -45.4659 N.am      2 UNK        -0.4498 
     25 C          18.5925  -25.6222  -45.0160 C.2       1 UNK         0.5027 
     26 O          18.6679  -24.9823  -43.9612 O.2       1 UNK        -0.4969 
     27 C          21.2320  -27.3589  -40.3728 C.2       3 UNK         0.5005 
     28 O          21.9637  -26.4011  -40.6462 O.2       3 UNK        -0.5279 
     29 N          21.3384  -28.0884  -39.2509 N.am      4 UNK        -0.4463 
     30 CA         22.1976  -27.8375  -38.0910 C.3       4 UNK         0.0283 
     31 CB         21.6962  -26.5960  -37.3167 C.3       4 UNK        -0.1875 
     32 C          23.6930  -27.7916  -38.4515 C.2       4 UNK         0.4949 
     33 O          24.2659  -28.8318  -38.7746 O.2       4 UNK        -0.5039 
     34 N          24.3042  -26.6030  -38.3639 N.am      5 UNK        -0.4663 
     35 CA         25.7299  -26.3718  -38.6030 C.3       5 UNK         0.0242 
     36 CB         26.0974  -24.9614  -38.1136 C.3       5 UNK        -0.1982 
     37 C          26.1593  -26.5616  -40.0675 C.2       5 UNK         0.5017 
     38 O          27.3386  -26.8245  -40.3072 O.2       5 UNK        -0.5012 
     39 N          25.2203  -26.4172  -41.0145 N.am      6 UNK        -0.4439 
     40 CA         25.4757  -26.6108  -42.4424 C.3       6 UNK         0.0297 
     41 CB         24.3850  -25.9150  -43.2678 C.3       6 UNK        -0.2006 
     42 C          25.6078  -28.0991  -42.8084 C.2       6 UNK         0.4892 
     43 O          26.5595  -28.4618  -43.5010 O.2       6 UNK        -0.5089 
     44 N          24.6822  -28.9295  -42.3130 N.am      7 UNK        -0.4243 
     45 CA         24.6545  -30.3823  -42.4673 C.3       7 UNK         0.0196 
     46 CB         24.4010  -30.7782  -43.9360 C.3       7 UNK        -0.2007 
     47 C          23.5653  -30.9559  -41.5529 C.2       7 UNK         0.5020 
     48 O          22.5868  -30.2695  -41.2550 O.2       7 UNK        -0.5147 
     49 N          23.7425  -32.2124  -41.1292 N.am      8 UNK        -0.4734 
     50 CA         22.7826  -32.9138  -40.2737 C.3       8 UNK         0.0238 
     51 CB         23.5034  -34.0139  -39.4757 C.3       8 UNK        -0.1912 
     52 C          21.6070  -33.4966  -41.0737 C.2       8 UNK         0.5038 
     53 O          20.4556  -33.2816  -40.6928 O.2       8 UNK        -0.5046 
     54 N          21.9267  -34.2289  -42.1523 N.am      9 UNK        -0.4200 
     55 CA         20.9958  -35.0439  -42.9560 C.3       9 UNK         0.0839 
     56 C          20.3028  -36.1782  -42.1333 C.2       9 UNK         0.5513 
     57 N          19.2689  -36.8179  -42.6647 N.am      9 UNK        -0.7519 
     58 O          20.7296  -36.5361  -41.0368 O.2       9 UNK        -0.4960 
     59 C59        20.0132  -34.1768  -43.7992 C.3       10 UNK        -0.0876 
     60 S60        20.8652  -33.2860  -45.1445 S.3       10 UNK        -0.2414 
     61 C61        20.9192  -31.5800  -44.5200 C.3       10 UNK         0.0169 
     62 H62        13.8147  -22.7697  -45.3233 H         1 UNK         0.0903 
     63 H63        15.2073  -22.5267  -44.2675 H         1 UNK         0.0903 
     64 H64        15.0850  -21.6334  -45.7845 H         1 UNK         0.0903 
     65 H65        16.7436  -24.1804  -44.4104 H         1 UNK         0.3096 
     66 H66        17.6919  -25.1678  -46.8920 H         1 UNK         0.1121 
     67 H67        15.5386  -26.6162  -46.4168 H         1 UNK         0.0849 
     68 H68        16.4339  -27.3030  -45.1001 H         1 UNK         0.0849 
     69 H69        15.7168  -29.5895  -46.4805 H         1 UNK         0.0865 
     70 H70        16.9532  -30.3281  -47.4632 H         1 UNK         0.0865 
     71 H71        19.2409  -30.7945  -46.5209 H         1 UNK         0.1346 
     72 H72        19.5799  -30.9231  -42.2501 H         1 UNK         0.1412 
     73 H73        16.0709  -29.2667  -44.0661 H         1 UNK         0.1426 
     74 H74        16.2107  -30.0133  -41.5475 H         1 UNK         0.0716 
     75 H75        17.8092  -30.0676  -40.8434 H         1 UNK         0.0716 
     76 H76        18.6412  -28.0086  -39.6226 H         1 UNK         0.0695 
     77 H77        18.6572  -26.3945  -40.2742 H         1 UNK         0.0695 
     78 H78        20.1212  -28.8124  -41.4561 H         1 UNK         0.0983 
     79 H79        19.5464  -26.2470  -42.7224 H         1 UNK         0.3095 
     80 H80        21.2702  -25.6072  -44.5906 H         1 UNK         0.0454 
     81 H81        21.8858  -26.4793  -46.8270 H         1 UNK         0.0851 
     82 H82        21.5058  -28.1257  -46.3177 H         1 UNK         0.0851 
     83 H83        22.8514  -27.2645  -45.5912 H         1 UNK         0.0851 
     84 H84        19.3733  -26.9683  -46.2956 H         1 UNK         0.2976 
     85 H85        20.7441  -28.9008  -39.1653 H         1 UNK         0.3116 
     86 H86        22.0779  -28.6987  -37.4318 H         1 UNK         0.0646 
     87 H87        20.6696  -26.7378  -36.9787 H         1 UNK         0.0847 
     88 H88        22.2989  -26.4148  -36.4255 H         1 UNK         0.0847 
     89 H89        21.7155  -25.6904  -37.9241 H         1 UNK         0.0847 
     90 H90        23.7489  -25.7989  -38.1090 H         1 UNK         0.3040 
     91 H91        26.2903  -27.0975  -38.0090 H         1 UNK         0.1015 
     92 H92        25.5529  -24.1897  -38.6594 H         1 UNK         0.0786 
     93 H93        27.1623  -24.7660  -38.2493 H         1 UNK         0.0786 
     94 H94        25.8815  -24.8397  -37.0519 H         1 UNK         0.0786 
     95 H95        24.2649  -26.2311  -40.7309 H         1 UNK         0.3172 
     96 H96        26.4241  -26.1275  -42.6885 H         1 UNK         0.0595 
     97 H97        23.3963  -26.2966  -43.0228 H         1 UNK         0.0839 
     98 H98        24.5467  -26.0660  -44.3355 H         1 UNK         0.0839 
     99 H99        24.3794  -24.8396  -43.0898 H         1 UNK         0.0839 
    100 H100       23.9172  -28.5642  -41.7578 H         1 UNK         0.2998 
    101 H101       25.6185  -30.7799  -42.1437 H         1 UNK         0.0822 
    102 H102       24.1878  -31.8435  -44.0342 H         1 UNK         0.0787 
    103 H103       23.5542  -30.2319  -44.3501 H         1 UNK         0.0787 
    104 H104       25.2671  -30.5667  -44.5624 H         1 UNK         0.0787 
    105 H105       24.5706  -32.7179  -41.4107 H         1 UNK         0.3055 
    106 H106       22.3676  -32.2035  -39.5539 H         1 UNK         0.1106 
    107 H107       22.8027  -34.5503  -38.8340 H         1 UNK         0.0828 
    108 H108       23.9762  -34.7507  -40.1260 H         1 UNK         0.0828 
    109 H109       24.2741  -33.5929  -38.8298 H         1 UNK         0.0828 
    110 H110       22.9033  -34.3463  -42.3740 H         1 UNK         0.2931 
    111 H111       21.6344  -35.5863  -43.6543 H         1 UNK         0.0412 
    112 H112       18.8389  -37.5653  -42.1418 H         1 UNK         0.3472 
    113 H113       18.9180  -36.5842  -43.5799 H         1 UNK         0.3472 
    114 H114       19.2589  -34.7908  -44.2907 H         1 UNK         0.0970 
    115 H115       19.4573  -33.4864  -43.1649 H         1 UNK         0.0970 
    116 H116       21.4398  -31.5638  -43.5624 H         1 UNK         0.0612 
    117 H117       21.5153  -30.9776  -45.2058 H         1 UNK         0.0612 
@<TRIPOS>BOND
     1    1    2 1    
     2    1   62 1    
     3    1   63 1    
     4    1   64 1    
     5    2    3 2    
     6    2    4 am   BACKBONE|DICT|INTERRES
     7    4    5 1    
     8    4   65 1    
     9    5    6 1    
    10    5   25 1    
    11    5   66 1    
    12    6    7 1    
    13    6   67 1    
    14    6   68 1    
    15    7    8 1    
    16    8    9 1    
    17    8   69 1    
    18    8   70 1    
    19    9   10 ar   
    20    9   14 ar   
    21   10   11 ar   
    22   10   71 1    
    23   11   12 ar   
    24   11   61 1    
    25   12   13 ar   
    26   12   72 1    
    27   13   14 ar   
    28   13   15 1    
    29   14   73 1    
    30   15   16 1    
    31   15   74 1    
    32   15   75 1    
    33   16   17 1    
    34   17   18 1    
    35   17   76 1    
    36   17   77 1    
    37   18   19 1    
    38   18   27 1    
    39   18   78 1    
    40   19   20 am   BACKBONE|DICT|INTERRES
    41   19   79 1    
    42   20   21 2    
    43   20   22 1    
    44   22   23 1    
    45   22   24 1    
    46   22   80 1    
    47   23   81 1    
    48   23   82 1    
    49   23   83 1    
    50   24   25 am   BACKBONE|DICT|INTERRES
    51   24   84 1    
    52   25   26 2    
    53   27   28 2    
    54   27   29 am   BACKBONE|DICT|INTERRES
    55   29   30 1    
    56   29   85 1    
    57   30   31 1    
    58   30   32 1    
    59   30   86 1    
    60   31   87 1    
    61   31   88 1    
    62   31   89 1    
    63   32   33 2    
    64   32   34 am   BACKBONE|DICT|INTERRES
    65   34   35 1    
    66   34   90 1    
    67   35   36 1    
    68   35   37 1    
    69   35   91 1    
    70   36   92 1    
    71   36   93 1    
    72   36   94 1    
    73   37   38 2    
    74   37   39 am   BACKBONE|DICT|INTERRES
    75   39   40 1    
    76   39   95 1    
    77   40   41 1    
    78   40   42 1    
    79   40   96 1    
    80   41   97 1    
    81   41   98 1    
    82   41   99 1    
    83   42   43 2    
    84   42   44 am   BACKBONE|DICT|INTERRES
    85   44   45 1    
    86   44  100 1    
    87   45   46 1    
    88   45   47 1    
    89   45  101 1    
    90   46  102 1    
    91   46  103 1    
    92   46  104 1    
    93   47   48 2    
    94   47   49 am   BACKBONE|DICT|INTERRES
    95   49   50 1    
    96   49  105 1    
    97   50   51 1    
    98   50   52 1    
    99   50  106 1    
   100   51  107 1    
   101   51  108 1    
   102   51  109 1    
   103   52   53 2    
   104   52   54 am   BACKBONE|DICT|INTERRES
   105   54   55 1    
   106   54  110 1    
   107   55   56 1    
   108   55   59 1    
   109   55  111 1    
   110   56   57 am   BACKBONE|DICT|INTERRES
   111   56   58 2    
   112   57  112 1    
   113   57  113 1    
   114   59   60 1    
   115   59  114 1    
   116   59  115 1    
   117   60   61 1    
   118   61  116 1    
   119   61  117 1    
@<TRIPOS>SUBSTRUCTURE
     1 UNK         1 GROUP             0       ****    0 ROOT    
