@<TRIPOS>MOLECULE
3R8
117   119    1
SMALL
USER_CHARGES


@<TRIPOS>ATOM
      1 CA         22.2135  -26.3172  -49.6964 C.3       0 UNK        -0.2013 
      2 C          22.2211  -26.7879  -48.2498 C.2       0 UNK         0.4866 
      3 O          23.2042  -26.5718  -47.5405 O.2       0 UNK        -0.5176 
      4 N          21.1372  -27.4377  -47.8096 N.am      1 UNK        -0.4884 
      5 CA         20.9456  -27.8972  -46.4320 C.3       1 UNK         0.0853 
      6 C6         19.9122  -29.0530  -46.3487 C.3       10 UNK        -0.0849 
      7 S7         18.2507  -28.6185  -46.9691 S.3       10 UNK        -0.2776 
      8 C8         17.3468  -30.1691  -46.6649 C.3       10 UNK         0.0316 
      9 C9         17.1091  -30.4290  -45.1824 C.ar      10 UNK        -0.0863 
     10 C10        17.7030  -31.5276  -44.5527 C.ar      10 UNK        -0.1009 
     11 C11        17.4313  -31.8070  -43.2094 C.ar      10 UNK        -0.0712 
     12 C12        16.5778  -30.9670  -42.4884 C.ar      10 UNK        -0.0894 
     13 C13        15.9938  -29.8564  -43.1013 C.ar      10 UNK        -0.0745 
     14 C14        16.2569  -29.5965  -44.4499 C.ar      10 UNK        -0.0972 
     15 C15        15.0540  -28.9527  -42.3197 C.3       10 UNK         0.0209 
     16 S16        15.8769  -27.4151  -41.8057 S.3       10 UNK        -0.2568 
     17 C17        16.8151  -27.9276  -40.3212 C.3       10 UNK        -0.0983 
     18 CA         18.3414  -28.1187  -40.5515 C.3       3 UNK         0.0876 
     19 N          18.9068  -27.0926  -41.4324 N.am      3 UNK        -0.4424 
     20 C          20.1565  -27.0657  -41.9060 C.2       2 UNK         0.4918 
     21 O          21.0765  -27.7930  -41.5224 O.2       2 UNK        -0.4875 
     22 CA         20.4038  -26.1190  -43.0791 C.3       2 UNK         0.0481 
     23 CB         21.5021  -25.0876  -42.7806 C.3       2 UNK        -0.1831 
     24 N          20.7960  -26.9780  -44.1849 N.am      2 UNK        -0.4498 
     25 C          20.5906  -26.7343  -45.4814 C.2       1 UNK         0.5027 
     26 O          20.1213  -25.6797  -45.9189 O.2       1 UNK        -0.4969 
     27 C          19.0799  -28.2194  -39.2021 C.2       3 UNK         0.5005 
     28 O          19.4919  -29.3099  -38.8056 O.2       3 UNK        -0.5279 
     29 N          19.2301  -27.0704  -38.5275 N.am      4 UNK        -0.4463 
     30 CA         19.8526  -26.9640  -37.2055 C.3       4 UNK         0.0283 
     31 CB         19.2965  -25.7280  -36.4798 C.3       4 UNK        -0.1875 
     32 C          21.3861  -26.8985  -37.2688 C.2       4 UNK         0.4949 
     33 O          22.0459  -27.3752  -36.3454 O.2       4 UNK        -0.5039 
     34 N          21.9274  -26.3000  -38.3395 N.am      5 UNK        -0.4663 
     35 CA         23.3703  -26.1205  -38.5354 C.3       5 UNK         0.0242 
     36 CB         23.6130  -24.9443  -39.4930 C.3       5 UNK        -0.1982 
     37 C          24.0807  -27.3881  -39.0404 C.2       5 UNK         0.5017 
     38 O          25.3018  -27.4736  -38.9078 O.2       5 UNK        -0.5012 
     39 N          23.3143  -28.3354  -39.6036 N.am      6 UNK        -0.4439 
     40 CA         23.7519  -29.6269  -40.1434 C.3       6 UNK         0.0297 
     41 CB         24.3337  -30.5235  -39.0289 C.3       6 UNK        -0.2006 
     42 C          24.6858  -29.4840  -41.3609 C.2       6 UNK         0.4892 
     43 O          25.6576  -30.2313  -41.4837 O.2       6 UNK        -0.5089 
     44 N          24.3698  -28.5258  -42.2467 N.am      7 UNK        -0.4243 
     45 CA         25.1363  -28.2410  -43.4682 C.3       7 UNK         0.0196 
     46 CB         24.6704  -26.9082  -44.0752 C.3       7 UNK        -0.2007 
     47 C          25.0577  -29.3695  -44.5128 C.2       7 UNK         0.5020 
     48 O          26.0378  -29.6198  -45.2140 O.2       7 UNK        -0.5147 
     49 N          23.9035  -30.0424  -44.5708 N.am      8 UNK        -0.4734 
     50 CA         23.6462  -31.2449  -45.3618 C.3       8 UNK         0.0238 
     51 CB         23.4643  -30.9125  -46.8580 C.3       8 UNK        -0.1912 
     52 C          22.4400  -31.9556  -44.7355 C.2       8 UNK         0.5038 
     53 O          21.4013  -32.1103  -45.3787 O.2       8 UNK        -0.5046 
     54 N          22.5877  -32.3066  -43.4550 N.am      9 UNK        -0.4200 
     55 CA         21.5748  -32.9415  -42.6110 C.3       9 UNK         0.0839 
     56 C          22.2903  -33.7362  -41.4887 C.2       9 UNK         0.5513 
     57 N          21.7722  -34.8966  -41.1123 N.am      9 UNK        -0.7519 
     58 O          23.3106  -33.3056  -40.9564 O.2       9 UNK        -0.4960 
     59 C59        20.5595  -31.8934  -42.0758 C.3       10 UNK        -0.0876 
     60 S60        19.1489  -32.6207  -41.1785 S.3       10 UNK        -0.2414 
     61 C61        18.0249  -33.0401  -42.5451 C.3       10 UNK         0.0169 
     62 H62        23.0469  -26.7617  -50.2399 H         1 UNK         0.0903 
     63 H63        21.2908  -26.5889  -50.2090 H         1 UNK         0.0903 
     64 H64        22.3183  -25.2334  -49.7381 H         1 UNK         0.0903 
     65 H65        20.3368  -27.5538  -48.4156 H         1 UNK         0.3096 
     66 H66        21.9045  -28.2885  -46.0863 H         1 UNK         0.1121 
     67 H67        20.2707  -29.9063  -46.9261 H         1 UNK         0.0849 
     68 H68        19.8227  -29.4162  -45.3230 H         1 UNK         0.0849 
     69 H69        16.3824  -30.1175  -47.1722 H         1 UNK         0.0865 
     70 H70        17.8872  -30.9972  -47.1265 H         1 UNK         0.0865 
     71 H71        18.3610  -32.1781  -45.1136 H         1 UNK         0.1346 
     72 H72        16.3670  -31.1839  -41.4500 H         1 UNK         0.1412 
     73 H73        15.7956  -28.7451  -44.9321 H         1 UNK         0.1426 
     74 H74        14.6443  -29.4673  -41.4492 H         1 UNK         0.0716 
     75 H75        14.1993  -28.6966  -42.9476 H         1 UNK         0.0716 
     76 H76        16.6316  -27.1556  -39.5713 H         1 UNK         0.0695 
     77 H77        16.3819  -28.8423  -39.9127 H         1 UNK         0.0695 
     78 H78        18.4817  -29.0735  -41.0642 H         1 UNK         0.0983 
     79 H79        18.2239  -26.4696  -41.8403 H         1 UNK         0.3095 
     80 H80        19.4771  -25.5962  -43.3263 H         1 UNK         0.0454 
     81 H81        22.4596  -25.5680  -42.5859 H         1 UNK         0.0851 
     82 H82        21.6399  -24.4058  -43.6198 H         1 UNK         0.0851 
     83 H83        21.2465  -24.4829  -41.9099 H         1 UNK         0.0851 
     84 H84        21.1394  -27.8826  -43.8942 H         1 UNK         0.2976 
     85 H85        18.8611  -26.2222  -38.9339 H         1 UNK         0.3116 
     86 H86        19.5840  -27.8452  -36.6182 H         1 UNK         0.0646 
     87 H87        19.7242  -25.6384  -35.4801 H         1 UNK         0.0847 
     88 H88        18.2145  -25.7901  -36.3616 H         1 UNK         0.0847 
     89 H89        19.5245  -24.8049  -37.0141 H         1 UNK         0.0847 
     90 H90        21.3143  -25.9374  -39.0542 H         1 UNK         0.3040 
     91 H91        23.8208  -25.8650  -37.5732 H         1 UNK         0.1015 
     92 H92        23.1517  -24.0277  -39.1249 H         1 UNK         0.0786 
     93 H93        23.2178  -25.1471  -40.4855 H         1 UNK         0.0786 
     94 H94        24.6802  -24.7464  -39.6041 H         1 UNK         0.0786 
     95 H95        22.3287  -28.1309  -39.7207 H         1 UNK         0.3172 
     96 H96        22.8517  -30.1156  -40.5135 H         1 UNK         0.0595 
     97 H97        23.6323  -30.6323  -38.2017 H         1 UNK         0.0839 
     98 H98        25.2667  -30.1254  -38.6296 H         1 UNK         0.0839 
     99 H99        24.5478  -31.5247  -39.4033 H         1 UNK         0.0839 
    100 H100       23.5574  -27.9544  -42.0594 H         1 UNK         0.2998 
    101 H101       26.1855  -28.1339  -43.1838 H         1 UNK         0.0822 
    102 H102       24.7956  -26.0850  -43.3717 H         1 UNK         0.0787 
    103 H103       25.2523  -26.6623  -44.9648 H         1 UNK         0.0787 
    104 H104       23.6243  -26.9413  -44.3777 H         1 UNK         0.0787 
    105 H105       23.1743  -29.7846  -43.9217 H         1 UNK         0.3055 
    106 H106       24.5011  -31.9184  -45.2656 H         1 UNK         0.1106 
    107 H107       23.2893  -31.8207  -47.4360 H         1 UNK         0.0828 
    108 H108       22.6185  -30.2524  -47.0343 H         1 UNK         0.0828 
    109 H109       24.3512  -30.4345  -47.2734 H         1 UNK         0.0828 
    110 H110       23.4830  -32.1794  -43.0001 H         1 UNK         0.2931 
    111 H111       21.0368  -33.6609  -43.2319 H         1 UNK         0.0412 
    112 H112       20.9217  -35.2444  -41.5272 H         1 UNK         0.3472 
    113 H113       22.2260  -35.4222  -40.3816 H         1 UNK         0.3472 
    114 H114       21.0525  -31.1891  -41.4059 H         1 UNK         0.0970 
    115 H115       20.1714  -31.2897  -42.8970 H         1 UNK         0.0970 
    116 H116       17.2130  -33.6539  -42.1527 H         1 UNK         0.0612 
    117 H117       18.5541  -33.6604  -43.2699 H         1 UNK         0.0612 
@<TRIPOS>BOND
     1    1    2 1    
     2    1   62 1    
     3    1   63 1    
     4    1   64 1    
     5    2    3 2    
     6    2    4 am   BACKBONE|DICT|INTERRES
     7    4    5 1    
     8    4   65 1    
     9    5    6 1    
    10    5   25 1    
    11    5   66 1    
    12    6    7 1    
    13    6   67 1    
    14    6   68 1    
    15    7    8 1    
    16    8    9 1    
    17    8   69 1    
    18    8   70 1    
    19    9   10 ar   
    20    9   14 ar   
    21   10   11 ar   
    22   10   71 1    
    23   11   12 ar   
    24   11   61 1    
    25   12   13 ar   
    26   12   72 1    
    27   13   14 ar   
    28   13   15 1    
    29   14   73 1    
    30   15   16 1    
    31   15   74 1    
    32   15   75 1    
    33   16   17 1    
    34   17   18 1    
    35   17   76 1    
    36   17   77 1    
    37   18   19 1    
    38   18   27 1    
    39   18   78 1    
    40   19   20 am   BACKBONE|DICT|INTERRES
    41   19   79 1    
    42   20   21 2    
    43   20   22 1    
    44   22   23 1    
    45   22   24 1    
    46   22   80 1    
    47   23   81 1    
    48   23   82 1    
    49   23   83 1    
    50   24   25 am   BACKBONE|DICT|INTERRES
    51   24   84 1    
    52   25   26 2    
    53   27   28 2    
    54   27   29 am   BACKBONE|DICT|INTERRES
    55   29   30 1    
    56   29   85 1    
    57   30   31 1    
    58   30   32 1    
    59   30   86 1    
    60   31   87 1    
    61   31   88 1    
    62   31   89 1    
    63   32   33 2    
    64   32   34 am   BACKBONE|DICT|INTERRES
    65   34   35 1    
    66   34   90 1    
    67   35   36 1    
    68   35   37 1    
    69   35   91 1    
    70   36   92 1    
    71   36   93 1    
    72   36   94 1    
    73   37   38 2    
    74   37   39 am   BACKBONE|DICT|INTERRES
    75   39   40 1    
    76   39   95 1    
    77   40   41 1    
    78   40   42 1    
    79   40   96 1    
    80   41   97 1    
    81   41   98 1    
    82   41   99 1    
    83   42   43 2    
    84   42   44 am   BACKBONE|DICT|INTERRES
    85   44   45 1    
    86   44  100 1    
    87   45   46 1    
    88   45   47 1    
    89   45  101 1    
    90   46  102 1    
    91   46  103 1    
    92   46  104 1    
    93   47   48 2    
    94   47   49 am   BACKBONE|DICT|INTERRES
    95   49   50 1    
    96   49  105 1    
    97   50   51 1    
    98   50   52 1    
    99   50  106 1    
   100   51  107 1    
   101   51  108 1    
   102   51  109 1    
   103   52   53 2    
   104   52   54 am   BACKBONE|DICT|INTERRES
   105   54   55 1    
   106   54  110 1    
   107   55   56 1    
   108   55   59 1    
   109   55  111 1    
   110   56   57 am   BACKBONE|DICT|INTERRES
   111   56   58 2    
   112   57  112 1    
   113   57  113 1    
   114   59   60 1    
   115   59  114 1    
   116   59  115 1    
   117   60   61 1    
   118   61  116 1    
   119   61  117 1    
@<TRIPOS>SUBSTRUCTURE
     1 UNK         1 GROUP             0       ****    0 ROOT    
