@<TRIPOS>MOLECULE
3R8
117   119    1
SMALL
USER_CHARGES


@<TRIPOS>ATOM
      1 CA         17.3885  -22.5054  -41.1657 C.3       0 UNK        -0.2013 
      2 C          17.5192  -23.0548  -42.5785 C.2       0 UNK         0.4866 
      3 O          17.2885  -22.3251  -43.5434 O.2       0 UNK        -0.5176 
      4 N          17.8760  -24.3394  -42.7041 N.am      1 UNK        -0.4884 
      5 CA         18.0958  -25.0421  -43.9731 C.3       1 UNK         0.0853 
      6 C6         18.3537  -26.5527  -43.7514 C.3       10 UNK        -0.0849 
      7 S7         16.9855  -27.4157  -42.9104 S.3       10 UNK        -0.2776 
      8 C8         16.6967  -28.8261  -44.0294 C.3       10 UNK         0.0316 
      9 C9         17.8207  -29.8540  -43.9626 C.ar      10 UNK        -0.0863 
     10 C10        17.8013  -30.8495  -42.9815 C.ar      10 UNK        -0.1009 
     11 C11        18.7991  -31.8273  -42.9435 C.ar      10 UNK        -0.0712 
     12 C12        19.8419  -31.7827  -43.8739 C.ar      10 UNK        -0.0894 
     13 C13        19.8873  -30.7863  -44.8549 C.ar      10 UNK        -0.0745 
     14 C14        18.8576  -29.8369  -44.9023 C.ar      10 UNK        -0.0972 
     15 C15        21.0258  -30.8129  -45.8784 C.3       10 UNK         0.0209 
     16 S16        21.4122  -29.2138  -46.6747 S.3       10 UNK        -0.2568 
     17 C17        22.2463  -28.3263  -45.3181 C.3       10 UNK        -0.0983 
     18 CA         22.6918  -26.8965  -45.7282 C.3       3 UNK         0.0876 
     19 N          21.5456  -26.0943  -46.1715 N.am      3 UNK        -0.4424 
     20 C          21.5843  -24.9734  -46.9032 C.2       2 UNK         0.4918 
     21 O          22.6140  -24.5178  -47.3993 O.2       2 UNK        -0.4875 
     22 CA         20.2596  -24.1980  -47.0623 C.3       2 UNK         0.0481 
     23 CB         19.7157  -24.3606  -48.4907 C.3       2 UNK        -0.1831 
     24 N          19.2107  -24.5750  -46.1024 N.am      2 UNK        -0.4498 
     25 C          19.2800  -24.4514  -44.7671 C.2       1 UNK         0.5027 
     26 O          20.2605  -23.9984  -44.1669 O.2       1 UNK        -0.4969 
     27 C          23.5046  -26.2198  -44.5918 C.2       3 UNK         0.5005 
     28 O          24.4421  -26.8393  -44.0872 O.2       3 UNK        -0.5279 
     29 N          23.1418  -24.9806  -44.2146 N.am      4 UNK        -0.4463 
     30 CA         23.6271  -24.1841  -43.0827 C.3       4 UNK         0.0283 
     31 CB         25.1583  -23.9842  -43.1102 C.3       4 UNK        -0.1875 
     32 C          23.0966  -24.7746  -41.7688 C.2       4 UNK         0.4949 
     33 O          23.8765  -25.1902  -40.9103 O.2       4 UNK        -0.5039 
     34 N          21.7589  -24.8196  -41.6755 N.am      5 UNK        -0.4663 
     35 CA         20.9660  -25.5175  -40.6576 C.3       5 UNK         0.0242 
     36 CB         21.2260  -24.9534  -39.2415 C.3       5 UNK        -0.1982 
     37 C          21.1302  -27.0460  -40.7799 C.2       5 UNK         0.5017 
     38 O          21.3204  -27.5417  -41.8922 O.2       5 UNK        -0.5012 
     39 N          21.0056  -27.7727  -39.6621 N.am      6 UNK        -0.4439 
     40 CA         21.1237  -29.2305  -39.6137 C.3       6 UNK         0.0297 
     41 CB         20.7096  -29.7342  -38.2214 C.3       6 UNK        -0.2006 
     42 C          22.5459  -29.7023  -39.9628 C.2       6 UNK         0.4892 
     43 O          23.5157  -29.1814  -39.4060 O.2       6 UNK        -0.5089 
     44 N          22.6248  -30.6925  -40.8563 N.am      7 UNK        -0.4243 
     45 CA         23.8483  -31.3878  -41.2491 C.3       7 UNK         0.0196 
     46 CB         23.8550  -31.5348  -42.7851 C.3       7 UNK        -0.2007 
     47 C          23.9146  -32.7300  -40.4970 C.2       7 UNK         0.5020 
     48 O          23.5405  -32.7933  -39.3235 O.2       7 UNK        -0.5147 
     49 N          24.3433  -33.8022  -41.1757 N.am      8 UNK        -0.4734 
     50 CA         24.3312  -35.1817  -40.6719 C.3       8 UNK         0.0238 
     51 CB         25.3833  -36.0031  -41.4412 C.3       8 UNK        -0.1912 
     52 C          22.9178  -35.7992  -40.7507 C.2       8 UNK         0.5038 
     53 O          22.7305  -36.8425  -41.3801 O.2       8 UNK        -0.5046 
     54 N          21.9433  -35.1092  -40.1489 N.am      9 UNK        -0.4200 
     55 CA         20.5178  -35.4561  -40.1355 C.3       9 UNK         0.0839 
     56 C          20.2230  -36.7416  -39.3172 C.2       9 UNK         0.5513 
     57 N          19.2314  -37.5213  -39.7255 N.am      9 UNK        -0.7519 
     58 O          20.8522  -37.0137  -38.2963 O.2       9 UNK        -0.4960 
     59 C59        19.6518  -34.2708  -39.6315 C.3       10 UNK        -0.0876 
     60 S60        19.9173  -32.7339  -40.5816 S.3       10 UNK        -0.2414 
     61 C61        18.7262  -32.9613  -41.9319 C.3       10 UNK         0.0169 
     62 H62        18.0703  -21.6670  -41.0259 H         1 UNK         0.0903 
     63 H63        17.6185  -23.2577  -40.4113 H         1 UNK         0.0903 
     64 H64        16.3725  -22.1513  -40.9930 H         1 UNK         0.0903 
     65 H65        17.9990  -24.9013  -41.8755 H         1 UNK         0.3096 
     66 H66        17.1899  -24.9218  -44.5717 H         1 UNK         0.1121 
     67 H67        19.2587  -26.7088  -43.1652 H         1 UNK         0.0849 
     68 H68        18.5347  -27.0384  -44.7098 H         1 UNK         0.0849 
     69 H69        15.7534  -29.3011  -43.7552 H         1 UNK         0.0865 
     70 H70        16.5621  -28.4662  -45.0508 H         1 UNK         0.0865 
     71 H71        16.9937  -30.8764  -42.2625 H         1 UNK         0.1346 
     72 H72        20.6102  -32.5434  -43.8442 H         1 UNK         0.1412 
     73 H73        18.8531  -29.0880  -45.6803 H         1 UNK         0.1426 
     74 H74        21.9366  -31.1945  -45.4141 H         1 UNK         0.0716 
     75 H75        20.7588  -31.5247  -46.6603 H         1 UNK         0.0716 
     76 H76        23.1063  -28.9246  -45.0127 H         1 UNK         0.0695 
     77 H77        21.5747  -28.2899  -44.4584 H         1 UNK         0.0695 
     78 H78        23.3773  -26.9886  -46.5734 H         1 UNK         0.0983 
     79 H79        20.6477  -26.4050  -45.8369 H         1 UNK         0.3095 
     80 H80        20.4851  -23.1419  -46.9014 H         1 UNK         0.0454 
     81 H81        18.8309  -23.7450  -48.6528 H         1 UNK         0.0851 
     82 H82        19.4510  -25.3964  -48.7073 H         1 UNK         0.0851 
     83 H83        20.4581  -24.0542  -49.2292 H         1 UNK         0.0851 
     84 H84        18.3717  -24.9688  -46.5055 H         1 UNK         0.2976 
     85 H85        22.3264  -24.5928  -44.6724 H         1 UNK         0.3116 
     86 H86        23.1725  -23.1976  -43.1885 H         1 UNK         0.0646 
     87 H87        25.4898  -23.5847  -44.0684 H         1 UNK         0.0847 
     88 H88        25.4665  -23.2778  -42.3388 H         1 UNK         0.0847 
     89 H89        25.7006  -24.9118  -42.9265 H         1 UNK         0.0847 
     90 H90        21.2298  -24.4768  -42.4724 H         1 UNK         0.3040 
     91 H91        19.9240  -25.3128  -40.9016 H         1 UNK         0.1015 
     92 H92        22.2053  -25.2420  -38.8578 H         1 UNK         0.0786 
     93 H93        20.4764  -25.3027  -38.5307 H         1 UNK         0.0786 
     94 H94        21.1780  -23.8643  -39.2386 H         1 UNK         0.0786 
     95 H95        20.8859  -27.2940  -38.7819 H         1 UNK         0.3172 
     96 H96        20.4237  -29.6418  -40.3452 H         1 UNK         0.0595 
     97 H97        19.6785  -29.4663  -37.9907 H         1 UNK         0.0839 
     98 H98        21.3497  -29.3275  -37.4374 H         1 UNK         0.0839 
     99 H99        20.7806  -30.8216  -38.1660 H         1 UNK         0.0839 
    100 H100       21.7610  -31.0902  -41.2003 H         1 UNK         0.2998 
    101 H101       24.7251  -30.8067  -40.9560 H         1 UNK         0.0822 
    102 H102       24.8005  -31.9426  -43.1445 H         1 UNK         0.0787 
    103 H103       23.0515  -32.1833  -43.1369 H         1 UNK         0.0787 
    104 H104       23.7289  -30.5653  -43.2675 H         1 UNK         0.0787 
    105 H105       24.6029  -33.6811  -42.1443 H         1 UNK         0.3055 
    106 H106       24.6188  -35.1789  -39.6177 H         1 UNK         0.1106 
    107 H107       26.3794  -35.5739  -41.3320 H         1 UNK         0.0828 
    108 H108       25.4317  -37.0260  -41.0653 H         1 UNK         0.0828 
    109 H109       25.1554  -36.0575  -42.5064 H         1 UNK         0.0828 
    110 H110       22.2031  -34.2586  -39.6619 H         1 UNK         0.2931 
    111 H111       20.2368  -35.6553  -41.1717 H         1 UNK         0.0412 
    112 H112       18.7036  -37.3032  -40.5568 H         1 UNK         0.3472 
    113 H113       19.0128  -38.3531  -39.1988 H         1 UNK         0.3472 
    114 H114       18.5910  -34.5270  -39.6632 H         1 UNK         0.0970 
    115 H115       19.8764  -34.0582  -38.5845 H         1 UNK         0.0970 
    116 H116       18.9269  -33.9079  -42.4358 H         1 UNK         0.0612 
    117 H117       17.7210  -33.0390  -41.5147 H         1 UNK         0.0612 
@<TRIPOS>BOND
     1    1    2 1    
     2    1   62 1    
     3    1   63 1    
     4    1   64 1    
     5    2    3 2    
     6    2    4 am   BACKBONE|DICT|INTERRES
     7    4    5 1    
     8    4   65 1    
     9    5    6 1    
    10    5   25 1    
    11    5   66 1    
    12    6    7 1    
    13    6   67 1    
    14    6   68 1    
    15    7    8 1    
    16    8    9 1    
    17    8   69 1    
    18    8   70 1    
    19    9   10 ar   
    20    9   14 ar   
    21   10   11 ar   
    22   10   71 1    
    23   11   12 ar   
    24   11   61 1    
    25   12   13 ar   
    26   12   72 1    
    27   13   14 ar   
    28   13   15 1    
    29   14   73 1    
    30   15   16 1    
    31   15   74 1    
    32   15   75 1    
    33   16   17 1    
    34   17   18 1    
    35   17   76 1    
    36   17   77 1    
    37   18   19 1    
    38   18   27 1    
    39   18   78 1    
    40   19   20 am   BACKBONE|DICT|INTERRES
    41   19   79 1    
    42   20   21 2    
    43   20   22 1    
    44   22   23 1    
    45   22   24 1    
    46   22   80 1    
    47   23   81 1    
    48   23   82 1    
    49   23   83 1    
    50   24   25 am   BACKBONE|DICT|INTERRES
    51   24   84 1    
    52   25   26 2    
    53   27   28 2    
    54   27   29 am   BACKBONE|DICT|INTERRES
    55   29   30 1    
    56   29   85 1    
    57   30   31 1    
    58   30   32 1    
    59   30   86 1    
    60   31   87 1    
    61   31   88 1    
    62   31   89 1    
    63   32   33 2    
    64   32   34 am   BACKBONE|DICT|INTERRES
    65   34   35 1    
    66   34   90 1    
    67   35   36 1    
    68   35   37 1    
    69   35   91 1    
    70   36   92 1    
    71   36   93 1    
    72   36   94 1    
    73   37   38 2    
    74   37   39 am   BACKBONE|DICT|INTERRES
    75   39   40 1    
    76   39   95 1    
    77   40   41 1    
    78   40   42 1    
    79   40   96 1    
    80   41   97 1    
    81   41   98 1    
    82   41   99 1    
    83   42   43 2    
    84   42   44 am   BACKBONE|DICT|INTERRES
    85   44   45 1    
    86   44  100 1    
    87   45   46 1    
    88   45   47 1    
    89   45  101 1    
    90   46  102 1    
    91   46  103 1    
    92   46  104 1    
    93   47   48 2    
    94   47   49 am   BACKBONE|DICT|INTERRES
    95   49   50 1    
    96   49  105 1    
    97   50   51 1    
    98   50   52 1    
    99   50  106 1    
   100   51  107 1    
   101   51  108 1    
   102   51  109 1    
   103   52   53 2    
   104   52   54 am   BACKBONE|DICT|INTERRES
   105   54   55 1    
   106   54  110 1    
   107   55   56 1    
   108   55   59 1    
   109   55  111 1    
   110   56   57 am   BACKBONE|DICT|INTERRES
   111   56   58 2    
   112   57  112 1    
   113   57  113 1    
   114   59   60 1    
   115   59  114 1    
   116   59  115 1    
   117   60   61 1    
   118   61  116 1    
   119   61  117 1    
@<TRIPOS>SUBSTRUCTURE
     1 UNK         1 GROUP             0       ****    0 ROOT    
