@<TRIPOS>MOLECULE
3R8
117   119    1
SMALL
USER_CHARGES


@<TRIPOS>ATOM
      1 CA         18.0035  -33.7841  -45.9652 C.3       0 UNK        -0.2013 
      2 C          17.6066  -32.3390  -45.7019 C.2       0 UNK         0.4866 
      3 O          16.4710  -32.0814  -45.3036 O.2       0 UNK        -0.5176 
      4 N          18.5376  -31.4042  -45.9179 N.am      1 UNK        -0.4884 
      5 CA         18.4242  -29.9776  -45.6192 C.3       1 UNK         0.0853 
      6 C6         17.3564  -29.2461  -46.4867 C.3       10 UNK        -0.0849 
      7 S7         16.9143  -27.5762  -45.8871 S.3       10 UNK        -0.2776 
      8 C8         15.6065  -27.9150  -44.6573 C.3       10 UNK         0.0316 
      9 C9         16.1992  -28.1315  -43.2724 C.ar      10 UNK        -0.0863 
     10 C10        16.2941  -29.4144  -42.7273 C.ar      10 UNK        -0.1009 
     11 C11        16.9322  -29.6203  -41.4986 C.ar      10 UNK        -0.0712 
     12 C12        17.4406  -28.5226  -40.7960 C.ar      10 UNK        -0.0894 
     13 C13        17.3185  -27.2299  -41.3141 C.ar      10 UNK        -0.0745 
     14 C14        16.6842  -27.0413  -42.5458 C.ar      10 UNK        -0.0972 
     15 C15        17.8793  -26.0377  -40.5491 C.3       10 UNK         0.0209 
     16 S16        19.6808  -25.8526  -40.7680 S.3       10 UNK        -0.2568 
     17 C17        19.8002  -25.3688  -42.5219 C.3       10 UNK        -0.0983 
     18 CA         21.1434  -25.8085  -43.1630 C.3       3 UNK         0.0876 
     19 N          20.9389  -26.3311  -44.5128 N.am      3 UNK        -0.4424 
     20 C          21.8427  -27.0141  -45.2252 C.2       2 UNK         0.4918 
     21 O          22.9937  -27.2412  -44.8496 O.2       2 UNK        -0.4875 
     22 CA         21.3323  -27.5732  -46.5672 C.3       2 UNK         0.0481 
     23 CB         22.3814  -28.4347  -47.3033 C.3       2 UNK        -0.1831 
     24 N          20.0656  -28.3026  -46.4060 N.am      2 UNK        -0.4498 
     25 C          19.8559  -29.4089  -45.6749 C.2       1 UNK         0.5027 
     26 O          20.7473  -30.0047  -45.0643 O.2       1 UNK        -0.4969 
     27 C          22.1749  -24.6618  -43.1418 C.2       3 UNK         0.5005 
     28 O          22.0377  -23.7011  -43.9046 O.2       3 UNK        -0.5279 
     29 N          23.1571  -24.7708  -42.2458 N.am      4 UNK        -0.4463 
     30 CA         24.1620  -23.7616  -41.9296 C.3       4 UNK         0.0283 
     31 CB         25.3592  -23.8881  -42.8962 C.3       4 UNK        -0.1875 
     32 C          24.5073  -23.9315  -40.4421 C.2       4 UNK         0.4949 
     33 O          23.6079  -23.8291  -39.6067 O.2       4 UNK        -0.5039 
     34 N          25.7743  -24.2346  -40.1242 N.am      5 UNK        -0.4663 
     35 CA         26.2208  -24.6287  -38.7791 C.3       5 UNK         0.0242 
     36 CB         27.7533  -24.5265  -38.7091 C.3       5 UNK        -0.1982 
     37 C          25.7550  -26.0455  -38.3802 C.2       5 UNK         0.5017 
     38 O          25.7333  -26.3696  -37.1925 O.2       5 UNK        -0.5012 
     39 N          25.3871  -26.8493  -39.3817 N.am      6 UNK        -0.4439 
     40 CA         24.7669  -28.1653  -39.2950 C.3       6 UNK         0.0297 
     41 CB         25.8609  -29.2502  -39.2693 C.3       6 UNK        -0.2006 
     42 C          23.8280  -28.3041  -40.5057 C.2       6 UNK         0.4892 
     43 O          23.6671  -27.3418  -41.2608 O.2       6 UNK        -0.5089 
     44 N          23.2354  -29.4867  -40.6823 N.am      7 UNK        -0.4243 
     45 CA         22.4204  -29.8546  -41.8389 C.3       7 UNK         0.0196 
     46 CB         20.9292  -29.6986  -41.4876 C.3       7 UNK        -0.2007 
     47 C          22.7554  -31.3006  -42.2239 C.2       7 UNK         0.5020 
     48 O          23.3552  -32.0250  -41.4254 O.2       7 UNK        -0.5147 
     49 N          22.3396  -31.7108  -43.4276 N.am      8 UNK        -0.4734 
     50 CA         22.5262  -33.0701  -43.9561 C.3       8 UNK         0.0238 
     51 CB         22.3895  -33.0246  -45.4878 C.3       8 UNK        -0.1912 
     52 C          21.5601  -34.1123  -43.3535 C.2       8 UNK         0.5038 
     53 O          21.6868  -35.2988  -43.6588 O.2       8 UNK        -0.5046 
     54 N          20.6014  -33.6445  -42.5476 N.am      9 UNK        -0.4200 
     55 CA         19.5352  -34.4012  -41.8791 C.3       9 UNK         0.0839 
     56 C          20.0620  -35.5328  -40.9564 C.2       9 UNK         0.5513 
     57 N          19.3917  -36.6766  -40.9337 N.am      9 UNK        -0.7519 
     58 O          21.0377  -35.3647  -40.2279 O.2       9 UNK        -0.4960 
     59 C59        18.6001  -33.4461  -41.0890 C.3       10 UNK        -0.0876 
     60 S60        18.0241  -32.0645  -42.1274 S.3       10 UNK        -0.2414 
     61 C61        17.1062  -31.0302  -40.9497 C.3       10 UNK         0.0169 
     62 H62        17.9217  -34.3647  -45.0467 H         1 UNK         0.0903 
     63 H63        17.3413  -34.2263  -46.7089 H         1 UNK         0.0903 
     64 H64        19.0274  -33.8692  -46.3283 H         1 UNK         0.0903 
     65 H65        19.4637  -31.6801  -46.2155 H         1 UNK         0.3096 
     66 H66        18.1299  -29.9033  -44.5730 H         1 UNK         0.1121 
     67 H67        17.6867  -29.1764  -47.5245 H         1 UNK         0.0849 
     68 H68        16.4349  -29.8263  -46.5287 H         1 UNK         0.0849 
     69 H69        14.9256  -27.0632  -44.6248 H         1 UNK         0.0865 
     70 H70        15.0045  -28.7710  -44.9663 H         1 UNK         0.0865 
     71 H71        15.9197  -30.2641  -43.2830 H         1 UNK         0.1346 
     72 H72        17.9453  -28.6718  -39.8512 H         1 UNK         0.1412 
     73 H73        16.5994  -26.0459  -42.9606 H         1 UNK         0.1426 
     74 H74        17.3830  -25.1153  -40.8550 H         1 UNK         0.0716 
     75 H75        17.6663  -26.1579  -39.4860 H         1 UNK         0.0716 
     76 H76        18.9744  -25.8338  -43.0556 H         1 UNK         0.0695 
     77 H77        19.6240  -24.2945  -42.6092 H         1 UNK         0.0695 
     78 H78        21.5457  -26.6462  -42.5896 H         1 UNK         0.0983 
     79 H79        20.0276  -26.1767  -44.9166 H         1 UNK         0.3095 
     80 H80        21.1145  -26.7111  -47.1992 H         1 UNK         0.0454 
     81 H81        22.6947  -29.2946  -46.7106 H         1 UNK         0.0851 
     82 H82        21.9960  -28.8045  -48.2531 H         1 UNK         0.0851 
     83 H83        23.2769  -27.8519  -47.5219 H         1 UNK         0.0851 
     84 H84        19.2573  -27.8809  -46.8448 H         1 UNK         0.2976 
     85 H85        23.2119  -25.6286  -41.6958 H         1 UNK         0.3116 
     86 H86        23.7245  -22.7673  -42.0406 H         1 UNK         0.0646 
     87 H87        25.8151  -24.8782  -42.8570 H         1 UNK         0.0847 
     88 H88        25.0456  -23.7167  -43.9262 H         1 UNK         0.0847 
     89 H89        26.1296  -23.1483  -42.6749 H         1 UNK         0.0847 
     90 H90        26.4612  -24.2818  -40.8636 H         1 UNK         0.3040 
     91 H91        25.7953  -23.9311  -38.0538 H         1 UNK         0.1015 
     92 H92        28.2368  -25.2025  -39.4155 H         1 UNK         0.0786 
     93 H93        28.1160  -24.7832  -37.7127 H         1 UNK         0.0786 
     94 H94        28.0941  -23.5135  -38.9243 H         1 UNK         0.0786 
     95 H95        25.3672  -26.4612  -40.3159 H         1 UNK         0.3172 
     96 H96        24.1612  -28.2263  -38.3886 H         1 UNK         0.0595 
     97 H97        25.4347  -30.2453  -39.1387 H         1 UNK         0.0839 
     98 H98        26.5552  -29.0913  -38.4439 H         1 UNK         0.0839 
     99 H99        26.4398  -29.2593  -40.1937 H         1 UNK         0.0839 
    100 H100       23.4687  -30.2620  -40.0747 H         1 UNK         0.2998 
    101 H101       22.6622  -29.2151  -42.6916 H         1 UNK         0.0822 
    102 H102       20.2947  -29.9141  -42.3477 H         1 UNK         0.0787 
    103 H103       20.6292  -30.3698  -40.6820 H         1 UNK         0.0787 
    104 H104       20.7019  -28.6804  -41.1736 H         1 UNK         0.0787 
    105 H105       21.8259  -31.0583  -44.0205 H         1 UNK         0.3055 
    106 H106       23.5389  -33.3998  -43.7131 H         1 UNK         0.1106 
    107 H107       23.1027  -32.3283  -45.9295 H         1 UNK         0.0828 
    108 H108       22.5795  -34.0040  -45.9289 H         1 UNK         0.0828 
    109 H109       21.3896  -32.7177  -45.7932 H         1 UNK         0.0828 
    110 H110       20.5887  -32.6506  -42.3790 H         1 UNK         0.2931 
    111 H111       18.9480  -34.8632  -42.6753 H         1 UNK         0.0412 
    112 H112       18.5824  -36.8191  -41.5184 H         1 UNK         0.3472 
    113 H113       19.7073  -37.4181  -40.3275 H         1 UNK         0.3472 
    114 H114       17.7297  -33.9852  -40.7102 H         1 UNK         0.0970 
    115 H115       19.1166  -33.0352  -40.2190 H         1 UNK         0.0970 
    116 H116       17.6384  -31.0094  -39.9974 H         1 UNK         0.0612 
    117 H117       16.1288  -31.4751  -40.7591 H         1 UNK         0.0612 
@<TRIPOS>BOND
     1    1    2 1    
     2    1   62 1    
     3    1   63 1    
     4    1   64 1    
     5    2    3 2    
     6    2    4 am   BACKBONE|DICT|INTERRES
     7    4    5 1    
     8    4   65 1    
     9    5    6 1    
    10    5   25 1    
    11    5   66 1    
    12    6    7 1    
    13    6   67 1    
    14    6   68 1    
    15    7    8 1    
    16    8    9 1    
    17    8   69 1    
    18    8   70 1    
    19    9   10 ar   
    20    9   14 ar   
    21   10   11 ar   
    22   10   71 1    
    23   11   12 ar   
    24   11   61 1    
    25   12   13 ar   
    26   12   72 1    
    27   13   14 ar   
    28   13   15 1    
    29   14   73 1    
    30   15   16 1    
    31   15   74 1    
    32   15   75 1    
    33   16   17 1    
    34   17   18 1    
    35   17   76 1    
    36   17   77 1    
    37   18   19 1    
    38   18   27 1    
    39   18   78 1    
    40   19   20 am   BACKBONE|DICT|INTERRES
    41   19   79 1    
    42   20   21 2    
    43   20   22 1    
    44   22   23 1    
    45   22   24 1    
    46   22   80 1    
    47   23   81 1    
    48   23   82 1    
    49   23   83 1    
    50   24   25 am   BACKBONE|DICT|INTERRES
    51   24   84 1    
    52   25   26 2    
    53   27   28 2    
    54   27   29 am   BACKBONE|DICT|INTERRES
    55   29   30 1    
    56   29   85 1    
    57   30   31 1    
    58   30   32 1    
    59   30   86 1    
    60   31   87 1    
    61   31   88 1    
    62   31   89 1    
    63   32   33 2    
    64   32   34 am   BACKBONE|DICT|INTERRES
    65   34   35 1    
    66   34   90 1    
    67   35   36 1    
    68   35   37 1    
    69   35   91 1    
    70   36   92 1    
    71   36   93 1    
    72   36   94 1    
    73   37   38 2    
    74   37   39 am   BACKBONE|DICT|INTERRES
    75   39   40 1    
    76   39   95 1    
    77   40   41 1    
    78   40   42 1    
    79   40   96 1    
    80   41   97 1    
    81   41   98 1    
    82   41   99 1    
    83   42   43 2    
    84   42   44 am   BACKBONE|DICT|INTERRES
    85   44   45 1    
    86   44  100 1    
    87   45   46 1    
    88   45   47 1    
    89   45  101 1    
    90   46  102 1    
    91   46  103 1    
    92   46  104 1    
    93   47   48 2    
    94   47   49 am   BACKBONE|DICT|INTERRES
    95   49   50 1    
    96   49  105 1    
    97   50   51 1    
    98   50   52 1    
    99   50  106 1    
   100   51  107 1    
   101   51  108 1    
   102   51  109 1    
   103   52   53 2    
   104   52   54 am   BACKBONE|DICT|INTERRES
   105   54   55 1    
   106   54  110 1    
   107   55   56 1    
   108   55   59 1    
   109   55  111 1    
   110   56   57 am   BACKBONE|DICT|INTERRES
   111   56   58 2    
   112   57  112 1    
   113   57  113 1    
   114   59   60 1    
   115   59  114 1    
   116   59  115 1    
   117   60   61 1    
   118   61  116 1    
   119   61  117 1    
@<TRIPOS>SUBSTRUCTURE
     1 UNK         1 GROUP             0       ****    0 ROOT    
